MODEL 1
REMARK VINA RESULT:      -8.6      0.000      0.000
REMARK  6 active torsions:
REMARK  status: ('A' for Active; 'I' for Inactive)
REMARK    1  A    between atoms: C_9  and  N_13 
REMARK       I    between atoms: N_13  and  C_14 
REMARK    2  A    between atoms: C_14  and  C_17 
REMARK    3  A    between atoms: C_17  and  N_18 
REMARK    4  A    between atoms: C_20  and  C_23 
REMARK    5  A    between atoms: C_23  and  C_25 
REMARK    6  A    between atoms: C_25  and  C_26 
ROOT
HETATM    1  N   UNK     0      13.133  15.241  19.190  0.00  0.00    -0.205 NA
HETATM    2  C   UNK     0      14.048  15.574  20.147  0.00  0.00     0.281 C 
HETATM    3  O   UNK     0      14.984  14.760  20.316  0.00  0.00    -0.268 OA
ENDROOT
BRANCH   1   4
HETATM    4  C   UNK     0      12.060  15.965  18.855  0.00  0.00     0.146 C 
HETATM    5  C   UNK     0      10.894  15.774  19.517  0.00  0.00     0.162 C 
HETATM    6  C   UNK     0       9.724  16.428  19.096  0.00  0.00     0.217 C 
HETATM    7  N   UNK     0      10.839  14.932  20.548  0.00  0.00    -0.143 N 
HETATM    8  C   UNK     0       9.713  17.147  17.855  0.00  0.00     0.044 A 
HETATM    9  O   UNK     0       8.675  16.336  19.779  0.00  0.00    -0.285 OA
HETATM   10  C   UNK     0       8.515  17.614  17.258  0.00  0.00     0.003 A 
HETATM   11  C   UNK     0      10.951  17.365  17.186  0.00  0.00     0.044 A 
HETATM   12  C   UNK     0       8.541  18.245  16.002  0.00  0.00     0.000 A 
HETATM   13  C   UNK     0       9.763  18.435  15.333  0.00  0.00     0.000 A 
HETATM   14  C   UNK     0      10.964  18.007  15.925  0.00  0.00     0.003 A 
HETATM   15  C   UNK     0      12.144  16.889  17.803  0.00  0.00     0.215 C 
HETATM   16  O   UNK     0      13.269  17.274  17.401  0.00  0.00    -0.285 OA
ENDBRANCH   1   4
BRANCH   2  17
HETATM   17  C   UNK     0      14.057  16.807  20.977  0.00  0.00     0.219 C 
BRANCH  17  18
HETATM   18  N   UNK     0      15.387  17.276  21.203  0.00  0.00    -0.221 N 
HETATM   19  C   UNK     0      16.013  17.371  22.389  0.00  0.00     0.114 A 
HETATM   20  C   UNK     0      17.276  17.882  22.124  0.00  0.00     0.101 A 
HETATM   21  N   UNK     0      17.334  18.042  20.791  0.00  0.00    -0.133 NA
HETATM   22  N   UNK     0      16.203  17.672  20.276  0.00  0.00    -0.064 NA
BRANCH  20  23
HETATM   23  C   UNK     0      18.342  18.225  23.101  0.00  0.00     0.044 C 
HETATM   24  C   UNK     0      17.913  17.811  24.535  0.00  0.00     0.006 C 
BRANCH  23  25
HETATM   25  C   UNK     0      19.713  17.585  22.715  0.00  0.00     0.006 C 
BRANCH  25  26
HETATM   26  C   UNK     0      20.720  18.600  22.102  0.00  0.00     0.000 C 
HETATM   27  C   UNK     0      20.876  19.888  22.938  0.00  0.00     0.000 C 
ENDBRANCH  25  26
ENDBRANCH  23  25
ENDBRANCH  20  23
ENDBRANCH  17  18
ENDBRANCH   2  17
TORSDOF 6
ENDMDL
MODEL 2
REMARK VINA RESULT:      -8.2      2.033      8.901
REMARK  6 active torsions:
REMARK  status: ('A' for Active; 'I' for Inactive)
REMARK    1  A    between atoms: C_9  and  N_13 
REMARK       I    between atoms: N_13  and  C_14 
REMARK    2  A    between atoms: C_14  and  C_17 
REMARK    3  A    between atoms: C_17  and  N_18 
REMARK    4  A    between atoms: C_20  and  C_23 
REMARK    5  A    between atoms: C_23  and  C_25 
REMARK    6  A    between atoms: C_25  and  C_26 
ROOT
HETATM    1  N   UNK     0      15.315  18.004  22.101  0.00  0.00    -0.205 NA
HETATM    2  C   UNK     0      14.343  17.611  21.226  0.00  0.00     0.281 C 
HETATM    3  O   UNK     0      13.362  18.381  21.115  0.00  0.00    -0.268 OA
ENDROOT
BRANCH   1   4
HETATM    4  C   UNK     0      16.438  17.330  22.370  0.00  0.00     0.146 C 
HETATM    5  C   UNK     0      16.414  16.336  23.291  0.00  0.00     0.162 C 
HETATM    6  C   UNK     0      17.606  15.705  23.683  0.00  0.00     0.217 C 
HETATM    7  N   UNK     0      15.265  15.979  23.862  0.00  0.00    -0.143 N 
HETATM    8  C   UNK     0      18.870  16.233  23.258  0.00  0.00     0.044 A 
HETATM    9  O   UNK     0      17.565  14.711  24.450  0.00  0.00    -0.285 OA
HETATM   10  C   UNK     0      20.101  15.798  23.811  0.00  0.00     0.003 A 
HETATM   11  C   UNK     0      18.879  17.256  22.267  0.00  0.00     0.044 A 
HETATM   12  C   UNK     0      21.311  16.399  23.422  0.00  0.00     0.000 A 
HETATM   13  C   UNK     0      21.313  17.426  22.464  0.00  0.00     0.000 A 
HETATM   14  C   UNK     0      20.105  17.848  21.880  0.00  0.00     0.003 A 
HETATM   15  C   UNK     0      17.632  17.678  21.722  0.00  0.00     0.215 C 
HETATM   16  O   UNK     0      17.594  18.375  20.679  0.00  0.00    -0.285 OA
ENDBRANCH   1   4
BRANCH   2  17
HETATM   17  C   UNK     0      14.350  16.388  20.382  0.00  0.00     0.219 C 
BRANCH  17  18
HETATM   18  N   UNK     0      13.476  16.522  19.260  0.00  0.00    -0.221 N 
HETATM   19  C   UNK     0      12.140  16.375  19.262  0.00  0.00     0.114 A 
HETATM   20  C   UNK     0      11.721  16.586  17.957  0.00  0.00     0.101 A 
HETATM   21  N   UNK     0      12.833  16.867  17.256  0.00  0.00    -0.133 NA
HETATM   22  N   UNK     0      13.853  16.824  18.056  0.00  0.00    -0.064 NA
BRANCH  20  23
HETATM   23  C   UNK     0      10.340  16.488  17.417  0.00  0.00     0.044 C 
HETATM   24  C   UNK     0       9.485  15.530  18.291  0.00  0.00     0.006 C 
BRANCH  23  25
HETATM   25  C   UNK     0       9.664  17.891  17.290  0.00  0.00     0.006 C 
BRANCH  25  26
HETATM   26  C   UNK     0       9.339  18.291  15.823  0.00  0.00     0.000 C 
HETATM   27  C   UNK     0      10.583  18.719  15.015  0.00  0.00     0.000 C 
ENDBRANCH  25  26
ENDBRANCH  23  25
ENDBRANCH  20  23
ENDBRANCH  17  18
ENDBRANCH   2  17
TORSDOF 6
ENDMDL
MODEL 3
REMARK VINA RESULT:      -8.1     23.413     26.280
REMARK  6 active torsions:
REMARK  status: ('A' for Active; 'I' for Inactive)
REMARK    1  A    between atoms: C_9  and  N_13 
REMARK       I    between atoms: N_13  and  C_14 
REMARK    2  A    between atoms: C_14  and  C_17 
REMARK    3  A    between atoms: C_17  and  N_18 
REMARK    4  A    between atoms: C_20  and  C_23 
REMARK    5  A    between atoms: C_23  and  C_25 
REMARK    6  A    between atoms: C_25  and  C_26 
ROOT
HETATM    1  N   UNK     0      21.324  19.749  -4.406  0.00  0.00    -0.205 NA
HETATM    2  C   UNK     0      20.512  20.749  -3.953  0.00  0.00     0.281 C 
HETATM    3  O   UNK     0      20.864  21.300  -2.885  0.00  0.00    -0.268 OA
ENDROOT
BRANCH   1   4
HETATM    4  C   UNK     0      21.130  19.033  -5.518  0.00  0.00     0.146 C 
HETATM    5  C   UNK     0      21.535  19.532  -6.711  0.00  0.00     0.162 C 
HETATM    6  C   UNK     0      21.225  18.857  -7.903  0.00  0.00     0.217 C 
HETATM    7  N   UNK     0      22.194  20.689  -6.765  0.00  0.00    -0.143 N 
HETATM    8  C   UNK     0      20.320  17.744  -7.882  0.00  0.00     0.044 A 
HETATM    9  O   UNK     0      21.698  19.262  -8.993  0.00  0.00    -0.285 OA
HETATM   10  C   UNK     0      19.779  17.182  -9.066  0.00  0.00     0.003 A 
HETATM   11  C   UNK     0      19.929  17.212  -6.621  0.00  0.00     0.044 A 
HETATM   12  C   UNK     0      18.834  16.143  -8.996  0.00  0.00     0.000 A 
HETATM   13  C   UNK     0      18.431  15.639  -7.748  0.00  0.00     0.000 A 
HETATM   14  C   UNK     0      18.981  16.162  -6.565  0.00  0.00     0.003 A 
HETATM   15  C   UNK     0      20.485  17.790  -5.443  0.00  0.00     0.215 C 
HETATM   16  O   UNK     0      20.385  17.207  -4.336  0.00  0.00    -0.285 OA
ENDBRANCH   1   4
BRANCH   2  17
HETATM   17  C   UNK     0      19.281  21.260  -4.611  0.00  0.00     0.219 C 
BRANCH  17  18
HETATM   18  N   UNK     0      18.478  22.017  -3.704  0.00  0.00    -0.221 N 
HETATM   19  C   UNK     0      18.576  23.334  -3.454  0.00  0.00     0.114 A 
HETATM   20  C   UNK     0      17.607  23.624  -2.505  0.00  0.00     0.101 A 
HETATM   21  N   UNK     0      16.974  22.465  -2.260  0.00  0.00    -0.133 NA
HETATM   22  N   UNK     0      17.511  21.534  -2.986  0.00  0.00    -0.064 NA
BRANCH  20  23
HETATM   23  C   UNK     0      17.335  24.932  -1.853  0.00  0.00     0.044 C 
HETATM   24  C   UNK     0      18.208  26.046  -2.493  0.00  0.00     0.006 C 
BRANCH  23  25
HETATM   25  C   UNK     0      15.819  25.303  -1.903  0.00  0.00     0.006 C 
BRANCH  25  26
HETATM   26  C   UNK     0      15.359  26.192  -0.712  0.00  0.00     0.000 C 
HETATM   27  C   UNK     0      14.401  25.468   0.257  0.00  0.00     0.000 C 
ENDBRANCH  25  26
ENDBRANCH  23  25
ENDBRANCH  20  23
ENDBRANCH  17  18
ENDBRANCH   2  17
TORSDOF 6
ENDMDL
MODEL 4
REMARK VINA RESULT:      -8.1      2.404      8.119
REMARK  6 active torsions:
REMARK  status: ('A' for Active; 'I' for Inactive)
REMARK    1  A    between atoms: C_9  and  N_13 
REMARK       I    between atoms: N_13  and  C_14 
REMARK    2  A    between atoms: C_14  and  C_17 
REMARK    3  A    between atoms: C_17  and  N_18 
REMARK    4  A    between atoms: C_20  and  C_23 
REMARK    5  A    between atoms: C_23  and  C_25 
REMARK    6  A    between atoms: C_25  and  C_26 
ROOT
HETATM    1  N   UNK     0      12.689  14.664  21.294  0.00  0.00    -0.205 NA
HETATM    2  C   UNK     0      12.317  14.216  20.058  0.00  0.00     0.281 C 
HETATM    3  O   UNK     0      11.252  13.559  20.011  0.00  0.00    -0.268 OA
ENDROOT
BRANCH   1   4
HETATM    4  C   UNK     0      13.787  15.376  21.565  0.00  0.00     0.146 C 
HETATM    5  C   UNK     0      13.687  16.717  21.729  0.00  0.00     0.162 C 
HETATM    6  C   UNK     0      14.843  17.500  21.885  0.00  0.00     0.217 C 
HETATM    7  N   UNK     0      12.493  17.309  21.702  0.00  0.00    -0.143 N 
HETATM    8  C   UNK     0      16.137  16.916  21.681  0.00  0.00     0.044 A 
HETATM    9  O   UNK     0      14.739  18.723  22.149  0.00  0.00    -0.285 OA
HETATM   10  C   UNK     0      17.316  17.697  21.581  0.00  0.00     0.003 A 
HETATM   11  C   UNK     0      16.228  15.502  21.541  0.00  0.00     0.044 A 
HETATM   12  C   UNK     0      18.553  17.090  21.301  0.00  0.00     0.000 A 
HETATM   13  C   UNK     0      18.634  15.696  21.138  0.00  0.00     0.000 A 
HETATM   14  C   UNK     0      17.480  14.903  21.266  0.00  0.00     0.003 A 
HETATM   15  C   UNK     0      15.032  14.735  21.647  0.00  0.00     0.215 C 
HETATM   16  O   UNK     0      15.082  13.489  21.792  0.00  0.00    -0.285 OA
ENDBRANCH   1   4
BRANCH   2  17
HETATM   17  C   UNK     0      13.030  14.454  18.776  0.00  0.00     0.219 C 
BRANCH  17  18
HETATM   18  N   UNK     0      12.609  15.672  18.161  0.00  0.00    -0.221 N 
HETATM   19  C   UNK     0      11.344  16.042  17.899  0.00  0.00     0.114 A 
HETATM   20  C   UNK     0      11.420  17.288  17.294  0.00  0.00     0.101 A 
HETATM   21  N   UNK     0      12.726  17.596  17.250  0.00  0.00    -0.133 NA
HETATM   22  N   UNK     0      13.403  16.622  17.773  0.00  0.00    -0.064 NA
BRANCH  20  23
HETATM   23  C   UNK     0      10.301  18.110  16.762  0.00  0.00     0.044 C 
HETATM   24  C   UNK     0      10.652  18.648  15.347  0.00  0.00     0.006 C 
BRANCH  23  25
HETATM   25  C   UNK     0       8.954  17.321  16.748  0.00  0.00     0.006 C 
BRANCH  25  26
HETATM   26  C   UNK     0       8.289  17.254  15.344  0.00  0.00     0.000 C 
HETATM   27  C   UNK     0       6.759  17.454  15.380  0.00  0.00     0.000 C 
ENDBRANCH  25  26
ENDBRANCH  23  25
ENDBRANCH  20  23
ENDBRANCH  17  18
ENDBRANCH   2  17
TORSDOF 6
ENDMDL
MODEL 5
REMARK VINA RESULT:      -8.1      2.134      8.555
REMARK  6 active torsions:
REMARK  status: ('A' for Active; 'I' for Inactive)
REMARK    1  A    between atoms: C_9  and  N_13 
REMARK       I    between atoms: N_13  and  C_14 
REMARK    2  A    between atoms: C_14  and  C_17 
REMARK    3  A    between atoms: C_17  and  N_18 
REMARK    4  A    between atoms: C_20  and  C_23 
REMARK    5  A    between atoms: C_23  and  C_25 
REMARK    6  A    between atoms: C_25  and  C_26 
ROOT
HETATM    1  N   UNK     0      15.190  14.774  21.920  0.00  0.00    -0.205 NA
HETATM    2  C   UNK     0      13.827  14.766  21.836  0.00  0.00     0.281 C 
HETATM    3  O   UNK     0      13.298  13.653  21.613  0.00  0.00    -0.268 OA
ENDROOT
BRANCH   1   4
HETATM    4  C   UNK     0      15.950  15.850  22.148  0.00  0.00     0.146 C 
HETATM    5  C   UNK     0      16.410  16.575  21.101  0.00  0.00     0.162 C 
HETATM    6  C   UNK     0      17.313  17.630  21.310  0.00  0.00     0.217 C 
HETATM    7  N   UNK     0      16.040  16.266  19.858  0.00  0.00    -0.143 N 
HETATM    8  C   UNK     0      17.901  17.822  22.604  0.00  0.00     0.044 A 
HETATM    9  O   UNK     0      17.647  18.368  20.351  0.00  0.00    -0.285 OA
HETATM   10  C   UNK     0      18.993  18.701  22.820  0.00  0.00     0.003 A 
HETATM   11  C   UNK     0      17.386  17.075  23.701  0.00  0.00     0.044 A 
HETATM   12  C   UNK     0      19.589  18.800  24.089  0.00  0.00     0.000 A 
HETATM   13  C   UNK     0      19.094  18.041  25.163  0.00  0.00     0.000 A 
HETATM   14  C   UNK     0      17.991  17.189  24.975  0.00  0.00     0.003 A 
HETATM   15  C   UNK     0      16.287  16.199  23.465  0.00  0.00     0.215 C 
HETATM   16  O   UNK     0      15.633  15.721  24.423  0.00  0.00    -0.285 OA
ENDBRANCH   1   4
BRANCH   2  17
HETATM   17  C   UNK     0      12.920  15.931  22.011  0.00  0.00     0.219 C 
BRANCH  17  18
HETATM   18  N   UNK     0      12.509  16.467  20.753  0.00  0.00    -0.221 N 
HETATM   19  C   UNK     0      11.618  15.926  19.903  0.00  0.00     0.114 A 
HETATM   20  C   UNK     0      11.544  16.785  18.816  0.00  0.00     0.101 A 
HETATM   21  N   UNK     0      12.382  17.798  19.092  0.00  0.00    -0.133 NA
HETATM   22  N   UNK     0      12.934  17.582  20.245  0.00  0.00    -0.064 NA
BRANCH  20  23
HETATM   23  C   UNK     0      10.741  16.616  17.577  0.00  0.00     0.044 C 
HETATM   24  C   UNK     0       9.560  15.639  17.828  0.00  0.00     0.006 C 
BRANCH  23  25
HETATM   25  C   UNK     0      10.234  17.985  17.021  0.00  0.00     0.006 C 
BRANCH  25  26
HETATM   26  C   UNK     0      10.828  18.347  15.630  0.00  0.00     0.000 C 
HETATM   27  C   UNK     0       9.753  18.696  14.578  0.00  0.00     0.000 C 
ENDBRANCH  25  26
ENDBRANCH  23  25
ENDBRANCH  20  23
ENDBRANCH  17  18
ENDBRANCH   2  17
TORSDOF 6
ENDMDL
MODEL 6
REMARK VINA RESULT:      -7.9     23.591     26.389
REMARK  6 active torsions:
REMARK  status: ('A' for Active; 'I' for Inactive)
REMARK    1  A    between atoms: C_9  and  N_13 
REMARK       I    between atoms: N_13  and  C_14 
REMARK    2  A    between atoms: C_14  and  C_17 
REMARK    3  A    between atoms: C_17  and  N_18 
REMARK    4  A    between atoms: C_20  and  C_23 
REMARK    5  A    between atoms: C_23  and  C_25 
REMARK    6  A    between atoms: C_25  and  C_26 
ROOT
HETATM    1  N   UNK     0      21.200  20.031  -4.604  0.00  0.00    -0.205 NA
HETATM    2  C   UNK     0      20.585  21.190  -4.223  0.00  0.00     0.281 C 
HETATM    3  O   UNK     0      21.098  21.789  -3.251  0.00  0.00    -0.268 OA
ENDROOT
BRANCH   1   4
HETATM    4  C   UNK     0      20.815  19.240  -5.610  0.00  0.00     0.146 C 
HETATM    5  C   UNK     0      19.888  18.278  -5.384  0.00  0.00     0.162 C 
HETATM    6  C   UNK     0      19.565  17.354  -6.391  0.00  0.00     0.217 C 
HETATM    7  N   UNK     0      19.306  18.176  -4.190  0.00  0.00    -0.143 N 
HETATM    8  C   UNK     0      20.348  17.302  -7.592  0.00  0.00     0.044 A 
HETATM    9  O   UNK     0      18.627  16.538  -6.215  0.00  0.00    -0.285 OA
HETATM   10  C   UNK     0      20.233  16.243  -8.529  0.00  0.00     0.003 A 
HETATM   11  C   UNK     0      21.296  18.337  -7.830  0.00  0.00     0.044 A 
HETATM   12  C   UNK     0      21.075  16.190  -9.653  0.00  0.00     0.000 A 
HETATM   13  C   UNK     0      22.027  17.200  -9.870  0.00  0.00     0.000 A 
HETATM   14  C   UNK     0      22.133  18.275  -8.970  0.00  0.00     0.003 A 
HETATM   15  C   UNK     0      21.395  19.393  -6.879  0.00  0.00     0.215 C 
HETATM   16  O   UNK     0      22.013  20.449  -7.157  0.00  0.00    -0.285 OA
ENDBRANCH   1   4
BRANCH   2  17
HETATM   17  C   UNK     0      19.397  21.816  -4.861  0.00  0.00     0.219 C 
BRANCH  17  18
HETATM   18  N   UNK     0      18.508  22.364  -3.888  0.00  0.00    -0.221 N 
HETATM   19  C   UNK     0      18.485  23.634  -3.448  0.00  0.00     0.114 A 
HETATM   20  C   UNK     0      17.469  23.703  -2.506  0.00  0.00     0.101 A 
HETATM   21  N   UNK     0      16.932  22.472  -2.455  0.00  0.00    -0.133 NA
HETATM   22  N   UNK     0      17.567  21.705  -3.286  0.00  0.00    -0.064 NA
BRANCH  20  23
HETATM   23  C   UNK     0      17.068  24.875  -1.684  0.00  0.00     0.044 C 
HETATM   24  C   UNK     0      17.918  26.117  -2.065  0.00  0.00     0.006 C 
BRANCH  23  25
HETATM   25  C   UNK     0      15.540  25.176  -1.807  0.00  0.00     0.006 C 
BRANCH  25  26
HETATM   26  C   UNK     0      14.815  25.272  -0.435  0.00  0.00     0.000 C 
HETATM   27  C   UNK     0      14.513  26.723  -0.003  0.00  0.00     0.000 C 
ENDBRANCH  25  26
ENDBRANCH  23  25
ENDBRANCH  20  23
ENDBRANCH  17  18
ENDBRANCH   2  17
TORSDOF 6
ENDMDL
MODEL 7
REMARK VINA RESULT:      -7.8     21.547     24.298
REMARK  6 active torsions:
REMARK  status: ('A' for Active; 'I' for Inactive)
REMARK    1  A    between atoms: C_9  and  N_13 
REMARK       I    between atoms: N_13  and  C_14 
REMARK    2  A    between atoms: C_14  and  C_17 
REMARK    3  A    between atoms: C_17  and  N_18 
REMARK    4  A    between atoms: C_20  and  C_23 
REMARK    5  A    between atoms: C_23  and  C_25 
REMARK    6  A    between atoms: C_25  and  C_26 
ROOT
HETATM    1  N   UNK     0      18.338  25.514  -1.748  0.00  0.00    -0.205 NA
HETATM    2  C   UNK     0      18.576  24.491  -2.621  0.00  0.00     0.281 C 
HETATM    3  O   UNK     0      19.774  24.148  -2.750  0.00  0.00    -0.268 OA
ENDROOT
BRANCH   1   4
HETATM    4  C   UNK     0      17.139  26.033  -1.466  0.00  0.00     0.146 C 
HETATM    5  C   UNK     0      16.865  27.310  -1.825  0.00  0.00     0.162 C 
HETATM    6  C   UNK     0      15.663  27.917  -1.424  0.00  0.00     0.217 C 
HETATM    7  N   UNK     0      17.754  28.015  -2.525  0.00  0.00    -0.143 N 
HETATM    8  C   UNK     0      14.809  27.258  -0.478  0.00  0.00     0.044 A 
HETATM    9  O   UNK     0      15.365  29.058  -1.853  0.00  0.00    -0.285 OA
HETATM   10  C   UNK     0      13.720  27.915   0.148  0.00  0.00     0.003 A 
HETATM   11  C   UNK     0      15.093  25.906  -0.135  0.00  0.00     0.044 A 
HETATM   12  C   UNK     0      12.957  27.257   1.128  0.00  0.00     0.000 A 
HETATM   13  C   UNK     0      13.257  25.931   1.483  0.00  0.00     0.000 A 
HETATM   14  C   UNK     0      14.313  25.253   0.849  0.00  0.00     0.003 A 
HETATM   15  C   UNK     0      16.191  25.263  -0.776  0.00  0.00     0.215 C 
HETATM   16  O   UNK     0      16.327  24.017  -0.713  0.00  0.00    -0.285 OA
ENDBRANCH   1   4
BRANCH   2  17
HETATM   17  C   UNK     0      17.562  23.734  -3.400  0.00  0.00     0.219 C 
BRANCH  17  18
HETATM   18  N   UNK     0      17.931  22.363  -3.548  0.00  0.00    -0.221 N 
HETATM   19  C   UNK     0      18.603  21.820  -4.578  0.00  0.00     0.114 A 
HETATM   20  C   UNK     0      18.725  20.467  -4.296  0.00  0.00     0.101 A 
HETATM   21  N   UNK     0      18.135  20.287  -3.102  0.00  0.00    -0.133 NA
HETATM   22  N   UNK     0      17.679  21.427  -2.685  0.00  0.00    -0.064 NA
BRANCH  20  23
HETATM   23  C   UNK     0      19.342  19.413  -5.143  0.00  0.00     0.044 C 
HETATM   24  C   UNK     0      20.414  20.033  -6.081  0.00  0.00     0.006 C 
BRANCH  23  25
HETATM   25  C   UNK     0      19.943  18.255  -4.285  0.00  0.00     0.006 C 
BRANCH  25  26
HETATM   26  C   UNK     0      20.348  17.009  -5.123  0.00  0.00     0.000 C 
HETATM   27  C   UNK     0      19.269  16.579  -6.139  0.00  0.00     0.000 C 
ENDBRANCH  25  26
ENDBRANCH  23  25
ENDBRANCH  20  23
ENDBRANCH  17  18
ENDBRANCH   2  17
TORSDOF 6
ENDMDL
MODEL 8
REMARK VINA RESULT:      -7.7     23.151     26.067
REMARK  6 active torsions:
REMARK  status: ('A' for Active; 'I' for Inactive)
REMARK    1  A    between atoms: C_9  and  N_13 
REMARK       I    between atoms: N_13  and  C_14 
REMARK    2  A    between atoms: C_14  and  C_17 
REMARK    3  A    between atoms: C_17  and  N_18 
REMARK    4  A    between atoms: C_20  and  C_23 
REMARK    5  A    between atoms: C_23  and  C_25 
REMARK    6  A    between atoms: C_25  and  C_26 
ROOT
HETATM    1  N   UNK     0      20.418  20.096  -3.501  0.00  0.00    -0.205 NA
HETATM    2  C   UNK     0      19.425  20.960  -3.141  0.00  0.00     0.281 C 
HETATM    3  O   UNK     0      19.295  21.166  -1.913  0.00  0.00    -0.268 OA
ENDROOT
BRANCH   1   4
HETATM    4  C   UNK     0      20.723  19.737  -4.752  0.00  0.00     0.146 C 
HETATM    5  C   UNK     0      21.578  20.500  -5.474  0.00  0.00     0.162 C 
HETATM    6  C   UNK     0      21.810  20.215  -6.830  0.00  0.00     0.217 C 
HETATM    7  N   UNK     0      22.174  21.552  -4.914  0.00  0.00    -0.143 N 
HETATM    8  C   UNK     0      21.004  19.240  -7.505  0.00  0.00     0.044 A 
HETATM    9  O   UNK     0      22.687  20.854  -7.463  0.00  0.00    -0.285 OA
HETATM   10  C   UNK     0      21.020  19.084  -8.914  0.00  0.00     0.003 A 
HETATM   11  C   UNK     0      20.133  18.425  -6.728  0.00  0.00     0.044 A 
HETATM   12  C   UNK     0      20.155  18.171  -9.541  0.00  0.00     0.000 A 
HETATM   13  C   UNK     0      19.278  17.387  -8.773  0.00  0.00     0.000 A 
HETATM   14  C   UNK     0      19.272  17.504  -7.372  0.00  0.00     0.003 A 
HETATM   15  C   UNK     0      20.132  18.595  -5.313  0.00  0.00     0.215 C 
HETATM   16  O   UNK     0      19.591  17.744  -4.567  0.00  0.00    -0.285 OA
ENDBRANCH   1   4
BRANCH   2  17
HETATM   17  C   UNK     0      18.513  21.695  -4.056  0.00  0.00     0.219 C 
BRANCH  17  18
HETATM   18  N   UNK     0      17.738  22.668  -3.354  0.00  0.00    -0.221 N 
HETATM   19  C   UNK     0      18.157  23.873  -2.930  0.00  0.00     0.114 A 
HETATM   20  C   UNK     0      17.074  24.461  -2.295  0.00  0.00     0.101 A 
HETATM   21  N   UNK     0      16.065  23.579  -2.395  0.00  0.00    -0.133 NA
HETATM   22  N   UNK     0      16.489  22.531  -3.029  0.00  0.00    -0.064 NA
BRANCH  20  23
HETATM   23  C   UNK     0      17.028  25.777  -1.605  0.00  0.00     0.044 C 
HETATM   24  C   UNK     0      18.176  26.693  -2.113  0.00  0.00     0.006 C 
BRANCH  23  25
HETATM   25  C   UNK     0      15.638  26.471  -1.765  0.00  0.00     0.006 C 
BRANCH  25  26
HETATM   26  C   UNK     0      14.850  26.595  -0.430  0.00  0.00     0.000 C 
HETATM   27  C   UNK     0      14.729  25.260   0.335  0.00  0.00     0.000 C 
ENDBRANCH  25  26
ENDBRANCH  23  25
ENDBRANCH  20  23
ENDBRANCH  17  18
ENDBRANCH   2  17
TORSDOF 6
ENDMDL
MODEL 9
REMARK VINA RESULT:      -7.7      2.150      8.452
REMARK  6 active torsions:
REMARK  status: ('A' for Active; 'I' for Inactive)
REMARK    1  A    between atoms: C_9  and  N_13 
REMARK       I    between atoms: N_13  and  C_14 
REMARK    2  A    between atoms: C_14  and  C_17 
REMARK    3  A    between atoms: C_17  and  N_18 
REMARK    4  A    between atoms: C_20  and  C_23 
REMARK    5  A    between atoms: C_23  and  C_25 
REMARK    6  A    between atoms: C_25  and  C_26 
ROOT
HETATM    1  N   UNK     0      14.964  14.481  21.349  0.00  0.00    -0.205 NA
HETATM    2  C   UNK     0      13.933  15.008  20.625  0.00  0.00     0.281 C 
HETATM    3  O   UNK     0      13.213  14.184  20.016  0.00  0.00    -0.268 OA
ENDROOT
BRANCH   1   4
HETATM    4  C   UNK     0      15.848  15.180  22.066  0.00  0.00     0.146 C 
HETATM    5  C   UNK     0      15.657  15.330  23.398  0.00  0.00     0.162 C 
HETATM    6  C   UNK     0      16.501  16.167  24.147  0.00  0.00     0.217 C 
HETATM    7  N   UNK     0      14.639  14.716  24.002  0.00  0.00    -0.143 N 
HETATM    8  C   UNK     0      17.446  17.013  23.478  0.00  0.00     0.044 A 
HETATM    9  O   UNK     0      16.388  16.213  25.397  0.00  0.00    -0.285 OA
HETATM   10  C   UNK     0      18.146  18.048  24.148  0.00  0.00     0.003 A 
HETATM   11  C   UNK     0      17.659  16.822  22.083  0.00  0.00     0.044 A 
HETATM   12  C   UNK     0      19.004  18.905  23.437  0.00  0.00     0.000 A 
HETATM   13  C   UNK     0      19.191  18.730  22.055  0.00  0.00     0.000 A 
HETATM   14  C   UNK     0      18.531  17.688  21.381  0.00  0.00     0.003 A 
HETATM   15  C   UNK     0      16.947  15.776  21.429  0.00  0.00     0.215 C 
HETATM   16  O   UNK     0      17.282  15.396  20.281  0.00  0.00    -0.285 OA
ENDBRANCH   1   4
BRANCH   2  17
HETATM   17  C   UNK     0      13.569  16.445  20.515  0.00  0.00     0.219 C 
BRANCH  17  18
HETATM   18  N   UNK     0      12.929  16.729  19.270  0.00  0.00    -0.221 N 
HETATM   19  C   UNK     0      11.619  16.954  19.075  0.00  0.00     0.114 A 
HETATM   20  C   UNK     0      11.458  17.174  17.715  0.00  0.00     0.101 A 
HETATM   21  N   UNK     0      12.688  17.087  17.181  0.00  0.00    -0.133 NA
HETATM   22  N   UNK     0      13.536  16.825  18.127  0.00  0.00    -0.064 NA
BRANCH  20  23
HETATM   23  C   UNK     0      10.192  17.418  16.976  0.00  0.00     0.044 C 
HETATM   24  C   UNK     0       9.152  18.109  17.901  0.00  0.00     0.006 C 
BRANCH  23  25
HETATM   25  C   UNK     0      10.428  18.248  15.674  0.00  0.00     0.006 C 
BRANCH  25  26
HETATM   26  C   UNK     0       9.122  18.549  14.885  0.00  0.00     0.000 C 
HETATM   27  C   UNK     0       9.347  19.439  13.645  0.00  0.00     0.000 C 
ENDBRANCH  25  26
ENDBRANCH  23  25
ENDBRANCH  20  23
ENDBRANCH  17  18
ENDBRANCH   2  17
TORSDOF 6
ENDMDL
