MODEL 1
REMARK VINA RESULT:     -10.8      0.000      0.000
REMARK  3 active torsions:
REMARK  status: ('A' for Active; 'I' for Inactive)
REMARK    1  A    between atoms: C_9  and  N_13 
REMARK       I    between atoms: N_13  and  C_14 
REMARK    2  A    between atoms: C_14  and  C_17 
REMARK    3  A    between atoms: C_17  and  N_18 
ROOT
HETATM    1  N   UNK     0      12.520  16.312  19.666  0.00  0.00    -0.205 NA
HETATM    2  C   UNK     0      13.228  17.069  20.555  0.00  0.00     0.281 C 
HETATM    3  O   UNK     0      13.005  18.294  20.705  0.00  0.00    -0.268 OA
ENDROOT
BRANCH   1   4
HETATM    4  C   UNK     0      11.505  16.737  18.894  0.00  0.00     0.146 A 
HETATM    5  C   UNK     0      10.232  16.594  19.340  0.00  0.00     0.162 A 
HETATM    6  C   UNK     0       9.138  17.007  18.567  0.00  0.00     0.217 A 
HETATM    7  N   UNK     0       9.990  16.039  20.522  0.00  0.00    -0.143 N 
HETATM    8  C   UNK     0       9.340  17.514  17.249  0.00  0.00     0.044 A 
HETATM    9  O   UNK     0       7.977  16.928  19.037  0.00  0.00    -0.285 OA
HETATM   10  C   UNK     0       8.255  17.828  16.393  0.00  0.00     0.003 A 
HETATM   11  C   UNK     0      10.671  17.705  16.786  0.00  0.00     0.044 A 
HETATM   12  C   UNK     0       8.485  18.332  15.102  0.00  0.00     0.000 A 
HETATM   13  C   UNK     0       9.798  18.541  14.653  0.00  0.00     0.000 A 
HETATM   14  C   UNK     0      10.885  18.234  15.489  0.00  0.00     0.003 A 
HETATM   15  C   UNK     0      11.753  17.352  17.652  0.00  0.00     0.215 A 
HETATM   16  O   UNK     0      12.931  17.623  17.314  0.00  0.00    -0.285 OA
ENDBRANCH   1   4
BRANCH   2  17
HETATM   17  C   UNK     0      14.281  16.440  21.378  0.00  0.00     0.219 C 
BRANCH  17  18
HETATM   18  N   UNK     0      15.523  17.152  21.391  0.00  0.00    -0.221 N 
HETATM   19  C   UNK     0      16.352  17.334  22.434  0.00  0.00     0.118 A 
HETATM   20  C   UNK     0      17.486  17.959  21.929  0.00  0.00     0.123 A 
HETATM   21  N   UNK     0      17.245  18.153  20.622  0.00  0.00    -0.129 NA
HETATM   22  C   UNK     0      18.682  18.298  22.608  0.00  0.00     0.021 A 
HETATM   23  N   UNK     0      16.077  17.671  20.337  0.00  0.00    -0.063 NA
HETATM   24  C   UNK     0      19.928  18.220  21.937  0.00  0.00     0.002 A 
HETATM   25  C   UNK     0      18.668  18.710  23.962  0.00  0.00     0.002 A 
HETATM   26  C   UNK     0      21.126  18.539  22.604  0.00  0.00     0.000 A 
HETATM   27  C   UNK     0      21.095  18.957  23.945  0.00  0.00     0.000 A 
HETATM   28  C   UNK     0      19.865  19.041  24.624  0.00  0.00     0.000 A 
ENDBRANCH  17  18
ENDBRANCH   2  17
TORSDOF 3
ENDMDL
MODEL 2
REMARK VINA RESULT:     -10.4     20.578     23.780
REMARK  3 active torsions:
REMARK  status: ('A' for Active; 'I' for Inactive)
REMARK    1  A    between atoms: C_9  and  N_13 
REMARK       I    between atoms: N_13  and  C_14 
REMARK    2  A    between atoms: C_14  and  C_17 
REMARK    3  A    between atoms: C_17  and  N_18 
ROOT
HETATM    1  N   UNK     0      16.860  25.679  -1.113  0.00  0.00    -0.205 NA
HETATM    2  C   UNK     0      16.833  24.752  -2.115  0.00  0.00     0.281 C 
HETATM    3  O   UNK     0      15.753  24.294  -2.563  0.00  0.00    -0.268 OA
ENDROOT
BRANCH   1   4
HETATM    4  C   UNK     0      15.790  26.240  -0.523  0.00  0.00     0.146 A 
HETATM    5  C   UNK     0      15.456  27.516  -0.839  0.00  0.00     0.162 A 
HETATM    6  C   UNK     0      14.359  28.151  -0.240  0.00  0.00     0.217 A 
HETATM    7  N   UNK     0      16.174  28.204  -1.719  0.00  0.00    -0.143 N 
HETATM    8  C   UNK     0      13.618  27.492   0.785  0.00  0.00     0.044 A 
HETATM    9  O   UNK     0      14.030  29.306  -0.606  0.00  0.00    -0.285 OA
HETATM   10  C   UNK     0      12.582  28.145   1.498  0.00  0.00     0.003 A 
HETATM   11  C   UNK     0      13.936  26.141   1.098  0.00  0.00     0.044 A 
HETATM   12  C   UNK     0      11.865  27.468   2.498  0.00  0.00     0.000 A 
HETATM   13  C   UNK     0      12.163  26.128   2.792  0.00  0.00     0.000 A 
HETATM   14  C   UNK     0      13.188  25.466   2.095  0.00  0.00     0.003 A 
HETATM   15  C   UNK     0      15.006  25.510   0.391  0.00  0.00     0.215 A 
HETATM   16  O   UNK     0      15.225  24.286   0.563  0.00  0.00    -0.285 OA
ENDBRANCH   1   4
BRANCH   2  17
HETATM   17  C   UNK     0      18.098  24.272  -2.705  0.00  0.00     0.219 C 
BRANCH  17  18
HETATM   18  N   UNK     0      18.082  22.894  -3.095  0.00  0.00    -0.221 N 
HETATM   19  C   UNK     0      18.724  22.330  -4.134  0.00  0.00     0.118 A 
HETATM   20  C   UNK     0      18.521  20.960  -4.021  0.00  0.00     0.123 A 
HETATM   21  N   UNK     0      17.732  20.794  -2.947  0.00  0.00    -0.129 NA
HETATM   22  C   UNK     0      19.053  19.922  -4.824  0.00  0.00     0.021 A 
HETATM   23  N   UNK     0      17.486  21.955  -2.427  0.00  0.00    -0.063 NA
HETATM   24  C   UNK     0      19.396  18.676  -4.242  0.00  0.00     0.002 A 
HETATM   25  C   UNK     0      19.263  20.099  -6.213  0.00  0.00     0.002 A 
HETATM   26  C   UNK     0      19.939  17.640  -5.026  0.00  0.00     0.000 A 
HETATM   27  C   UNK     0      20.132  17.828  -6.405  0.00  0.00     0.000 A 
HETATM   28  C   UNK     0      19.794  19.059  -6.998  0.00  0.00     0.000 A 
ENDBRANCH  17  18
ENDBRANCH   2  17
TORSDOF 3
ENDMDL
MODEL 3
REMARK VINA RESULT:     -10.3      0.976      1.103
REMARK  3 active torsions:
REMARK  status: ('A' for Active; 'I' for Inactive)
REMARK    1  A    between atoms: C_9  and  N_13 
REMARK       I    between atoms: N_13  and  C_14 
REMARK    2  A    between atoms: C_14  and  C_17 
REMARK    3  A    between atoms: C_17  and  N_18 
ROOT
HETATM    1  N   UNK     0      11.729  16.234  18.907  0.00  0.00    -0.205 NA
HETATM    2  C   UNK     0      12.578  16.878  19.762  0.00  0.00     0.281 C 
HETATM    3  O   UNK     0      12.575  18.127  19.880  0.00  0.00    -0.268 OA
ENDROOT
BRANCH   1   4
HETATM    4  C   UNK     0      10.787  16.811  18.142  0.00  0.00     0.146 A 
HETATM    5  C   UNK     0       9.499  16.808  18.567  0.00  0.00     0.162 A 
HETATM    6  C   UNK     0       8.477  17.382  17.798  0.00  0.00     0.217 A 
HETATM    7  N   UNK     0       9.171  16.242  19.722  0.00  0.00    -0.143 N 
HETATM    8  C   UNK     0       8.761  17.912  16.504  0.00  0.00     0.044 A 
HETATM    9  O   UNK     0       7.306  17.429  18.250  0.00  0.00    -0.285 OA
HETATM   10  C   UNK     0       7.736  18.389  15.649  0.00  0.00     0.003 A 
HETATM   11  C   UNK     0      10.113  17.954  16.064  0.00  0.00     0.044 A 
HETATM   12  C   UNK     0       8.048  18.911  14.382  0.00  0.00     0.000 A 
HETATM   13  C   UNK     0       9.384  18.973  13.957  0.00  0.00     0.000 A 
HETATM   14  C   UNK     0      10.412  18.503  14.793  0.00  0.00     0.003 A 
HETATM   15  C   UNK     0      11.129  17.438  16.928  0.00  0.00     0.215 A 
HETATM   16  O   UNK     0      12.337  17.575  16.615  0.00  0.00    -0.285 OA
ENDBRANCH   1   4
BRANCH   2  17
HETATM   17  C   UNK     0      13.523  16.096  20.583  0.00  0.00     0.219 C 
BRANCH  17  18
HETATM   18  N   UNK     0      14.858  16.615  20.602  0.00  0.00    -0.221 N 
HETATM   19  C   UNK     0      15.574  16.992  21.675  0.00  0.00     0.118 A 
HETATM   20  C   UNK     0      16.850  17.288  21.210  0.00  0.00     0.123 A 
HETATM   21  N   UNK     0      16.803  17.113  19.879  0.00  0.00    -0.129 NA
HETATM   22  C   UNK     0      17.996  17.658  21.955  0.00  0.00     0.021 A 
HETATM   23  N   UNK     0      15.613  16.721  19.552  0.00  0.00    -0.063 NA
HETATM   24  C   UNK     0      19.282  17.225  21.545  0.00  0.00     0.002 A 
HETATM   25  C   UNK     0      17.891  18.453  23.121  0.00  0.00     0.002 A 
HETATM   26  C   UNK     0      20.429  17.573  22.284  0.00  0.00     0.000 A 
HETATM   27  C   UNK     0      20.308  18.372  23.435  0.00  0.00     0.000 A 
HETATM   28  C   UNK     0      19.039  18.811  23.853  0.00  0.00     0.000 A 
ENDBRANCH  17  18
ENDBRANCH   2  17
TORSDOF 3
ENDMDL
MODEL 4
REMARK VINA RESULT:      -9.7      2.023      9.347
REMARK  3 active torsions:
REMARK  status: ('A' for Active; 'I' for Inactive)
REMARK    1  A    between atoms: C_9  and  N_13 
REMARK       I    between atoms: N_13  and  C_14 
REMARK    2  A    between atoms: C_14  and  C_17 
REMARK    3  A    between atoms: C_17  and  N_18 
ROOT
HETATM    1  N   UNK     0      14.316  16.279  21.844  0.00  0.00    -0.205 NA
HETATM    2  C   UNK     0      13.352  17.222  21.633  0.00  0.00     0.281 C 
HETATM    3  O   UNK     0      13.547  18.435  21.887  0.00  0.00    -0.268 OA
ENDROOT
BRANCH   1   4
HETATM    4  C   UNK     0      15.564  16.506  22.290  0.00  0.00     0.146 A 
HETATM    5  C   UNK     0      15.934  16.007  23.496  0.00  0.00     0.162 A 
HETATM    6  C   UNK     0      17.218  16.230  24.013  0.00  0.00     0.217 A 
HETATM    7  N   UNK     0      15.078  15.305  24.228  0.00  0.00    -0.143 N 
HETATM    8  C   UNK     0      18.141  17.063  23.313  0.00  0.00     0.044 A 
HETATM    9  O   UNK     0      17.556  15.695  25.097  0.00  0.00    -0.285 OA
HETATM   10  C   UNK     0      19.401  17.409  23.861  0.00  0.00     0.003 A 
HETATM   11  C   UNK     0      17.777  17.560  22.031  0.00  0.00     0.044 A 
HETATM   12  C   UNK     0      20.292  18.227  23.145  0.00  0.00     0.000 A 
HETATM   13  C   UNK     0      19.942  18.699  21.870  0.00  0.00     0.000 A 
HETATM   14  C   UNK     0      18.696  18.365  21.313  0.00  0.00     0.003 A 
HETATM   15  C   UNK     0      16.488  17.226  21.510  0.00  0.00     0.215 A 
HETATM   16  O   UNK     0      16.193  17.551  20.333  0.00  0.00    -0.285 OA
ENDBRANCH   1   4
BRANCH   2  17
HETATM   17  C   UNK     0      12.042  16.821  21.081  0.00  0.00     0.219 C 
BRANCH  17  18
HETATM   18  N   UNK     0      11.924  16.989  19.663  0.00  0.00    -0.221 N 
HETATM   19  C   UNK     0      10.795  17.141  18.949  0.00  0.00     0.118 A 
HETATM   20  C   UNK     0      11.192  17.409  17.644  0.00  0.00     0.123 A 
HETATM   21  N   UNK     0      12.534  17.355  17.651  0.00  0.00    -0.129 NA
HETATM   22  C   UNK     0      10.384  17.722  16.524  0.00  0.00     0.021 A 
HETATM   23  N   UNK     0      12.934  17.099  18.856  0.00  0.00    -0.063 NA
HETATM   24  C   UNK     0      10.844  18.639  15.547  0.00  0.00     0.002 A 
HETATM   25  C   UNK     0       9.104  17.140  16.354  0.00  0.00     0.002 A 
HETATM   26  C   UNK     0      10.045  18.970  14.436  0.00  0.00     0.000 A 
HETATM   27  C   UNK     0       8.781  18.376  14.277  0.00  0.00     0.000 A 
HETATM   28  C   UNK     0       8.311  17.462  15.237  0.00  0.00     0.000 A 
ENDBRANCH  17  18
ENDBRANCH   2  17
TORSDOF 3
ENDMDL
MODEL 5
REMARK VINA RESULT:      -9.6      1.040      2.225
REMARK  3 active torsions:
REMARK  status: ('A' for Active; 'I' for Inactive)
REMARK    1  A    between atoms: C_9  and  N_13 
REMARK       I    between atoms: N_13  and  C_14 
REMARK    2  A    between atoms: C_14  and  C_17 
REMARK    3  A    between atoms: C_17  and  N_18 
ROOT
HETATM    1  N   UNK     0      12.591  16.389  20.033  0.00  0.00    -0.205 NA
HETATM    2  C   UNK     0      13.257  17.260  20.846  0.00  0.00     0.281 C 
HETATM    3  O   UNK     0      13.047  18.497  20.804  0.00  0.00    -0.268 OA
ENDROOT
BRANCH   1   4
HETATM    4  C   UNK     0      11.633  16.707  19.145  0.00  0.00     0.146 A 
HETATM    5  C   UNK     0      11.994  17.107  17.900  0.00  0.00     0.162 A 
HETATM    6  C   UNK     0      11.033  17.465  16.944  0.00  0.00     0.217 A 
HETATM    7  N   UNK     0      13.275  17.185  17.561  0.00  0.00    -0.143 N 
HETATM    8  C   UNK     0       9.650  17.496  17.290  0.00  0.00     0.044 A 
HETATM    9  O   UNK     0      11.394  17.760  15.777  0.00  0.00    -0.285 OA
HETATM   10  C   UNK     0       8.663  17.967  16.389  0.00  0.00     0.003 A 
HETATM   11  C   UNK     0       9.258  17.042  18.580  0.00  0.00     0.044 A 
HETATM   12  C   UNK     0       7.307  17.980  16.757  0.00  0.00     0.000 A 
HETATM   13  C   UNK     0       6.917  17.512  18.021  0.00  0.00     0.000 A 
HETATM   14  C   UNK     0       7.883  17.042  18.926  0.00  0.00     0.003 A 
HETATM   15  C   UNK     0      10.271  16.601  19.486  0.00  0.00     0.215 A 
HETATM   16  O   UNK     0       9.941  16.085  20.582  0.00  0.00    -0.285 OA
ENDBRANCH   1   4
BRANCH   2  17
HETATM   17  C   UNK     0      14.246  16.748  21.816  0.00  0.00     0.219 C 
BRANCH  17  18
HETATM   18  N   UNK     0      15.547  17.335  21.697  0.00  0.00    -0.221 N 
HETATM   19  C   UNK     0      16.442  17.547  22.678  0.00  0.00     0.118 A 
HETATM   20  C   UNK     0      17.600  18.003  22.059  0.00  0.00     0.123 A 
HETATM   21  N   UNK     0      17.309  18.079  20.750  0.00  0.00    -0.129 NA
HETATM   22  C   UNK     0      18.856  18.295  22.645  0.00  0.00     0.021 A 
HETATM   23  N   UNK     0      16.089  17.684  20.570  0.00  0.00    -0.063 NA
HETATM   24  C   UNK     0      20.053  18.028  21.935  0.00  0.00     0.002 A 
HETATM   25  C   UNK     0      18.951  18.849  23.944  0.00  0.00     0.002 A 
HETATM   26  C   UNK     0      21.309  18.300  22.511  0.00  0.00     0.000 A 
HETATM   27  C   UNK     0      21.386  18.859  23.798  0.00  0.00     0.000 A 
HETATM   28  C   UNK     0      20.206  19.133  24.514  0.00  0.00     0.000 A 
ENDBRANCH  17  18
ENDBRANCH   2  17
TORSDOF 3
ENDMDL
MODEL 6
REMARK VINA RESULT:      -9.5      2.547     10.050
REMARK  3 active torsions:
REMARK  status: ('A' for Active; 'I' for Inactive)
REMARK    1  A    between atoms: C_9  and  N_13 
REMARK       I    between atoms: N_13  and  C_14 
REMARK    2  A    between atoms: C_14  and  C_17 
REMARK    3  A    between atoms: C_17  and  N_18 
ROOT
HETATM    1  N   UNK     0      17.060  17.081  22.512  0.00  0.00    -0.205 NA
HETATM    2  C   UNK     0      16.141  17.412  21.558  0.00  0.00     0.281 C 
HETATM    3  O   UNK     0      16.475  17.962  20.481  0.00  0.00    -0.268 OA
ENDROOT
BRANCH   1   4
HETATM    4  C   UNK     0      18.391  17.248  22.423  0.00  0.00     0.146 A 
HETATM    5  C   UNK     0      19.168  16.186  22.092  0.00  0.00     0.162 A 
HETATM    6  C   UNK     0      20.562  16.304  22.001  0.00  0.00     0.217 A 
HETATM    7  N   UNK     0      18.623  14.998  21.860  0.00  0.00    -0.143 N 
HETATM    8  C   UNK     0      21.204  17.532  22.339  0.00  0.00     0.044 A 
HETATM    9  O   UNK     0      21.248  15.323  21.621  0.00  0.00    -0.285 OA
HETATM   10  C   UNK     0      22.615  17.654  22.376  0.00  0.00     0.003 A 
HETATM   11  C   UNK     0      20.397  18.662  22.650  0.00  0.00     0.044 A 
HETATM   12  C   UNK     0      23.218  18.879  22.707  0.00  0.00     0.000 A 
HETATM   13  C   UNK     0      22.423  20.000  22.993  0.00  0.00     0.000 A 
HETATM   14  C   UNK     0      21.022  19.895  22.961  0.00  0.00     0.003 A 
HETATM   15  C   UNK     0      18.976  18.510  22.639  0.00  0.00     0.215 A 
HETATM   16  O   UNK     0      18.244  19.519  22.791  0.00  0.00    -0.285 OA
ENDBRANCH   1   4
BRANCH   2  17
HETATM   17  C   UNK     0      14.713  17.111  21.780  0.00  0.00     0.219 C 
BRANCH  17  18
HETATM   18  N   UNK     0      13.959  16.907  20.580  0.00  0.00    -0.221 N 
HETATM   19  C   UNK     0      12.748  17.406  20.279  0.00  0.00     0.118 A 
HETATM   20  C   UNK     0      12.495  17.051  18.959  0.00  0.00     0.123 A 
HETATM   21  N   UNK     0      13.553  16.321  18.568  0.00  0.00    -0.129 NA
HETATM   22  C   UNK     0      11.389  17.401  18.148  0.00  0.00     0.021 A 
HETATM   23  N   UNK     0      14.396  16.249  19.549  0.00  0.00    -0.063 NA
HETATM   24  C   UNK     0      11.566  17.633  16.761  0.00  0.00     0.002 A 
HETATM   25  C   UNK     0      10.090  17.538  18.695  0.00  0.00     0.002 A 
HETATM   26  C   UNK     0      10.477  17.996  15.946  0.00  0.00     0.000 A 
HETATM   27  C   UNK     0       9.192  18.117  16.502  0.00  0.00     0.000 A 
HETATM   28  C   UNK     0       8.999  17.889  17.877  0.00  0.00     0.000 A 
ENDBRANCH  17  18
ENDBRANCH   2  17
TORSDOF 3
ENDMDL
MODEL 7
REMARK VINA RESULT:      -9.2     20.793     24.302
REMARK  3 active torsions:
REMARK  status: ('A' for Active; 'I' for Inactive)
REMARK    1  A    between atoms: C_9  and  N_13 
REMARK       I    between atoms: N_13  and  C_14 
REMARK    2  A    between atoms: C_14  and  C_17 
REMARK    3  A    between atoms: C_17  and  N_18 
ROOT
HETATM    1  N   UNK     0      18.382  22.854  -3.876  0.00  0.00    -0.205 NA
HETATM    2  C   UNK     0      17.610  23.161  -2.792  0.00  0.00     0.281 C 
HETATM    3  O   UNK     0      17.656  22.487  -1.735  0.00  0.00    -0.268 OA
ENDROOT
BRANCH   1   4
HETATM    4  C   UNK     0      19.287  21.863  -3.949  0.00  0.00     0.146 A 
HETATM    5  C   UNK     0      20.598  22.151  -3.756  0.00  0.00     0.162 A 
HETATM    6  C   UNK     0      21.582  21.156  -3.837  0.00  0.00     0.217 A 
HETATM    7  N   UNK     0      20.985  23.395  -3.499  0.00  0.00    -0.143 N 
HETATM    8  C   UNK     0      21.231  19.825  -4.211  0.00  0.00     0.044 A 
HETATM    9  O   UNK     0      22.779  21.438  -3.581  0.00  0.00    -0.285 OA
HETATM   10  C   UNK     0      22.210  18.822  -4.422  0.00  0.00     0.003 A 
HETATM   11  C   UNK     0      19.855  19.503  -4.379  0.00  0.00     0.044 A 
HETATM   12  C   UNK     0      21.832  17.518  -4.783  0.00  0.00     0.000 A 
HETATM   13  C   UNK     0      20.474  17.194  -4.928  0.00  0.00     0.000 A 
HETATM   14  C   UNK     0      19.490  18.177  -4.723  0.00  0.00     0.003 A 
HETATM   15  C   UNK     0      18.884  20.536  -4.194  0.00  0.00     0.215 A 
HETATM   16  O   UNK     0      17.662  20.249  -4.217  0.00  0.00    -0.285 OA
ENDBRANCH   1   4
BRANCH   2  17
HETATM   17  C   UNK     0      16.700  24.323  -2.846  0.00  0.00     0.219 C 
BRANCH  17  18
HETATM   18  N   UNK     0      16.124  24.680  -1.585  0.00  0.00    -0.221 N 
HETATM   19  C   UNK     0      15.338  25.736  -1.313  0.00  0.00     0.118 A 
HETATM   20  C   UNK     0      14.915  25.582   0.001  0.00  0.00     0.123 A 
HETATM   21  N   UNK     0      15.512  24.465   0.449  0.00  0.00    -0.129 NA
HETATM   22  C   UNK     0      14.010  26.386   0.737  0.00  0.00     0.021 A 
HETATM   23  N   UNK     0      16.223  23.960  -0.509  0.00  0.00    -0.063 NA
HETATM   24  C   UNK     0      13.135  25.793   1.681  0.00  0.00     0.002 A 
HETATM   25  C   UNK     0      13.949  27.787   0.546  0.00  0.00     0.002 A 
HETATM   26  C   UNK     0      12.220  26.579   2.408  0.00  0.00     0.000 A 
HETATM   27  C   UNK     0      12.179  27.970   2.214  0.00  0.00     0.000 A 
HETATM   28  C   UNK     0      13.043  28.574   1.282  0.00  0.00     0.000 A 
ENDBRANCH  17  18
ENDBRANCH   2  17
TORSDOF 3
ENDMDL
MODEL 8
REMARK VINA RESULT:      -9.1     23.538     26.581
REMARK  3 active torsions:
REMARK  status: ('A' for Active; 'I' for Inactive)
REMARK    1  A    between atoms: C_9  and  N_13 
REMARK       I    between atoms: N_13  and  C_14 
REMARK    2  A    between atoms: C_14  and  C_17 
REMARK    3  A    between atoms: C_17  and  N_18 
ROOT
HETATM    1  N   UNK     0      19.801  21.954  -3.278  0.00  0.00    -0.205 NA
HETATM    2  C   UNK     0      19.831  21.299  -4.476  0.00  0.00     0.281 C 
HETATM    3  O   UNK     0      19.193  21.715  -5.473  0.00  0.00    -0.268 OA
ENDROOT
BRANCH   1   4
HETATM    4  C   UNK     0      19.154  23.103  -3.019  0.00  0.00     0.146 A 
HETATM    5  C   UNK     0      19.814  24.279  -3.167  0.00  0.00     0.162 A 
HETATM    6  C   UNK     0      19.189  25.504  -2.894  0.00  0.00     0.217 A 
HETATM    7  N   UNK     0      21.081  24.297  -3.560  0.00  0.00    -0.143 N 
HETATM    8  C   UNK     0      17.862  25.534  -2.371  0.00  0.00     0.044 A 
HETATM    9  O   UNK     0      19.801  26.579  -3.110  0.00  0.00    -0.285 OA
HETATM   10  C   UNK     0      17.242  26.744  -1.969  0.00  0.00     0.003 A 
HETATM   11  C   UNK     0      17.148  24.310  -2.248  0.00  0.00     0.044 A 
HETATM   12  C   UNK     0      15.931  26.742  -1.463  0.00  0.00     0.000 A 
HETATM   13  C   UNK     0      15.219  25.537  -1.362  0.00  0.00     0.000 A 
HETATM   14  C   UNK     0      15.819  24.329  -1.755  0.00  0.00     0.003 A 
HETATM   15  C   UNK     0      17.802  23.096  -2.627  0.00  0.00     0.215 A 
HETATM   16  O   UNK     0      17.153  22.021  -2.642  0.00  0.00    -0.285 OA
ENDBRANCH   1   4
BRANCH   2  17
HETATM   17  C   UNK     0      20.639  20.072  -4.620  0.00  0.00     0.219 C 
BRANCH  17  18
HETATM   18  N   UNK     0      19.988  19.017  -5.338  0.00  0.00    -0.221 N 
HETATM   19  C   UNK     0      20.113  18.716  -6.642  0.00  0.00     0.118 A 
HETATM   20  C   UNK     0      19.404  17.537  -6.841  0.00  0.00     0.123 A 
HETATM   21  N   UNK     0      18.861  17.232  -5.650  0.00  0.00    -0.129 NA
HETATM   22  C   UNK     0      19.290  16.765  -8.023  0.00  0.00     0.021 A 
HETATM   23  N   UNK     0      19.220  18.128  -4.786  0.00  0.00    -0.063 NA
HETATM   24  C   UNK     0      19.217  15.352  -7.947  0.00  0.00     0.002 A 
HETATM   25  C   UNK     0      19.255  17.376  -9.299  0.00  0.00     0.002 A 
HETATM   26  C   UNK     0      19.117  14.572  -9.115  0.00  0.00     0.000 A 
HETATM   27  C   UNK     0      19.074  15.194 -10.374  0.00  0.00     0.000 A 
HETATM   28  C   UNK     0      19.143  16.596 -10.466  0.00  0.00     0.000 A 
ENDBRANCH  17  18
ENDBRANCH   2  17
TORSDOF 3
ENDMDL
MODEL 9
REMARK VINA RESULT:      -9.1     24.180     27.096
REMARK  3 active torsions:
REMARK  status: ('A' for Active; 'I' for Inactive)
REMARK    1  A    between atoms: C_9  and  N_13 
REMARK       I    between atoms: N_13  and  C_14 
REMARK    2  A    between atoms: C_14  and  C_17 
REMARK    3  A    between atoms: C_17  and  N_18 
ROOT
HETATM    1  N   UNK     0      20.099  21.027  -5.391  0.00  0.00    -0.205 NA
HETATM    2  C   UNK     0      21.014  20.075  -5.041  0.00  0.00     0.281 C 
HETATM    3  O   UNK     0      21.537  20.049  -3.900  0.00  0.00    -0.268 OA
ENDROOT
BRANCH   1   4
HETATM    4  C   UNK     0      19.619  21.996  -4.594  0.00  0.00     0.146 A 
HETATM    5  C   UNK     0      18.538  21.736  -3.817  0.00  0.00     0.162 A 
HETATM    6  C   UNK     0      17.988  22.718  -2.980  0.00  0.00     0.217 A 
HETATM    7  N   UNK     0      17.959  20.541  -3.844  0.00  0.00    -0.143 N 
HETATM    8  C   UNK     0      18.509  24.045  -2.990  0.00  0.00     0.044 A 
HETATM    9  O   UNK     0      17.033  22.426  -2.219  0.00  0.00    -0.285 OA
HETATM   10  C   UNK     0      17.906  25.093  -2.251  0.00  0.00     0.003 A 
HETATM   11  C   UNK     0      19.666  24.320  -3.772  0.00  0.00     0.044 A 
HETATM   12  C   UNK     0      18.446  26.390  -2.277  0.00  0.00     0.000 A 
HETATM   13  C   UNK     0      19.600  26.656  -3.029  0.00  0.00     0.000 A 
HETATM   14  C   UNK     0      20.210  25.628  -3.769  0.00  0.00     0.003 A 
HETATM   15  C   UNK     0      20.241  23.258  -4.537  0.00  0.00     0.215 A 
HETATM   16  O   UNK     0      21.329  23.445  -5.136  0.00  0.00    -0.285 OA
ENDBRANCH   1   4
BRANCH   2  17
HETATM   17  C   UNK     0      21.400  19.036  -6.016  0.00  0.00     0.219 C 
BRANCH  17  18
HETATM   18  N   UNK     0      20.366  18.091  -6.312  0.00  0.00    -0.221 N 
HETATM   19  C   UNK     0      20.223  17.357  -7.429  0.00  0.00     0.118 A 
HETATM   20  C   UNK     0      19.161  16.491  -7.196  0.00  0.00     0.123 A 
HETATM   21  N   UNK     0      18.706  16.794  -5.968  0.00  0.00    -0.129 NA
HETATM   22  C   UNK     0      18.662  15.463  -8.032  0.00  0.00     0.021 A 
HETATM   23  N   UNK     0      19.434  17.745  -5.477  0.00  0.00    -0.063 NA
HETATM   24  C   UNK     0      18.159  14.265  -7.466  0.00  0.00     0.002 A 
HETATM   25  C   UNK     0      18.658  15.598  -9.441  0.00  0.00     0.002 A 
HETATM   26  C   UNK     0      17.673  13.229  -8.285  0.00  0.00     0.000 A 
HETATM   27  C   UNK     0      17.667  13.382  -9.683  0.00  0.00     0.000 A 
HETATM   28  C   UNK     0      18.160  14.566 -10.260  0.00  0.00     0.000 A 
ENDBRANCH  17  18
ENDBRANCH   2  17
TORSDOF 3
ENDMDL
