MODEL 1
REMARK VINA RESULT:      -9.2      0.000      0.000
REMARK  4 active torsions:
REMARK  status: ('A' for Active; 'I' for Inactive)
REMARK    1  A    between atoms: C_9  and  N_13 
REMARK       I    between atoms: N_13  and  C_14 
REMARK    2  A    between atoms: C_14  and  C_17 
REMARK    3  A    between atoms: C_17  and  N_18 
REMARK    4  A    between atoms: C_20  and  C_23 
ROOT
HETATM    1  C   UNK     0      10.797  18.220  15.367  0.00  0.00     0.003 A 
HETATM    2  C   UNK     0       9.716  18.549  14.533  0.00  0.00     0.000 A 
HETATM    3  C   UNK     0       8.400  18.376  14.990  0.00  0.00     0.000 A 
HETATM    4  C   UNK     0       8.164  17.873  16.282  0.00  0.00     0.003 A 
HETATM    5  C   UNK     0       9.241  17.523  17.131  0.00  0.00     0.044 A 
HETATM    6  C   UNK     0      10.575  17.704  16.666  0.00  0.00     0.044 A 
HETATM    7  C   UNK     0       9.042  16.984  18.441  0.00  0.00     0.217 C 
HETATM    8  C   UNK     0      10.134  16.521  19.191  0.00  0.00     0.162 C 
HETATM    9  C   UNK     0      11.401  16.662  18.734  0.00  0.00     0.146 C 
HETATM   10  C   UNK     0      11.648  17.349  17.535  0.00  0.00     0.215 C 
HETATM   11  O   UNK     0      12.821  17.693  17.249  0.00  0.00    -0.285 OA
HETATM   12  O   UNK     0       7.884  16.920  18.920  0.00  0.00    -0.285 OA
HETATM   13  N   UNK     0       9.905  15.921  20.354  0.00  0.00    -0.143 N 
ENDROOT
BRANCH   9  14
HETATM   14  N   UNK     0      12.425  16.156  19.438  0.00  0.00    -0.205 NA
HETATM   15  C   UNK     0      13.158  16.830  20.377  0.00  0.00     0.281 C 
HETATM   16  O   UNK     0      12.981  18.054  20.594  0.00  0.00    -0.268 OA
BRANCH  15  17
HETATM   17  C   UNK     0      14.180  16.105  21.158  0.00  0.00     0.219 C 
BRANCH  17  18
HETATM   18  N   UNK     0      15.418  16.817  21.172  0.00  0.00    -0.221 N 
HETATM   19  C   UNK     0      16.107  17.201  22.256  0.00  0.00     0.114 A 
HETATM   20  C   UNK     0      17.216  17.883  21.783  0.00  0.00     0.101 A 
HETATM   21  N   UNK     0      17.137  17.858  20.445  0.00  0.00    -0.133 NA
HETATM   22  N   UNK     0      16.060  17.214  20.114  0.00  0.00    -0.064 NA
BRANCH  20  23
HETATM   23  C   UNK     0      18.300  18.487  22.577  0.00  0.00     0.044 A 
HETATM   24  C   UNK     0      19.441  17.575  23.064  0.00  0.00     0.006 A 
HETATM   25  C   UNK     0      19.692  18.574  21.930  0.00  0.00     0.006 A 
ENDBRANCH  20  23
ENDBRANCH  17  18
ENDBRANCH  15  17
ENDBRANCH   9  14
TORSDOF 4
ENDMDL
MODEL 2
REMARK VINA RESULT:      -9.0     20.231     22.761
REMARK  4 active torsions:
REMARK  status: ('A' for Active; 'I' for Inactive)
REMARK    1  A    between atoms: C_9  and  N_13 
REMARK       I    between atoms: N_13  and  C_14 
REMARK    2  A    between atoms: C_14  and  C_17 
REMARK    3  A    between atoms: C_17  and  N_18 
REMARK    4  A    between atoms: C_20  and  C_23 
ROOT
HETATM    1  C   UNK     0      13.251  25.411   1.700  0.00  0.00     0.003 A 
HETATM    2  C   UNK     0      12.492  25.944   2.754  0.00  0.00     0.000 A 
HETATM    3  C   UNK     0      12.273  27.328   2.831  0.00  0.00     0.000 A 
HETATM    4  C   UNK     0      12.813  28.181   1.853  0.00  0.00     0.003 A 
HETATM    5  C   UNK     0      13.593  27.664   0.791  0.00  0.00     0.044 A 
HETATM    6  C   UNK     0      13.809  26.259   0.713  0.00  0.00     0.044 A 
HETATM    7  C   UNK     0      14.181  28.502  -0.209  0.00  0.00     0.217 C 
HETATM    8  C   UNK     0      15.059  27.961  -1.160  0.00  0.00     0.162 C 
HETATM    9  C   UNK     0      15.292  26.629  -1.213  0.00  0.00     0.146 C 
HETATM   10  C   UNK     0      14.593  25.755  -0.365  0.00  0.00     0.215 C 
HETATM   11  O   UNK     0      14.625  24.519  -0.589  0.00  0.00    -0.285 OA
HETATM   12  O   UNK     0      13.913  29.728  -0.232  0.00  0.00    -0.285 OA
HETATM   13  N   UNK     0      15.678  28.783  -2.001  0.00  0.00    -0.143 N 
ENDROOT
BRANCH   9  14
HETATM   14  N   UNK     0      16.184  26.141  -2.089  0.00  0.00    -0.205 NA
HETATM   15  C   UNK     0      17.518  25.954  -1.848  0.00  0.00     0.281 C 
HETATM   16  O   UNK     0      18.051  26.328  -0.774  0.00  0.00    -0.268 OA
BRANCH  15  17
HETATM   17  C   UNK     0      18.356  25.295  -2.870  0.00  0.00     0.219 C 
BRANCH  17  18
HETATM   18  N   UNK     0      18.181  23.878  -2.843  0.00  0.00    -0.221 N 
HETATM   19  C   UNK     0      19.095  22.954  -3.175  0.00  0.00     0.114 A 
HETATM   20  C   UNK     0      18.469  21.727  -3.026  0.00  0.00     0.101 A 
HETATM   21  N   UNK     0      17.224  21.983  -2.601  0.00  0.00    -0.133 NA
HETATM   22  N   UNK     0      17.086  23.270  -2.499  0.00  0.00    -0.064 NA
BRANCH  20  23
HETATM   23  C   UNK     0      19.053  20.393  -3.245  0.00  0.00     0.044 A 
HETATM   24  C   UNK     0      19.100  19.846  -4.683  0.00  0.00     0.006 A 
HETATM   25  C   UNK     0      20.389  20.317  -4.003  0.00  0.00     0.006 A 
ENDBRANCH  20  23
ENDBRANCH  17  18
ENDBRANCH  15  17
ENDBRANCH   9  14
TORSDOF 4
ENDMDL
MODEL 3
REMARK VINA RESULT:      -8.4     22.034     24.980
REMARK  4 active torsions:
REMARK  status: ('A' for Active; 'I' for Inactive)
REMARK    1  A    between atoms: C_9  and  N_13 
REMARK       I    between atoms: N_13  and  C_14 
REMARK    2  A    between atoms: C_14  and  C_17 
REMARK    3  A    between atoms: C_17  and  N_18 
REMARK    4  A    between atoms: C_20  and  C_23 
ROOT
HETATM    1  C   UNK     0      19.346  17.085  -5.939  0.00  0.00     0.003 A 
HETATM    2  C   UNK     0      19.870  15.842  -6.329  0.00  0.00     0.000 A 
HETATM    3  C   UNK     0      21.218  15.540  -6.081  0.00  0.00     0.000 A 
HETATM    4  C   UNK     0      22.044  16.481  -5.442  0.00  0.00     0.003 A 
HETATM    5  C   UNK     0      21.537  17.745  -5.054  0.00  0.00     0.044 A 
HETATM    6  C   UNK     0      20.168  18.047  -5.303  0.00  0.00     0.044 A 
HETATM    7  C   UNK     0      22.352  18.739  -4.425  0.00  0.00     0.217 C 
HETATM    8  C   UNK     0      21.844  20.025  -4.186  0.00  0.00     0.162 C 
HETATM    9  C   UNK     0      20.550  20.322  -4.455  0.00  0.00     0.146 C 
HETATM   10  C   UNK     0      19.673  19.322  -4.902  0.00  0.00     0.215 C 
HETATM   11  O   UNK     0      18.437  19.540  -4.907  0.00  0.00    -0.285 OA
HETATM   12  O   UNK     0      23.529  18.460  -4.090  0.00  0.00    -0.285 OA
HETATM   13  N   UNK     0      22.660  20.958  -3.708  0.00  0.00    -0.143 N 
ENDROOT
BRANCH   9  14
HETATM   14  N   UNK     0      20.102  21.575  -4.278  0.00  0.00    -0.205 NA
HETATM   15  C   UNK     0      19.524  22.061  -3.137  0.00  0.00     0.281 C 
HETATM   16  O   UNK     0      19.272  21.316  -2.158  0.00  0.00    -0.268 OA
BRANCH  15  17
HETATM   17  C   UNK     0      19.188  23.496  -3.048  0.00  0.00     0.219 C 
BRANCH  17  18
HETATM   18  N   UNK     0      17.806  23.683  -2.739  0.00  0.00    -0.221 N 
HETATM   19  C   UNK     0      17.264  24.736  -2.109  0.00  0.00     0.114 A 
HETATM   20  C   UNK     0      15.910  24.463  -2.005  0.00  0.00     0.101 A 
HETATM   21  N   UNK     0      15.715  23.273  -2.590  0.00  0.00    -0.133 NA
HETATM   22  N   UNK     0      16.861  22.838  -3.019  0.00  0.00    -0.064 NA
BRANCH  20  23
HETATM   23  C   UNK     0      14.869  25.319  -1.412  0.00  0.00     0.044 A 
HETATM   24  C   UNK     0      14.668  25.269   0.114  0.00  0.00     0.006 A 
HETATM   25  C   UNK     0      15.328  26.492  -0.530  0.00  0.00     0.006 A 
ENDBRANCH  20  23
ENDBRANCH  17  18
ENDBRANCH  15  17
ENDBRANCH   9  14
TORSDOF 4
ENDMDL
MODEL 4
REMARK VINA RESULT:      -8.4     23.333     26.200
REMARK  4 active torsions:
REMARK  status: ('A' for Active; 'I' for Inactive)
REMARK    1  A    between atoms: C_9  and  N_13 
REMARK       I    between atoms: N_13  and  C_14 
REMARK    2  A    between atoms: C_14  and  C_17 
REMARK    3  A    between atoms: C_17  and  N_18 
REMARK    4  A    between atoms: C_20  and  C_23 
ROOT
HETATM    1  C   UNK     0      17.044  23.628  -2.085  0.00  0.00     0.003 A 
HETATM    2  C   UNK     0      16.852  24.989  -1.793  0.00  0.00     0.000 A 
HETATM    3  C   UNK     0      17.783  25.940  -2.238  0.00  0.00     0.000 A 
HETATM    4  C   UNK     0      18.908  25.532  -2.976  0.00  0.00     0.003 A 
HETATM    5  C   UNK     0      19.125  24.164  -3.268  0.00  0.00     0.044 A 
HETATM    6  C   UNK     0      18.176  23.201  -2.819  0.00  0.00     0.044 A 
HETATM    7  C   UNK     0      20.270  23.706  -3.994  0.00  0.00     0.217 C 
HETATM    8  C   UNK     0      20.515  22.332  -4.139  0.00  0.00     0.162 C 
HETATM    9  C   UNK     0      19.630  21.416  -3.681  0.00  0.00     0.146 C 
HETATM   10  C   UNK     0      18.409  21.829  -3.125  0.00  0.00     0.215 C 
HETATM   11  O   UNK     0      17.498  20.986  -2.938  0.00  0.00    -0.285 OA
HETATM   12  O   UNK     0      21.061  24.539  -4.501  0.00  0.00    -0.285 OA
HETATM   13  N   UNK     0      21.646  21.940  -4.717  0.00  0.00    -0.143 N 
ENDROOT
BRANCH   9  14
HETATM   14  N   UNK     0      19.915  20.108  -3.773  0.00  0.00    -0.205 NA
HETATM   15  C   UNK     0      19.610  19.298  -4.834  0.00  0.00     0.281 C 
HETATM   16  O   UNK     0      18.929  19.713  -5.803  0.00  0.00    -0.268 OA
BRANCH  15  17
HETATM   17  C   UNK     0      20.093  17.903  -4.844  0.00  0.00     0.219 C 
BRANCH  17  18
HETATM   18  N   UNK     0      19.637  17.209  -6.007  0.00  0.00    -0.221 N 
HETATM   19  C   UNK     0      20.251  17.157  -7.198  0.00  0.00     0.114 A 
HETATM   20  C   UNK     0      19.428  16.403  -8.018  0.00  0.00     0.101 A 
HETATM   21  N   UNK     0      18.379  16.034  -7.271  0.00  0.00    -0.133 NA
HETATM   22  N   UNK     0      18.535  16.526  -6.080  0.00  0.00    -0.064 NA
BRANCH  20  23
HETATM   23  C   UNK     0      19.665  16.033  -9.424  0.00  0.00     0.044 A 
HETATM   24  C   UNK     0      18.911  16.811 -10.519  0.00  0.00     0.006 A 
HETATM   25  C   UNK     0      20.411  17.045 -10.311  0.00  0.00     0.006 A 
ENDBRANCH  20  23
ENDBRANCH  17  18
ENDBRANCH  15  17
ENDBRANCH   9  14
TORSDOF 4
ENDMDL
MODEL 5
REMARK VINA RESULT:      -8.3      2.192      8.470
REMARK  4 active torsions:
REMARK  status: ('A' for Active; 'I' for Inactive)
REMARK    1  A    between atoms: C_9  and  N_13 
REMARK       I    between atoms: N_13  and  C_14 
REMARK    2  A    between atoms: C_14  and  C_17 
REMARK    3  A    between atoms: C_17  and  N_18 
REMARK    4  A    between atoms: C_20  and  C_23 
ROOT
HETATM    1  C   UNK     0      18.597  18.297  21.532  0.00  0.00     0.003 A 
HETATM    2  C   UNK     0      19.259  19.004  22.549  0.00  0.00     0.000 A 
HETATM    3  C   UNK     0      18.945  18.756  23.894  0.00  0.00     0.000 A 
HETATM    4  C   UNK     0      17.969  17.800  24.224  0.00  0.00     0.003 A 
HETATM    5  C   UNK     0      17.281  17.087  23.212  0.00  0.00     0.044 A 
HETATM    6  C   UNK     0      17.605  17.338  21.848  0.00  0.00     0.044 A 
HETATM    7  C   UNK     0      16.264  16.125  23.507  0.00  0.00     0.217 C 
HETATM    8  C   UNK     0      15.513  15.547  22.472  0.00  0.00     0.162 C 
HETATM    9  C   UNK     0      15.799  15.812  21.175  0.00  0.00     0.146 C 
HETATM   10  C   UNK     0      16.906  16.609  20.843  0.00  0.00     0.215 C 
HETATM   11  O   UNK     0      17.309  16.643  19.654  0.00  0.00    -0.285 OA
HETATM   12  O   UNK     0      16.038  15.801  24.698  0.00  0.00    -0.285 OA
HETATM   13  N   UNK     0      14.500  14.747  22.784  0.00  0.00    -0.143 N 
ENDROOT
BRANCH   9  14
HETATM   14  N   UNK     0      15.028  15.299  20.203  0.00  0.00    -0.205 NA
HETATM   15  C   UNK     0      13.963  15.926  19.616  0.00  0.00     0.281 C 
HETATM   16  O   UNK     0      13.550  17.039  20.022  0.00  0.00    -0.268 OA
BRANCH  15  17
HETATM   17  C   UNK     0      13.282  15.283  18.474  0.00  0.00     0.219 C 
BRANCH  17  18
HETATM   18  N   UNK     0      12.437  16.210  17.790  0.00  0.00    -0.221 N 
HETATM   19  C   UNK     0      11.096  16.219  17.790  0.00  0.00     0.114 A 
HETATM   20  C   UNK     0      10.721  17.270  16.971  0.00  0.00     0.101 A 
HETATM   21  N   UNK     0      11.854  17.840  16.539  0.00  0.00    -0.133 NA
HETATM   22  N   UNK     0      12.856  17.189  17.047  0.00  0.00    -0.064 NA
BRANCH  20  23
HETATM   23  C   UNK     0       9.352  17.716  16.659  0.00  0.00     0.044 A 
HETATM   24  C   UNK     0       8.857  17.584  15.206  0.00  0.00     0.006 A 
HETATM   25  C   UNK     0       8.321  16.638  16.285  0.00  0.00     0.006 A 
ENDBRANCH  20  23
ENDBRANCH  17  18
ENDBRANCH  15  17
ENDBRANCH   9  14
TORSDOF 4
ENDMDL
MODEL 6
REMARK VINA RESULT:      -8.2      1.139      2.370
REMARK  4 active torsions:
REMARK  status: ('A' for Active; 'I' for Inactive)
REMARK    1  A    between atoms: C_9  and  N_13 
REMARK       I    between atoms: N_13  and  C_14 
REMARK    2  A    between atoms: C_14  and  C_17 
REMARK    3  A    between atoms: C_17  and  N_18 
REMARK    4  A    between atoms: C_20  and  C_23 
ROOT
HETATM    1  C   UNK     0       7.799  17.066  18.749  0.00  0.00     0.003 A 
HETATM    2  C   UNK     0       6.863  17.563  17.827  0.00  0.00     0.000 A 
HETATM    3  C   UNK     0       7.292  18.031  16.575  0.00  0.00     0.000 A 
HETATM    4  C   UNK     0       8.658  18.002  16.243  0.00  0.00     0.003 A 
HETATM    5  C   UNK     0       9.617  17.518  17.164  0.00  0.00     0.044 A 
HETATM    6  C   UNK     0       9.179  17.040  18.432  0.00  0.00     0.044 A 
HETATM    7  C   UNK     0      11.018  17.497  16.874  0.00  0.00     0.217 C 
HETATM    8  C   UNK     0      11.943  17.140  17.867  0.00  0.00     0.162 C 
HETATM    9  C   UNK     0      11.527  16.718  19.084  0.00  0.00     0.146 C 
HETATM   10  C   UNK     0      10.157  16.552  19.346  0.00  0.00     0.215 C 
HETATM   11  O   UNK     0       9.795  15.929  20.374  0.00  0.00    -0.285 OA
HETATM   12  O   UNK     0      11.422  17.803  15.726  0.00  0.00    -0.285 OA
HETATM   13  N   UNK     0      13.241  17.242  17.601  0.00  0.00    -0.143 N 
ENDROOT
BRANCH   9  14
HETATM   14  N   UNK     0      12.428  16.442  20.040  0.00  0.00    -0.205 NA
HETATM   15  C   UNK     0      13.054  17.364  20.835  0.00  0.00     0.281 C 
HETATM   16  O   UNK     0      12.895  18.597  20.662  0.00  0.00    -0.268 OA
BRANCH  15  17
HETATM   17  C   UNK     0      13.935  16.903  21.927  0.00  0.00     0.219 C 
BRANCH  17  18
HETATM   18  N   UNK     0      15.273  17.366  21.738  0.00  0.00    -0.221 N 
HETATM   19  C   UNK     0      16.166  17.640  22.700  0.00  0.00     0.114 A 
HETATM   20  C   UNK     0      17.305  18.085  22.049  0.00  0.00     0.101 A 
HETATM   21  N   UNK     0      17.036  18.038  20.737  0.00  0.00    -0.133 NA
HETATM   22  N   UNK     0      15.822  17.602  20.586  0.00  0.00    -0.064 NA
BRANCH  20  23
HETATM   23  C   UNK     0      18.582  18.492  22.659  0.00  0.00     0.044 A 
HETATM   24  C   UNK     0      19.713  17.450  22.745  0.00  0.00     0.006 A 
HETATM   25  C   UNK     0      19.808  18.600  21.737  0.00  0.00     0.006 A 
ENDBRANCH  20  23
ENDBRANCH  17  18
ENDBRANCH  15  17
ENDBRANCH   9  14
TORSDOF 4
ENDMDL
MODEL 7
REMARK VINA RESULT:      -8.2     22.496     24.952
REMARK  4 active torsions:
REMARK  status: ('A' for Active; 'I' for Inactive)
REMARK    1  A    between atoms: C_9  and  N_13 
REMARK       I    between atoms: N_13  and  C_14 
REMARK    2  A    between atoms: C_14  and  C_17 
REMARK    3  A    between atoms: C_17  and  N_18 
REMARK    4  A    between atoms: C_20  and  C_23 
ROOT
HETATM    1  C   UNK     0      15.550  24.469  -1.021  0.00  0.00     0.003 A 
HETATM    2  C   UNK     0      14.780  25.531  -0.518  0.00  0.00     0.000 A 
HETATM    3  C   UNK     0      15.169  26.857  -0.764  0.00  0.00     0.000 A 
HETATM    4  C   UNK     0      16.328  27.123  -1.514  0.00  0.00     0.003 A 
HETATM    5  C   UNK     0      17.124  26.066  -2.017  0.00  0.00     0.044 A 
HETATM    6  C   UNK     0      16.725  24.722  -1.769  0.00  0.00     0.044 A 
HETATM    7  C   UNK     0      18.324  26.296  -2.761  0.00  0.00     0.217 C 
HETATM    8  C   UNK     0      19.154  25.222  -3.119  0.00  0.00     0.162 C 
HETATM    9  C   UNK     0      18.791  23.945  -2.853  0.00  0.00     0.146 C 
HETATM   10  C   UNK     0      17.536  23.670  -2.286  0.00  0.00     0.215 C 
HETATM   11  O   UNK     0      17.108  22.490  -2.276  0.00  0.00    -0.285 OA
HETATM   12  O   UNK     0      18.638  27.466  -3.092  0.00  0.00    -0.285 OA
HETATM   13  N   UNK     0      20.317  25.479  -3.707  0.00  0.00    -0.143 N 
ENDROOT
BRANCH   9  14
HETATM   14  N   UNK     0      19.628  22.938  -3.146  0.00  0.00    -0.205 NA
HETATM   15  C   UNK     0      19.694  22.280  -4.344  0.00  0.00     0.281 C 
HETATM   16  O   UNK     0      18.879  22.515  -5.269  0.00  0.00    -0.268 OA
BRANCH  15  17
HETATM   17  C   UNK     0      20.750  21.270  -4.560  0.00  0.00     0.219 C 
BRANCH  17  18
HETATM   18  N   UNK     0      20.191  20.021  -4.969  0.00  0.00    -0.221 N 
HETATM   19  C   UNK     0      20.474  19.350  -6.096  0.00  0.00     0.114 A 
HETATM   20  C   UNK     0      19.674  18.220  -6.078  0.00  0.00     0.101 A 
HETATM   21  N   UNK     0      18.969  18.269  -4.939  0.00  0.00    -0.133 NA
HETATM   22  N   UNK     0      19.303  19.349  -4.301  0.00  0.00    -0.064 NA
BRANCH  20  23
HETATM   23  C   UNK     0      19.624  17.144  -7.083  0.00  0.00     0.044 A 
HETATM   24  C   UNK     0      20.456  15.873  -6.830  0.00  0.00     0.006 A 
HETATM   25  C   UNK     0      18.931  15.830  -6.685  0.00  0.00     0.006 A 
ENDBRANCH  20  23
ENDBRANCH  17  18
ENDBRANCH  15  17
ENDBRANCH   9  14
TORSDOF 4
ENDMDL
MODEL 8
REMARK VINA RESULT:      -8.2     23.022     25.346
REMARK  4 active torsions:
REMARK  status: ('A' for Active; 'I' for Inactive)
REMARK    1  A    between atoms: C_9  and  N_13 
REMARK       I    between atoms: N_13  and  C_14 
REMARK    2  A    between atoms: C_14  and  C_17 
REMARK    3  A    between atoms: C_17  and  N_18 
REMARK    4  A    between atoms: C_20  and  C_23 
ROOT
HETATM    1  C   UNK     0      16.112  24.241  -1.730  0.00  0.00     0.003 A 
HETATM    2  C   UNK     0      15.546  25.482  -1.397  0.00  0.00     0.000 A 
HETATM    3  C   UNK     0      16.262  26.666  -1.634  0.00  0.00     0.000 A 
HETATM    4  C   UNK     0      17.546  26.609  -2.203  0.00  0.00     0.003 A 
HETATM    5  C   UNK     0      18.139  25.366  -2.532  0.00  0.00     0.044 A 
HETATM    6  C   UNK     0      17.408  24.168  -2.296  0.00  0.00     0.044 A 
HETATM    7  C   UNK     0      19.453  25.266  -3.090  0.00  0.00     0.217 C 
HETATM    8  C   UNK     0      20.053  24.011  -3.269  0.00  0.00     0.162 C 
HETATM    9  C   UNK     0      19.370  22.870  -3.011  0.00  0.00     0.146 C 
HETATM   10  C   UNK     0      18.018  22.926  -2.636  0.00  0.00     0.215 C 
HETATM   11  O   UNK     0      17.331  21.875  -2.644  0.00  0.00    -0.285 OA
HETATM   12  O   UNK     0      20.074  26.308  -3.415  0.00  0.00    -0.285 OA
HETATM   13  N   UNK     0      21.316  23.956  -3.679  0.00  0.00    -0.143 N 
ENDROOT
BRANCH   9  14
HETATM   14  N   UNK     0      19.984  21.683  -3.128  0.00  0.00    -0.205 NA
HETATM   15  C   UNK     0      20.100  20.956  -4.282  0.00  0.00     0.281 C 
HETATM   16  O   UNK     0      19.536  21.315  -5.344  0.00  0.00    -0.268 OA
BRANCH  15  17
HETATM   17  C   UNK     0      20.908  19.720  -4.284  0.00  0.00     0.219 C 
BRANCH  17  18
HETATM   18  N   UNK     0      20.295  18.705  -5.079  0.00  0.00    -0.221 N 
HETATM   19  C   UNK     0      20.738  18.233  -6.254  0.00  0.00     0.114 A 
HETATM   20  C   UNK     0      19.809  17.291  -6.662  0.00  0.00     0.101 A 
HETATM   21  N   UNK     0      18.871  17.240  -5.706  0.00  0.00    -0.133 NA
HETATM   22  N   UNK     0      19.192  18.089  -4.777  0.00  0.00    -0.064 NA
BRANCH  20  23
HETATM   23  C   UNK     0      19.848  16.468  -7.882  0.00  0.00     0.044 A 
HETATM   24  C   UNK     0      20.366  15.022  -7.769  0.00  0.00     0.006 A 
HETATM   25  C   UNK     0      18.870  15.284  -7.975  0.00  0.00     0.006 A 
ENDBRANCH  20  23
ENDBRANCH  17  18
ENDBRANCH  15  17
ENDBRANCH   9  14
TORSDOF 4
ENDMDL
MODEL 9
REMARK VINA RESULT:      -8.1     23.548     26.360
REMARK  4 active torsions:
REMARK  status: ('A' for Active; 'I' for Inactive)
REMARK    1  A    between atoms: C_9  and  N_13 
REMARK       I    between atoms: N_13  and  C_14 
REMARK    2  A    between atoms: C_14  and  C_17 
REMARK    3  A    between atoms: C_17  and  N_18 
REMARK    4  A    between atoms: C_20  and  C_23 
ROOT
HETATM    1  C   UNK     0      20.766  24.739  -4.117  0.00  0.00     0.003 A 
HETATM    2  C   UNK     0      20.155  25.930  -3.691  0.00  0.00     0.000 A 
HETATM    3  C   UNK     0      18.943  25.882  -2.984  0.00  0.00     0.000 A 
HETATM    4  C   UNK     0      18.342  24.643  -2.701  0.00  0.00     0.003 A 
HETATM    5  C   UNK     0      18.936  23.433  -3.133  0.00  0.00     0.044 A 
HETATM    6  C   UNK     0      20.167  23.484  -3.847  0.00  0.00     0.044 A 
HETATM    7  C   UNK     0      18.343  22.155  -2.887  0.00  0.00     0.217 C 
HETATM    8  C   UNK     0      18.894  20.996  -3.455  0.00  0.00     0.162 C 
HETATM    9  C   UNK     0      20.046  21.050  -4.163  0.00  0.00     0.146 C 
HETATM   10  C   UNK     0      20.754  22.257  -4.271  0.00  0.00     0.215 C 
HETATM   11  O   UNK     0      21.932  22.247  -4.707  0.00  0.00    -0.285 OA
HETATM   12  O   UNK     0      17.320  22.071  -2.164  0.00  0.00    -0.285 OA
HETATM   13  N   UNK     0      18.253  19.842  -3.303  0.00  0.00    -0.143 N 
ENDROOT
BRANCH   9  14
HETATM   14  N   UNK     0      20.522  19.940  -4.750  0.00  0.00    -0.205 NA
HETATM   15  C   UNK     0      20.111  19.438  -5.955  0.00  0.00     0.281 C 
HETATM   16  O   UNK     0      19.153  19.947  -6.587  0.00  0.00    -0.268 OA
BRANCH  15  17
HETATM   17  C   UNK     0      20.811  18.273  -6.533  0.00  0.00     0.219 C 
BRANCH  17  18
HETATM   18  N   UNK     0      19.888  17.242  -6.886  0.00  0.00    -0.221 N 
HETATM   19  C   UNK     0      19.759  16.664  -8.090  0.00  0.00     0.114 A 
HETATM   20  C   UNK     0      18.724  15.752  -7.966  0.00  0.00     0.101 A 
HETATM   21  N   UNK     0      18.302  15.824  -6.696  0.00  0.00    -0.133 NA
HETATM   22  N   UNK     0      19.017  16.715  -6.080  0.00  0.00    -0.064 NA
BRANCH  20  23
HETATM   23  C   UNK     0      18.204  14.844  -9.003  0.00  0.00     0.044 A 
HETATM   24  C   UNK     0      18.773  13.415  -9.071  0.00  0.00     0.006 A 
HETATM   25  C   UNK     0      17.355  13.648  -8.541  0.00  0.00     0.006 A 
ENDBRANCH  20  23
ENDBRANCH  17  18
ENDBRANCH  15  17
ENDBRANCH   9  14
TORSDOF 4
ENDMDL
