MODEL 1
REMARK VINA RESULT:      -9.4      0.000      0.000
REMARK  6 active torsions:
REMARK  status: ('A' for Active; 'I' for Inactive)
REMARK    1  A    between atoms: C_9  and  N_13 
REMARK       I    between atoms: N_13  and  C_14 
REMARK    2  A    between atoms: C_14  and  C_17 
REMARK    3  A    between atoms: C_17  and  N_18 
REMARK    4  A    between atoms: C_20  and  C_23 
REMARK    5  A    between atoms: C_23  and  C_24 
REMARK    6  A    between atoms: C_24  and  C_25 
ROOT
HETATM    1  N   UNK     0      13.175  15.383  19.420  0.00  0.00    -0.205 NA
HETATM    2  C   UNK     0      14.066  15.796  20.369  0.00  0.00     0.281 C 
HETATM    3  O   UNK     0      15.033  15.030  20.580  0.00  0.00    -0.268 OA
ENDROOT
BRANCH   2   4
HETATM    4  C   UNK     0      14.032  17.078  21.115  0.00  0.00     0.219 C 
BRANCH   4   5
HETATM    5  N   UNK     0      15.353  17.491  21.479  0.00  0.00    -0.221 N 
HETATM    6  C   UNK     0      15.878  17.512  22.718  0.00  0.00     0.114 A 
HETATM    7  C   UNK     0      17.184  17.955  22.574  0.00  0.00     0.101 A 
HETATM    8  N   UNK     0      17.358  18.184  21.264  0.00  0.00    -0.133 NA
HETATM    9  N   UNK     0      16.257  17.896  20.642  0.00  0.00    -0.064 NA
BRANCH   7  10
HETATM   10  C   UNK     0      18.211  18.143  23.620  0.00  0.00     0.054 C 
BRANCH  10  11
HETATM   11  C   UNK     0      19.636  18.309  23.026  0.00  0.00     0.033 C 
BRANCH  11  12
HETATM   12  C   UNK     0      20.410  19.372  23.725  0.00  0.00    -0.022 A 
HETATM   13  C   UNK     0      20.296  19.550  25.126  0.00  0.00    -0.004 A 
HETATM   14  C   UNK     0      21.046  20.539  25.789  0.00  0.00    -0.000 A 
HETATM   15  C   UNK     0      21.916  21.370  25.062  0.00  0.00     0.000 A 
HETATM   16  C   UNK     0      22.032  21.214  23.669  0.00  0.00    -0.000 A 
HETATM   17  C   UNK     0      21.284  20.222  23.005  0.00  0.00    -0.004 A 
ENDBRANCH  11  12
ENDBRANCH  10  11
ENDBRANCH   7  10
ENDBRANCH   4   5
ENDBRANCH   2   4
BRANCH   1  18
HETATM   18  C   UNK     0      12.091  16.048  19.000  0.00  0.00     0.146 C 
HETATM   19  C   UNK     0      10.912  15.867  19.642  0.00  0.00     0.162 C 
HETATM   20  C   UNK     0       9.735  16.460  19.171  0.00  0.00     0.217 C 
HETATM   21  N   UNK     0      10.833  15.084  20.711  0.00  0.00    -0.143 N 
HETATM   22  C   UNK     0       9.730  17.119  17.906  0.00  0.00     0.044 A 
HETATM   23  O   UNK     0       8.683  16.396  19.852  0.00  0.00    -0.285 OA
HETATM   24  C   UNK     0       8.529  17.508  17.264  0.00  0.00     0.003 A 
HETATM   25  C   UNK     0      10.973  17.362  17.257  0.00  0.00     0.044 A 
HETATM   26  C   UNK     0       8.560  18.124  16.001  0.00  0.00     0.000 A 
HETATM   27  C   UNK     0       9.789  18.380  15.370  0.00  0.00     0.000 A 
HETATM   28  C   UNK     0      10.990  18.009  15.998  0.00  0.00     0.003 A 
HETATM   29  C   UNK     0      12.167  16.906  17.890  0.00  0.00     0.215 C 
HETATM   30  O   UNK     0      13.288  17.262  17.450  0.00  0.00    -0.285 OA
ENDBRANCH   1  18
TORSDOF 6
ENDMDL
MODEL 2
REMARK VINA RESULT:      -9.2      2.394     10.277
REMARK  6 active torsions:
REMARK  status: ('A' for Active; 'I' for Inactive)
REMARK    1  A    between atoms: C_9  and  N_13 
REMARK       I    between atoms: N_13  and  C_14 
REMARK    2  A    between atoms: C_14  and  C_17 
REMARK    3  A    between atoms: C_17  and  N_18 
REMARK    4  A    between atoms: C_20  and  C_23 
REMARK    5  A    between atoms: C_23  and  C_24 
REMARK    6  A    between atoms: C_24  and  C_25 
ROOT
HETATM    1  N   UNK     0      15.954  18.341  22.532  0.00  0.00    -0.205 NA
HETATM    2  C   UNK     0      14.975  17.738  21.795  0.00  0.00     0.281 C 
HETATM    3  O   UNK     0      13.937  18.412  21.610  0.00  0.00    -0.268 OA
ENDROOT
BRANCH   2   4
HETATM    4  C   UNK     0      15.052  16.406  21.144  0.00  0.00     0.219 C 
BRANCH   4   5
HETATM    5  N   UNK     0      14.140  16.323  20.045  0.00  0.00    -0.221 N 
HETATM    6  C   UNK     0      12.837  15.992  20.102  0.00  0.00     0.114 A 
HETATM    7  C   UNK     0      12.362  16.074  18.802  0.00  0.00     0.101 A 
HETATM    8  N   UNK     0      13.408  16.435  18.045  0.00  0.00    -0.133 NA
HETATM    9  N   UNK     0      14.445  16.579  18.810  0.00  0.00    -0.064 NA
BRANCH   7  10
HETATM   10  C   UNK     0      10.990  15.830  18.308  0.00  0.00     0.054 C 
BRANCH  10  11
HETATM   11  C   UNK     0      10.107  17.106  18.366  0.00  0.00     0.033 C 
BRANCH  11  12
HETATM   12  C   UNK     0       9.808  17.637  17.006  0.00  0.00    -0.022 A 
HETATM   13  C   UNK     0      10.816  18.265  16.235  0.00  0.00    -0.004 A 
HETATM   14  C   UNK     0      10.539  18.745  14.941  0.00  0.00    -0.000 A 
HETATM   15  C   UNK     0       9.248  18.609  14.401  0.00  0.00     0.000 A 
HETATM   16  C   UNK     0       8.232  17.997  15.158  0.00  0.00    -0.000 A 
HETATM   17  C   UNK     0       8.511  17.515  16.451  0.00  0.00    -0.004 A 
ENDBRANCH  11  12
ENDBRANCH  10  11
ENDBRANCH   7  10
ENDBRANCH   4   5
ENDBRANCH   2   4
BRANCH   1  18
HETATM   18  C   UNK     0      17.158  17.833  22.827  0.00  0.00     0.146 C 
HETATM   19  C   UNK     0      17.301  17.065  23.934  0.00  0.00     0.162 C 
HETATM   20  C   UNK     0      18.560  16.603  24.334  0.00  0.00     0.217 C 
HETATM   21  N   UNK     0      16.254  16.767  24.694  0.00  0.00    -0.143 N 
HETATM   22  C   UNK     0      19.733  17.085  23.680  0.00  0.00     0.044 A 
HETATM   23  O   UNK     0      18.658  15.782  25.278  0.00  0.00    -0.285 OA
HETATM   24  C   UNK     0      21.031  16.860  24.199  0.00  0.00     0.003 A 
HETATM   25  C   UNK     0      19.586  17.843  22.485  0.00  0.00     0.044 A 
HETATM   26  C   UNK     0      22.163  17.379  23.547  0.00  0.00     0.000 A 
HETATM   27  C   UNK     0      22.017  18.112  22.357  0.00  0.00     0.000 A 
HETATM   28  C   UNK     0      20.737  18.336  21.824  0.00  0.00     0.003 A 
HETATM   29  C   UNK     0      18.268  18.113  22.012  0.00  0.00     0.215 C 
HETATM   30  O   UNK     0      18.097  18.611  20.873  0.00  0.00    -0.285 OA
ENDBRANCH   1  18
TORSDOF 6
ENDMDL
MODEL 3
REMARK VINA RESULT:      -9.0     22.795     25.844
REMARK  6 active torsions:
REMARK  status: ('A' for Active; 'I' for Inactive)
REMARK    1  A    between atoms: C_9  and  N_13 
REMARK       I    between atoms: N_13  and  C_14 
REMARK    2  A    between atoms: C_14  and  C_17 
REMARK    3  A    between atoms: C_17  and  N_18 
REMARK    4  A    between atoms: C_20  and  C_23 
REMARK    5  A    between atoms: C_23  and  C_24 
REMARK    6  A    between atoms: C_24  and  C_25 
ROOT
HETATM    1  N   UNK     0      20.645  21.578  -5.395  0.00  0.00    -0.205 NA
HETATM    2  C   UNK     0      20.047  22.399  -4.482  0.00  0.00     0.281 C 
HETATM    3  O   UNK     0      19.848  23.577  -4.855  0.00  0.00    -0.268 OA
ENDROOT
BRANCH   2   4
HETATM    4  C   UNK     0      19.558  22.016  -3.134  0.00  0.00     0.219 C 
BRANCH   4   5
HETATM    5  N   UNK     0      18.291  22.622  -2.861  0.00  0.00    -0.221 N 
HETATM    6  C   UNK     0      18.078  23.838  -2.326  0.00  0.00     0.114 A 
HETATM    7  C   UNK     0      16.702  24.002  -2.278  0.00  0.00     0.101 A 
HETATM    8  N   UNK     0      16.175  22.873  -2.774  0.00  0.00    -0.133 NA
HETATM    9  N   UNK     0      17.141  22.077  -3.114  0.00  0.00    -0.064 NA
BRANCH   7  10
HETATM   10  C   UNK     0      15.931  25.167  -1.796  0.00  0.00     0.054 C 
BRANCH  10  11
HETATM   11  C   UNK     0      14.916  24.785  -0.684  0.00  0.00     0.033 C 
BRANCH  11  12
HETATM   12  C   UNK     0      14.377  25.986   0.012  0.00  0.00    -0.022 A 
HETATM   13  C   UNK     0      14.817  27.286  -0.336  0.00  0.00    -0.004 A 
HETATM   14  C   UNK     0      14.290  28.422   0.306  0.00  0.00    -0.000 A 
HETATM   15  C   UNK     0      13.318  28.274   1.312  0.00  0.00     0.000 A 
HETATM   16  C   UNK     0      12.878  26.989   1.678  0.00  0.00    -0.000 A 
HETATM   17  C   UNK     0      13.404  25.853   1.033  0.00  0.00    -0.004 A 
ENDBRANCH  11  12
ENDBRANCH  10  11
ENDBRANCH   7  10
ENDBRANCH   4   5
ENDBRANCH   2   4
BRANCH   1  18
HETATM   18  C   UNK     0      20.922  20.277  -5.237  0.00  0.00     0.146 C 
HETATM   19  C   UNK     0      22.130  19.911  -4.745  0.00  0.00     0.162 C 
HETATM   20  C   UNK     0      22.498  18.564  -4.663  0.00  0.00     0.217 C 
HETATM   21  N   UNK     0      23.015  20.826  -4.368  0.00  0.00    -0.143 N 
HETATM   22  C   UNK     0      21.674  17.565  -5.263  0.00  0.00     0.044 A 
HETATM   23  O   UNK     0      23.559  18.236  -4.079  0.00  0.00    -0.285 OA
HETATM   24  C   UNK     0      22.114  16.231  -5.438  0.00  0.00     0.003 A 
HETATM   25  C   UNK     0      20.381  17.936  -5.728  0.00  0.00     0.044 A 
HETATM   26  C   UNK     0      21.288  15.282  -6.066  0.00  0.00     0.000 A 
HETATM   27  C   UNK     0      20.005  15.645  -6.508  0.00  0.00     0.000 A 
HETATM   28  C   UNK     0      19.550  16.962  -6.333  0.00  0.00     0.003 A 
HETATM   29  C   UNK     0      19.980  19.299  -5.599  0.00  0.00     0.215 C 
HETATM   30  O   UNK     0      18.790  19.629  -5.821  0.00  0.00    -0.285 OA
ENDBRANCH   1  18
TORSDOF 6
ENDMDL
MODEL 4
REMARK VINA RESULT:      -9.0     22.460     26.054
REMARK  6 active torsions:
REMARK  status: ('A' for Active; 'I' for Inactive)
REMARK    1  A    between atoms: C_9  and  N_13 
REMARK       I    between atoms: N_13  and  C_14 
REMARK    2  A    between atoms: C_14  and  C_17 
REMARK    3  A    between atoms: C_17  and  N_18 
REMARK    4  A    between atoms: C_20  and  C_23 
REMARK    5  A    between atoms: C_23  and  C_24 
REMARK    6  A    between atoms: C_24  and  C_25 
ROOT
HETATM    1  N   UNK     0      20.033  20.051  -3.407  0.00  0.00    -0.205 NA
HETATM    2  C   UNK     0      19.187  21.066  -3.062  0.00  0.00     0.281 C 
HETATM    3  O   UNK     0      18.944  21.183  -1.840  0.00  0.00    -0.268 OA
ENDROOT
BRANCH   2   4
HETATM    4  C   UNK     0      18.591  22.070  -3.979  0.00  0.00     0.219 C 
BRANCH   4   5
HETATM    5  N   UNK     0      17.534  22.785  -3.333  0.00  0.00    -0.221 N 
HETATM    6  C   UNK     0      17.635  23.958  -2.681  0.00  0.00     0.114 A 
HETATM    7  C   UNK     0      16.355  24.271  -2.250  0.00  0.00     0.101 A 
HETATM    8  N   UNK     0      15.569  23.263  -2.658  0.00  0.00    -0.133 NA
HETATM    9  N   UNK     0      16.295  22.402  -3.299  0.00  0.00    -0.064 NA
BRANCH   7  10
HETATM   10  C   UNK     0      15.902  25.462  -1.501  0.00  0.00     0.054 C 
BRANCH  10  11
HETATM   11  C   UNK     0      15.106  25.086  -0.221  0.00  0.00     0.033 C 
BRANCH  11  12
HETATM   12  C   UNK     0      14.346  26.248   0.320  0.00  0.00    -0.022 A 
HETATM   13  C   UNK     0      13.325  26.061   1.283  0.00  0.00    -0.004 A 
HETATM   14  C   UNK     0      12.623  27.161   1.812  0.00  0.00    -0.000 A 
HETATM   15  C   UNK     0      12.928  28.464   1.380  0.00  0.00     0.000 A 
HETATM   16  C   UNK     0      13.932  28.666   0.416  0.00  0.00    -0.000 A 
HETATM   17  C   UNK     0      14.635  27.565  -0.111  0.00  0.00    -0.004 A 
ENDBRANCH  11  12
ENDBRANCH  10  11
ENDBRANCH   7  10
ENDBRANCH   4   5
ENDBRANCH   2   4
BRANCH   1  18
HETATM   18  C   UNK     0      20.466  19.756  -4.640  0.00  0.00     0.146 C 
HETATM   19  C   UNK     0      21.532  20.421  -5.145  0.00  0.00     0.162 C 
HETATM   20  C   UNK     0      21.951  20.218  -6.465  0.00  0.00     0.217 C 
HETATM   21  N   UNK     0      22.183  21.317  -4.413  0.00  0.00    -0.143 N 
HETATM   22  C   UNK     0      21.148  19.440  -7.352  0.00  0.00     0.044 A 
HETATM   23  O   UNK     0      23.020  20.735  -6.872  0.00  0.00    -0.285 OA
HETATM   24  C   UNK     0      21.380  19.412  -8.748  0.00  0.00     0.003 A 
HETATM   25  C   UNK     0      20.062  18.695  -6.814  0.00  0.00     0.044 A 
HETATM   26  C   UNK     0      20.547  18.662  -9.596  0.00  0.00     0.000 A 
HETATM   27  C   UNK     0      19.486  17.912  -9.062  0.00  0.00     0.000 A 
HETATM   28  C   UNK     0      19.249  17.921  -7.677  0.00  0.00     0.003 A 
HETATM   29  C   UNK     0      19.807  18.785  -5.413  0.00  0.00     0.215 C 
HETATM   30  O   UNK     0      18.985  18.006  -4.871  0.00  0.00    -0.285 OA
ENDBRANCH   1  18
TORSDOF 6
ENDMDL
MODEL 5
REMARK VINA RESULT:      -8.9     23.106     26.604
REMARK  6 active torsions:
REMARK  status: ('A' for Active; 'I' for Inactive)
REMARK    1  A    between atoms: C_9  and  N_13 
REMARK       I    between atoms: N_13  and  C_14 
REMARK    2  A    between atoms: C_14  and  C_17 
REMARK    3  A    between atoms: C_17  and  N_18 
REMARK    4  A    between atoms: C_20  and  C_23 
REMARK    5  A    between atoms: C_23  and  C_24 
REMARK    6  A    between atoms: C_24  and  C_25 
ROOT
HETATM    1  N   UNK     0      21.305  19.570  -4.603  0.00  0.00    -0.205 NA
HETATM    2  C   UNK     0      20.565  20.625  -4.154  0.00  0.00     0.281 C 
HETATM    3  O   UNK     0      20.994  21.195  -3.125  0.00  0.00    -0.268 OA
ENDROOT
BRANCH   2   4
HETATM    4  C   UNK     0      19.354  21.194  -4.797  0.00  0.00     0.219 C 
BRANCH   4   5
HETATM    5  N   UNK     0      18.553  21.898  -3.843  0.00  0.00    -0.221 N 
HETATM    6  C   UNK     0      18.475  23.232  -3.684  0.00  0.00     0.114 A 
HETATM    7  C   UNK     0      17.558  23.445  -2.666  0.00  0.00     0.101 A 
HETATM    8  N   UNK     0      17.153  22.230  -2.270  0.00  0.00    -0.133 NA
HETATM    9  N   UNK     0      17.757  21.335  -2.988  0.00  0.00    -0.064 NA
BRANCH   7  10
HETATM   10  C   UNK     0      17.087  24.730  -2.107  0.00  0.00     0.054 C 
BRANCH  10  11
HETATM   11  C   UNK     0      15.549  24.752  -1.894  0.00  0.00     0.033 C 
BRANCH  11  12
HETATM   12  C   UNK     0      15.112  25.953  -1.128  0.00  0.00    -0.022 A 
HETATM   13  C   UNK     0      15.407  27.258  -1.594  0.00  0.00    -0.004 A 
HETATM   14  C   UNK     0      14.973  28.392  -0.881  0.00  0.00    -0.000 A 
HETATM   15  C   UNK     0      14.243  28.238   0.310  0.00  0.00     0.000 A 
HETATM   16  C   UNK     0      13.951  26.949   0.792  0.00  0.00    -0.000 A 
HETATM   17  C   UNK     0      14.384  25.815   0.078  0.00  0.00    -0.004 A 
ENDBRANCH  11  12
ENDBRANCH  10  11
ENDBRANCH   7  10
ENDBRANCH   4   5
ENDBRANCH   2   4
BRANCH   1  18
HETATM   18  C   UNK     0      21.066  18.836  -5.698  0.00  0.00     0.146 C 
HETATM   19  C   UNK     0      21.489  19.284  -6.904  0.00  0.00     0.162 C 
HETATM   20  C   UNK     0      21.169  18.600  -8.082  0.00  0.00     0.217 C 
HETATM   21  N   UNK     0      22.185  20.411  -7.004  0.00  0.00    -0.143 N 
HETATM   22  C   UNK     0      20.239  17.518  -8.043  0.00  0.00     0.044 A 
HETATM   23  O   UNK     0      21.683  18.950  -9.172  0.00  0.00    -0.285 OA
HETATM   24  C   UNK     0      19.683  16.961  -9.220  0.00  0.00     0.003 A 
HETATM   25  C   UNK     0      19.837  17.008  -6.777  0.00  0.00     0.044 A 
HETATM   26  C   UNK     0      18.743  15.919  -9.143  0.00  0.00     0.000 A 
HETATM   27  C   UNK     0      18.361  15.404  -7.893  0.00  0.00     0.000 A 
HETATM   28  C   UNK     0      18.911  15.939  -6.716  0.00  0.00     0.003 A 
HETATM   29  C   UNK     0      20.361  17.624  -5.602  0.00  0.00     0.215 C 
HETATM   30  O   UNK     0      20.183  17.091  -4.479  0.00  0.00    -0.285 OA
ENDBRANCH   1  18
TORSDOF 6
ENDMDL
MODEL 6
REMARK VINA RESULT:      -8.8     22.496     25.966
REMARK  6 active torsions:
REMARK  status: ('A' for Active; 'I' for Inactive)
REMARK    1  A    between atoms: C_9  and  N_13 
REMARK       I    between atoms: N_13  and  C_14 
REMARK    2  A    between atoms: C_14  and  C_17 
REMARK    3  A    between atoms: C_17  and  N_18 
REMARK    4  A    between atoms: C_20  and  C_23 
REMARK    5  A    between atoms: C_23  and  C_24 
REMARK    6  A    between atoms: C_24  and  C_25 
ROOT
HETATM    1  N   UNK     0      18.953  25.236  -2.116  0.00  0.00    -0.205 NA
HETATM    2  C   UNK     0      19.171  24.225  -3.008  0.00  0.00     0.281 C 
HETATM    3  O   UNK     0      20.348  23.809  -3.084  0.00  0.00    -0.268 OA
ENDROOT
BRANCH   2   4
HETATM    4  C   UNK     0      18.146  23.537  -3.833  0.00  0.00     0.219 C 
BRANCH   4   5
HETATM    5  N   UNK     0      18.268  22.117  -3.717  0.00  0.00    -0.221 N 
HETATM    6  C   UNK     0      18.998  21.304  -4.503  0.00  0.00     0.114 A 
HETATM    7  C   UNK     0      18.831  20.025  -3.994  0.00  0.00     0.101 A 
HETATM    8  N   UNK     0      18.005  20.147  -2.944  0.00  0.00    -0.133 NA
HETATM    9  N   UNK     0      17.693  21.397  -2.804  0.00  0.00    -0.064 NA
BRANCH   7  10
HETATM   10  C   UNK     0      19.429  18.760  -4.472  0.00  0.00     0.054 C 
BRANCH  10  11
HETATM   11  C   UNK     0      19.996  18.882  -5.913  0.00  0.00     0.033 C 
BRANCH  11  12
HETATM   12  C   UNK     0      19.561  17.751  -6.778  0.00  0.00    -0.022 A 
HETATM   13  C   UNK     0      19.263  16.484  -6.221  0.00  0.00    -0.004 A 
HETATM   14  C   UNK     0      18.829  15.422  -7.037  0.00  0.00    -0.000 A 
HETATM   15  C   UNK     0      18.692  15.609  -8.423  0.00  0.00     0.000 A 
HETATM   16  C   UNK     0      18.995  16.859  -8.995  0.00  0.00    -0.000 A 
HETATM   17  C   UNK     0      19.426  17.921  -8.178  0.00  0.00    -0.004 A 
ENDBRANCH  11  12
ENDBRANCH  10  11
ENDBRANCH   7  10
ENDBRANCH   4   5
ENDBRANCH   2   4
BRANCH   1  18
HETATM   18  C   UNK     0      17.777  25.813  -1.836  0.00  0.00     0.146 C 
HETATM   19  C   UNK     0      17.560  27.095  -2.214  0.00  0.00     0.162 C 
HETATM   20  C   UNK     0      16.388  27.768  -1.849  0.00  0.00     0.217 C 
HETATM   21  N   UNK     0      18.476  27.764  -2.905  0.00  0.00    -0.143 N 
HETATM   22  C   UNK     0      15.486  27.168  -0.922  0.00  0.00     0.044 A 
HETATM   23  O   UNK     0      16.142  28.904  -2.323  0.00  0.00    -0.285 OA
HETATM   24  C   UNK     0      14.429  27.894  -0.322  0.00  0.00     0.003 A 
HETATM   25  C   UNK     0      15.678  25.803  -0.568  0.00  0.00     0.044 A 
HETATM   26  C   UNK     0      13.580  27.280   0.615  0.00  0.00     0.000 A 
HETATM   27  C   UNK     0      13.759  25.928   0.950  0.00  0.00     0.000 A 
HETATM   28  C   UNK     0      14.797  25.190   0.357  0.00  0.00     0.003 A 
HETATM   29  C   UNK     0      16.785  25.106  -1.135  0.00  0.00     0.215 C 
HETATM   30  O   UNK     0      16.883  23.861  -0.998  0.00  0.00    -0.285 OA
ENDBRANCH   1  18
TORSDOF 6
ENDMDL
MODEL 7
REMARK VINA RESULT:      -8.7      2.300     10.301
REMARK  6 active torsions:
REMARK  status: ('A' for Active; 'I' for Inactive)
REMARK    1  A    between atoms: C_9  and  N_13 
REMARK       I    between atoms: N_13  and  C_14 
REMARK    2  A    between atoms: C_14  and  C_17 
REMARK    3  A    between atoms: C_17  and  N_18 
REMARK    4  A    between atoms: C_20  and  C_23 
REMARK    5  A    between atoms: C_23  and  C_24 
REMARK    6  A    between atoms: C_24  and  C_25 
ROOT
HETATM    1  N   UNK     0      17.222  15.484  21.725  0.00  0.00    -0.205 NA
HETATM    2  C   UNK     0      15.889  15.218  21.595  0.00  0.00     0.281 C 
HETATM    3  O   UNK     0      15.590  14.313  20.784  0.00  0.00    -0.268 OA
ENDROOT
BRANCH   2   4
HETATM    4  C   UNK     0      14.783  15.843  22.363  0.00  0.00     0.219 C 
BRANCH   4   5
HETATM    5  N   UNK     0      14.002  16.700  21.524  0.00  0.00    -0.221 N 
HETATM    6  C   UNK     0      12.978  16.335  20.731  0.00  0.00     0.114 A 
HETATM    7  C   UNK     0      12.517  17.500  20.138  0.00  0.00     0.101 A 
HETATM    8  N   UNK     0      13.298  18.488  20.600  0.00  0.00    -0.133 NA
HETATM    9  N   UNK     0      14.165  17.982  21.421  0.00  0.00    -0.064 NA
BRANCH   7  10
HETATM   10  C   UNK     0      11.393  17.668  19.192  0.00  0.00     0.054 C 
BRANCH  10  11
HETATM   11  C   UNK     0      11.766  17.230  17.749  0.00  0.00     0.033 C 
BRANCH  11  12
HETATM   12  C   UNK     0      10.673  17.524  16.780  0.00  0.00    -0.022 A 
HETATM   13  C   UNK     0       9.381  16.973  16.955  0.00  0.00    -0.004 A 
HETATM   14  C   UNK     0       8.343  17.271  16.052  0.00  0.00    -0.000 A 
HETATM   15  C   UNK     0       8.583  18.120  14.957  0.00  0.00     0.000 A 
HETATM   16  C   UNK     0       9.865  18.667  14.763  0.00  0.00    -0.000 A 
HETATM   17  C   UNK     0      10.902  18.371  15.668  0.00  0.00    -0.004 A 
ENDBRANCH  11  12
ENDBRANCH  10  11
ENDBRANCH   7  10
ENDBRANCH   4   5
ENDBRANCH   2   4
BRANCH   1  18
HETATM   18  C   UNK     0      17.780  16.377  22.553  0.00  0.00     0.146 C 
HETATM   19  C   UNK     0      17.986  17.644  22.122  0.00  0.00     0.162 C 
HETATM   20  C   UNK     0      18.660  18.577  22.918  0.00  0.00     0.217 C 
HETATM   21  N   UNK     0      17.590  18.023  20.913  0.00  0.00    -0.143 N 
HETATM   22  C   UNK     0      19.298  18.154  24.122  0.00  0.00     0.044 A 
HETATM   23  O   UNK     0      18.720  19.780  22.563  0.00  0.00    -0.285 OA
HETATM   24  C   UNK     0      20.202  18.983  24.827  0.00  0.00     0.003 A 
HETATM   25  C   UNK     0      19.037  16.841  24.607  0.00  0.00     0.044 A 
HETATM   26  C   UNK     0      20.839  18.520  25.992  0.00  0.00     0.000 A 
HETATM   27  C   UNK     0      20.567  17.231  26.480  0.00  0.00     0.000 A 
HETATM   28  C   UNK     0      19.665  16.399  25.797  0.00  0.00     0.003 A 
HETATM   29  C   UNK     0      18.172  15.998  23.849  0.00  0.00     0.215 C 
HETATM   30  O   UNK     0      17.770  14.912  24.332  0.00  0.00    -0.285 OA
ENDBRANCH   1  18
TORSDOF 6
ENDMDL
MODEL 8
REMARK VINA RESULT:      -8.7      2.425      9.655
REMARK  6 active torsions:
REMARK  status: ('A' for Active; 'I' for Inactive)
REMARK    1  A    between atoms: C_9  and  N_13 
REMARK       I    between atoms: N_13  and  C_14 
REMARK    2  A    between atoms: C_14  and  C_17 
REMARK    3  A    between atoms: C_17  and  N_18 
REMARK    4  A    between atoms: C_20  and  C_23 
REMARK    5  A    between atoms: C_23  and  C_24 
REMARK    6  A    between atoms: C_24  and  C_25 
ROOT
HETATM    1  N   UNK     0      17.833  14.815  22.073  0.00  0.00    -0.205 NA
HETATM    2  C   UNK     0      17.115  14.846  20.911  0.00  0.00     0.281 C 
HETATM    3  O   UNK     0      16.559  13.773  20.585  0.00  0.00    -0.268 OA
ENDROOT
BRANCH   2   4
HETATM    4  C   UNK     0      16.880  16.030  20.048  0.00  0.00     0.219 C 
BRANCH   4   5
HETATM    5  N   UNK     0      15.681  16.710  20.432  0.00  0.00    -0.221 N 
HETATM    6  C   UNK     0      14.419  16.263  20.287  0.00  0.00     0.114 A 
HETATM    7  C   UNK     0      13.600  17.243  20.825  0.00  0.00     0.101 A 
HETATM    8  N   UNK     0      14.416  18.220  21.248  0.00  0.00    -0.133 NA
HETATM    9  N   UNK     0      15.641  17.873  21.005  0.00  0.00    -0.064 NA
BRANCH   7  10
HETATM   10  C   UNK     0      12.126  17.249  20.939  0.00  0.00     0.054 C 
BRANCH  10  11
HETATM   11  C   UNK     0      11.454  16.253  19.955  0.00  0.00     0.033 C 
BRANCH  11  12
HETATM   12  C   UNK     0      10.949  16.936  18.731  0.00  0.00    -0.022 A 
HETATM   13  C   UNK     0      11.796  17.146  17.616  0.00  0.00    -0.004 A 
HETATM   14  C   UNK     0      11.311  17.770  16.451  0.00  0.00    -0.000 A 
HETATM   15  C   UNK     0       9.974  18.200  16.387  0.00  0.00     0.000 A 
HETATM   16  C   UNK     0       9.123  18.009  17.490  0.00  0.00    -0.000 A 
HETATM   17  C   UNK     0       9.607  17.382  18.655  0.00  0.00    -0.004 A 
ENDBRANCH  11  12
ENDBRANCH  10  11
ENDBRANCH   7  10
ENDBRANCH   4   5
ENDBRANCH   2   4
BRANCH   1  18
HETATM   18  C   UNK     0      18.479  15.843  22.639  0.00  0.00     0.146 C 
HETATM   19  C   UNK     0      17.854  16.576  23.591  0.00  0.00     0.162 C 
HETATM   20  C   UNK     0      18.454  17.719  24.132  0.00  0.00     0.217 C 
HETATM   21  N   UNK     0      16.635  16.253  24.006  0.00  0.00    -0.143 N 
HETATM   22  C   UNK     0      19.656  18.229  23.557  0.00  0.00     0.044 A 
HETATM   23  O   UNK     0      17.924  18.305  25.108  0.00  0.00    -0.285 OA
HETATM   24  C   UNK     0      20.165  19.508  23.887  0.00  0.00     0.003 A 
HETATM   25  C   UNK     0      20.345  17.434  22.599  0.00  0.00     0.044 A 
HETATM   26  C   UNK     0      21.334  19.992  23.274  0.00  0.00     0.000 A 
HETATM   27  C   UNK     0      22.023  19.199  22.342  0.00  0.00     0.000 A 
HETATM   28  C   UNK     0      21.537  17.923  22.012  0.00  0.00     0.003 A 
HETATM   29  C   UNK     0      19.783  16.174  22.234  0.00  0.00     0.215 C 
HETATM   30  O   UNK     0      20.448  15.366  21.541  0.00  0.00    -0.285 OA
ENDBRANCH   1  18
TORSDOF 6
ENDMDL
MODEL 9
REMARK VINA RESULT:      -8.7      1.478      2.204
REMARK  6 active torsions:
REMARK  status: ('A' for Active; 'I' for Inactive)
REMARK    1  A    between atoms: C_9  and  N_13 
REMARK       I    between atoms: N_13  and  C_14 
REMARK    2  A    between atoms: C_14  and  C_17 
REMARK    3  A    between atoms: C_17  and  N_18 
REMARK    4  A    between atoms: C_20  and  C_23 
REMARK    5  A    between atoms: C_23  and  C_24 
REMARK    6  A    between atoms: C_24  and  C_25 
ROOT
HETATM    1  N   UNK     0      11.029  15.358  18.590  0.00  0.00    -0.205 NA
HETATM    2  C   UNK     0      11.791  15.593  19.698  0.00  0.00     0.281 C 
HETATM    3  O   UNK     0      12.460  14.622  20.117  0.00  0.00    -0.268 OA
ENDROOT
BRANCH   2   4
HETATM    4  C   UNK     0      11.950  16.890  20.403  0.00  0.00     0.219 C 
BRANCH   4   5
HETATM    5  N   UNK     0      13.317  17.110  20.761  0.00  0.00    -0.221 N 
HETATM    6  C   UNK     0      13.793  17.398  21.987  0.00  0.00     0.114 A 
HETATM    7  C   UNK     0      15.169  17.496  21.852  0.00  0.00     0.101 A 
HETATM    8  N   UNK     0      15.434  17.273  20.556  0.00  0.00    -0.133 NA
HETATM    9  N   UNK     0      14.317  17.045  19.938  0.00  0.00    -0.064 NA
BRANCH   7  10
HETATM   10  C   UNK     0      16.178  17.776  22.896  0.00  0.00     0.054 C 
BRANCH  10  11
HETATM   11  C   UNK     0      17.579  17.217  22.529  0.00  0.00     0.033 C 
BRANCH  11  12
HETATM   12  C   UNK     0      18.675  18.088  23.038  0.00  0.00    -0.022 A 
HETATM   13  C   UNK     0      18.777  18.396  24.416  0.00  0.00    -0.004 A 
HETATM   14  C   UNK     0      19.826  19.199  24.899  0.00  0.00    -0.000 A 
HETATM   15  C   UNK     0      20.788  19.712  24.011  0.00  0.00     0.000 A 
HETATM   16  C   UNK     0      20.695  19.424  22.637  0.00  0.00    -0.000 A 
HETATM   17  C   UNK     0      19.646  18.618  22.154  0.00  0.00    -0.004 A 
ENDBRANCH  11  12
ENDBRANCH  10  11
ENDBRANCH   7  10
ENDBRANCH   4   5
ENDBRANCH   2   4
BRANCH   1  18
HETATM   18  C   UNK     0      10.265  16.247  17.943  0.00  0.00     0.146 C 
HETATM   19  C   UNK     0       8.944  16.324  18.235  0.00  0.00     0.162 C 
HETATM   20  C   UNK     0       8.092  17.165  17.511  0.00  0.00     0.217 C 
HETATM   21  N   UNK     0       8.415  15.569  19.191  0.00  0.00    -0.143 N 
HETATM   22  C   UNK     0       8.570  17.819  16.337  0.00  0.00     0.044 A 
HETATM   23  O   UNK     0       6.904  17.327  17.883  0.00  0.00    -0.285 OA
HETATM   24  C   UNK     0       7.700  18.467  15.428  0.00  0.00     0.003 A 
HETATM   25  C   UNK     0       9.966  17.789  16.059  0.00  0.00     0.044 A 
HETATM   26  C   UNK     0       8.202  19.071  14.263  0.00  0.00     0.000 A 
HETATM   27  C   UNK     0       9.582  19.056  13.999  0.00  0.00     0.000 A 
HETATM   28  C   UNK     0      10.461  18.426  14.896  0.00  0.00     0.003 A 
HETATM   29  C   UNK     0      10.819  17.077  16.954  0.00  0.00     0.215 C 
HETATM   30  O   UNK     0      12.066  17.182  16.852  0.00  0.00    -0.285 OA
ENDBRANCH   1  18
TORSDOF 6
ENDMDL
