MODEL 1
REMARK VINA RESULT:      -9.3      0.000      0.000
REMARK  5 active torsions:
REMARK  status: ('A' for Active; 'I' for Inactive)
REMARK    1  A    between atoms: C_9  and  N_13 
REMARK       I    between atoms: N_13  and  C_14 
REMARK    2  A    between atoms: C_14  and  C_17 
REMARK    3  A    between atoms: C_17  and  N_18 
REMARK    4  A    between atoms: C_20  and  C_23 
REMARK    5  A    between atoms: C_23  and  C_24 
ROOT
HETATM    1  N   UNK     0      13.396  15.255  19.374  0.00  0.00    -0.205 NA
HETATM    2  C   UNK     0      14.282  15.665  20.327  0.00  0.00     0.281 C 
HETATM    3  O   UNK     0      15.273  14.920  20.504  0.00  0.00    -0.268 OA
ENDROOT
BRANCH   2   4
HETATM    4  C   UNK     0      14.207  16.913  21.130  0.00  0.00     0.219 C 
BRANCH   4   5
HETATM    5  N   UNK     0      15.512  17.383  21.482  0.00  0.00    -0.221 N 
HETATM    6  C   UNK     0      16.099  17.320  22.692  0.00  0.00     0.114 A 
HETATM    7  C   UNK     0      17.367  17.864  22.535  0.00  0.00     0.101 A 
HETATM    8  N   UNK     0      17.455  18.240  21.250  0.00  0.00    -0.133 NA
HETATM    9  N   UNK     0      16.343  17.936  20.653  0.00  0.00    -0.064 NA
BRANCH   7  10
HETATM   10  C   UNK     0      18.439  18.007  23.548  0.00  0.00     0.049 C 
BRANCH  10  11
HETATM   11  C   UNK     0      19.629  18.926  23.111  0.00  0.00     0.006 C 
HETATM   12  C   UNK     0      20.682  18.121  22.278  0.00  0.00     0.000 C 
HETATM   13  C   UNK     0      21.914  18.974  21.866  0.00  0.00     0.000 C 
HETATM   14  C   UNK     0      22.582  19.650  23.090  0.00  0.00     0.000 C 
HETATM   15  C   UNK     0      21.557  20.474  23.909  0.00  0.00     0.000 C 
HETATM   16  C   UNK     0      20.333  19.616  24.327  0.00  0.00     0.000 C 
ENDBRANCH  10  11
ENDBRANCH   7  10
ENDBRANCH   4   5
ENDBRANCH   2   4
BRANCH   1  17
HETATM   17  C   UNK     0      12.286  15.895  18.985  0.00  0.00     0.146 C 
HETATM   18  C   UNK     0      11.139  15.701  19.682  0.00  0.00     0.162 C 
HETATM   19  C   UNK     0       9.944  16.319  19.293  0.00  0.00     0.217 C 
HETATM   20  N   UNK     0      11.106  14.895  20.736  0.00  0.00    -0.143 N 
HETATM   21  C   UNK     0       9.876  17.017  18.051  0.00  0.00     0.044 A 
HETATM   22  O   UNK     0       8.931  16.248  20.032  0.00  0.00    -0.285 OA
HETATM   23  C   UNK     0       8.642  17.444  17.501  0.00  0.00     0.003 A 
HETATM   24  C   UNK     0      11.085  17.266  17.341  0.00  0.00     0.044 A 
HETATM   25  C   UNK     0       8.609  18.124  16.271  0.00  0.00     0.000 A 
HETATM   26  C   UNK     0       9.805  18.399  15.588  0.00  0.00     0.000 A 
HETATM   27  C   UNK     0      11.037  17.982  16.121  0.00  0.00     0.003 A 
HETATM   28  C   UNK     0      12.309  16.761  17.879  0.00  0.00     0.215 C 
HETATM   29  O   UNK     0      13.408  17.072  17.357  0.00  0.00    -0.285 OA
ENDBRANCH   1  17
TORSDOF 5
ENDMDL
MODEL 2
REMARK VINA RESULT:      -9.1      1.090      1.248
REMARK  5 active torsions:
REMARK  status: ('A' for Active; 'I' for Inactive)
REMARK    1  A    between atoms: C_9  and  N_13 
REMARK       I    between atoms: N_13  and  C_14 
REMARK    2  A    between atoms: C_14  and  C_17 
REMARK    3  A    between atoms: C_17  and  N_18 
REMARK    4  A    between atoms: C_20  and  C_23 
REMARK    5  A    between atoms: C_23  and  C_24 
ROOT
HETATM    1  N   UNK     0      12.649  15.027  18.793  0.00  0.00    -0.205 NA
HETATM    2  C   UNK     0      13.358  15.369  19.908  0.00  0.00     0.281 C 
HETATM    3  O   UNK     0      14.296  14.597  20.212  0.00  0.00    -0.268 OA
ENDROOT
BRANCH   2   4
HETATM    4  C   UNK     0      13.155  16.573  20.754  0.00  0.00     0.219 C 
BRANCH   4   5
HETATM    5  N   UNK     0      14.400  17.070  21.256  0.00  0.00    -0.221 N 
HETATM    6  C   UNK     0      14.873  16.959  22.511  0.00  0.00     0.114 A 
HETATM    7  C   UNK     0      16.126  17.558  22.508  0.00  0.00     0.101 A 
HETATM    8  N   UNK     0      16.318  18.012  21.259  0.00  0.00    -0.133 NA
HETATM    9  N   UNK     0      15.281  17.702  20.542  0.00  0.00    -0.064 NA
BRANCH   7  10
HETATM   10  C   UNK     0      17.090  17.681  23.625  0.00  0.00     0.049 C 
BRANCH  10  11
HETATM   11  C   UNK     0      18.464  18.323  23.233  0.00  0.00     0.006 C 
HETATM   12  C   UNK     0      19.399  17.269  22.551  0.00  0.00     0.000 C 
HETATM   13  C   UNK     0      20.800  17.840  22.191  0.00  0.00     0.000 C 
HETATM   14  C   UNK     0      21.494  18.479  23.420  0.00  0.00     0.000 C 
HETATM   15  C   UNK     0      20.591  19.545  24.089  0.00  0.00     0.000 C 
HETATM   16  C   UNK     0      19.197  18.968  24.455  0.00  0.00     0.000 C 
ENDBRANCH  10  11
ENDBRANCH   7  10
ENDBRANCH   4   5
ENDBRANCH   2   4
BRANCH   1  17
HETATM   17  C   UNK     0      11.630  15.709  18.254  0.00  0.00     0.146 C 
HETATM   18  C   UNK     0      10.361  15.356  18.578  0.00  0.00     0.162 C 
HETATM   19  C   UNK     0       9.262  16.014  18.012  0.00  0.00     0.217 C 
HETATM   20  N   UNK     0      10.121  14.357  19.418  0.00  0.00    -0.143 N 
HETATM   21  C   UNK     0       9.459  16.943  16.948  0.00  0.00     0.044 A 
HETATM   22  O   UNK     0       8.103  15.777  18.434  0.00  0.00    -0.285 OA
HETATM   23  C   UNK     0       8.377  17.445  16.184  0.00  0.00     0.003 A 
HETATM   24  C   UNK     0      10.787  17.353  16.637  0.00  0.00     0.044 A 
HETATM   25  C   UNK     0       8.606  18.353  15.136  0.00  0.00     0.000 A 
HETATM   26  C   UNK     0       9.913  18.784  14.853  0.00  0.00     0.000 A 
HETATM   27  C   UNK     0      10.997  18.295  15.602  0.00  0.00     0.003 A 
HETATM   28  C   UNK     0      11.869  16.776  17.373  0.00  0.00     0.215 C 
HETATM   29  O   UNK     0      13.039  17.208  17.224  0.00  0.00    -0.285 OA
ENDBRANCH   1  17
TORSDOF 5
ENDMDL
MODEL 3
REMARK VINA RESULT:      -9.0      1.127      2.298
REMARK  5 active torsions:
REMARK  status: ('A' for Active; 'I' for Inactive)
REMARK    1  A    between atoms: C_9  and  N_13 
REMARK       I    between atoms: N_13  and  C_14 
REMARK    2  A    between atoms: C_14  and  C_17 
REMARK    3  A    between atoms: C_17  and  N_18 
REMARK    4  A    between atoms: C_20  and  C_23 
REMARK    5  A    between atoms: C_23  and  C_24 
ROOT
HETATM    1  N   UNK     0      12.820  15.406  21.185  0.00  0.00    -0.205 NA
HETATM    2  C   UNK     0      13.556  16.128  22.079  0.00  0.00     0.281 C 
HETATM    3  O   UNK     0      13.949  15.502  23.090  0.00  0.00    -0.268 OA
ENDROOT
BRANCH   2   4
HETATM    4  C   UNK     0      13.966  17.550  21.948  0.00  0.00     0.219 C 
BRANCH   4   5
HETATM    5  N   UNK     0      15.382  17.668  21.775  0.00  0.00    -0.221 N 
HETATM    6  C   UNK     0      16.334  17.449  22.699  0.00  0.00     0.114 A 
HETATM    7  C   UNK     0      17.550  17.651  22.059  0.00  0.00     0.101 A 
HETATM    8  N   UNK     0      17.252  18.000  20.797  0.00  0.00    -0.133 NA
HETATM    9  N   UNK     0      15.962  17.995  20.661  0.00  0.00    -0.064 NA
BRANCH   7  10
HETATM   10  C   UNK     0      18.917  17.508  22.612  0.00  0.00     0.049 C 
BRANCH  10  11
HETATM   11  C   UNK     0      19.499  18.812  23.256  0.00  0.00     0.006 C 
HETATM   12  C   UNK     0      20.807  19.262  22.523  0.00  0.00     0.000 C 
HETATM   13  C   UNK     0      21.458  20.522  23.159  0.00  0.00     0.000 C 
HETATM   14  C   UNK     0      21.714  20.335  24.676  0.00  0.00     0.000 C 
HETATM   15  C   UNK     0      20.421  19.916  25.419  0.00  0.00     0.000 C 
HETATM   16  C   UNK     0      19.779  18.651  24.787  0.00  0.00     0.000 C 
ENDBRANCH  10  11
ENDBRANCH   7  10
ENDBRANCH   4   5
ENDBRANCH   2   4
BRANCH   1  17
HETATM   17  C   UNK     0      12.321  15.844  20.022  0.00  0.00     0.146 C 
HETATM   18  C   UNK     0      13.136  15.909  18.941  0.00  0.00     0.162 C 
HETATM   19  C   UNK     0      12.670  16.394  17.713  0.00  0.00     0.217 C 
HETATM   20  N   UNK     0      14.409  15.540  19.021  0.00  0.00    -0.143 N 
HETATM   21  C   UNK     0      11.382  17.000  17.629  0.00  0.00     0.044 A 
HETATM   22  O   UNK     0      13.392  16.307  16.689  0.00  0.00    -0.285 OA
HETATM   23  C   UNK     0      10.968  17.720  16.482  0.00  0.00     0.003 A 
HETATM   24  C   UNK     0      10.504  16.892  18.746  0.00  0.00     0.044 A 
HETATM   25  C   UNK     0       9.694  18.312  16.435  0.00  0.00     0.000 A 
HETATM   26  C   UNK     0       8.815  18.176  17.522  0.00  0.00     0.000 A 
HETATM   27  C   UNK     0       9.212  17.465  18.668  0.00  0.00     0.003 A 
HETATM   28  C   UNK     0      10.972  16.225  19.921  0.00  0.00     0.215 C 
HETATM   29  O   UNK     0      10.187  15.991  20.872  0.00  0.00    -0.285 OA
ENDBRANCH   1  17
TORSDOF 5
ENDMDL
MODEL 4
REMARK VINA RESULT:      -9.0     23.356     26.428
REMARK  5 active torsions:
REMARK  status: ('A' for Active; 'I' for Inactive)
REMARK    1  A    between atoms: C_9  and  N_13 
REMARK       I    between atoms: N_13  and  C_14 
REMARK    2  A    between atoms: C_14  and  C_17 
REMARK    3  A    between atoms: C_17  and  N_18 
REMARK    4  A    between atoms: C_20  and  C_23 
REMARK    5  A    between atoms: C_23  and  C_24 
ROOT
HETATM    1  N   UNK     0      21.124  19.616  -4.591  0.00  0.00    -0.205 NA
HETATM    2  C   UNK     0      20.301  20.522  -3.987  0.00  0.00     0.281 C 
HETATM    3  O   UNK     0      20.749  21.053  -2.946  0.00  0.00    -0.268 OA
ENDROOT
BRANCH   2   4
HETATM    4  C   UNK     0      18.965  20.962  -4.465  0.00  0.00     0.219 C 
BRANCH   4   5
HETATM    5  N   UNK     0      18.396  21.939  -3.587  0.00  0.00    -0.221 N 
HETATM    6  C   UNK     0      18.732  23.238  -3.489  0.00  0.00     0.114 A 
HETATM    7  C   UNK     0      17.886  23.786  -2.535  0.00  0.00     0.101 A 
HETATM    8  N   UNK     0      17.110  22.780  -2.103  0.00  0.00    -0.133 NA
HETATM    9  N   UNK     0      17.433  21.702  -2.749  0.00  0.00    -0.064 NA
BRANCH   7  10
HETATM   10  C   UNK     0      17.810  25.190  -2.069  0.00  0.00     0.049 C 
BRANCH  10  11
HETATM   11  C   UNK     0      16.370  25.677  -1.694  0.00  0.00     0.006 C 
HETATM   12  C   UNK     0      16.294  27.240  -1.676  0.00  0.00     0.000 C 
HETATM   13  C   UNK     0      14.898  27.778  -1.255  0.00  0.00     0.000 C 
HETATM   14  C   UNK     0      14.440  27.189   0.104  0.00  0.00     0.000 C 
HETATM   15  C   UNK     0      14.483  25.641   0.091  0.00  0.00     0.000 C 
HETATM   16  C   UNK     0      15.882  25.108  -0.321  0.00  0.00     0.000 C 
ENDBRANCH  10  11
ENDBRANCH   7  10
ENDBRANCH   4   5
ENDBRANCH   2   4
BRANCH   1  17
HETATM   17  C   UNK     0      20.882  18.946  -5.725  0.00  0.00     0.146 C 
HETATM   18  C   UNK     0      21.284  19.484  -6.903  0.00  0.00     0.162 C 
HETATM   19  C   UNK     0      21.020  18.839  -8.118  0.00  0.00     0.217 C 
HETATM   20  N   UNK     0      21.913  20.651  -6.943  0.00  0.00    -0.143 N 
HETATM   21  C   UNK     0      20.164  17.699  -8.148  0.00  0.00     0.044 A 
HETATM   22  O   UNK     0      21.528  19.273  -9.181  0.00  0.00    -0.285 OA
HETATM   23  C   UNK     0      19.673  17.164  -9.364  0.00  0.00     0.003 A 
HETATM   24  C   UNK     0      19.780  17.102  -6.913  0.00  0.00     0.044 A 
HETATM   25  C   UNK     0      18.825  16.044  -9.359  0.00  0.00     0.000 A 
HETATM   26  C   UNK     0      18.474  15.435  -8.142  0.00  0.00     0.000 A 
HETATM   27  C   UNK     0      18.953  15.953  -6.926  0.00  0.00     0.003 A 
HETATM   28  C   UNK     0      20.227  17.703  -5.695  0.00  0.00     0.215 C 
HETATM   29  O   UNK     0      20.024  17.134  -4.594  0.00  0.00    -0.285 OA
ENDBRANCH   1  17
TORSDOF 5
ENDMDL
MODEL 5
REMARK VINA RESULT:      -8.9     22.705     25.937
REMARK  5 active torsions:
REMARK  status: ('A' for Active; 'I' for Inactive)
REMARK    1  A    between atoms: C_9  and  N_13 
REMARK       I    between atoms: N_13  and  C_14 
REMARK    2  A    between atoms: C_14  and  C_17 
REMARK    3  A    between atoms: C_17  and  N_18 
REMARK    4  A    between atoms: C_20  and  C_23 
REMARK    5  A    between atoms: C_23  and  C_24 
ROOT
HETATM    1  N   UNK     0      20.005  20.297  -3.335  0.00  0.00    -0.205 NA
HETATM    2  C   UNK     0      18.997  21.150  -2.991  0.00  0.00     0.281 C 
HETATM    3  O   UNK     0      18.812  21.305  -1.762  0.00  0.00    -0.268 OA
ENDROOT
BRANCH   2   4
HETATM    4  C   UNK     0      18.142  21.933  -3.920  0.00  0.00     0.219 C 
BRANCH   4   5
HETATM    5  N   UNK     0      17.349  22.892  -3.212  0.00  0.00    -0.221 N 
HETATM    6  C   UNK     0      17.767  24.050  -2.669  0.00  0.00     0.114 A 
HETATM    7  C   UNK     0      16.640  24.652  -2.126  0.00  0.00     0.101 A 
HETATM    8  N   UNK     0      15.620  23.809  -2.356  0.00  0.00    -0.133 NA
HETATM    9  N   UNK     0      16.073  22.781  -3.005  0.00  0.00    -0.064 NA
BRANCH   7  10
HETATM   10  C   UNK     0      16.535  25.960  -1.438  0.00  0.00     0.049 C 
BRANCH  10  11
HETATM   11  C   UNK     0      15.120  26.273  -0.844  0.00  0.00     0.006 C 
HETATM   12  C   UNK     0      15.015  27.773  -0.412  0.00  0.00     0.000 C 
HETATM   13  C   UNK     0      13.647  28.126   0.238  0.00  0.00     0.000 C 
HETATM   14  C   UNK     0      13.315  27.187   1.425  0.00  0.00     0.000 C 
HETATM   15  C   UNK     0      13.388  25.697   1.004  0.00  0.00     0.000 C 
HETATM   16  C   UNK     0      14.759  25.348   0.365  0.00  0.00     0.000 C 
ENDBRANCH  10  11
ENDBRANCH   7  10
ENDBRANCH   4   5
ENDBRANCH   2   4
BRANCH   1  17
HETATM   17  C   UNK     0      20.410  19.997  -4.575  0.00  0.00     0.146 C 
HETATM   18  C   UNK     0      21.432  20.703  -5.120  0.00  0.00     0.162 C 
HETATM   19  C   UNK     0      21.867  20.452  -6.427  0.00  0.00     0.217 C 
HETATM   20  N   UNK     0      22.031  21.674  -4.442  0.00  0.00    -0.143 N 
HETATM   21  C   UNK     0      21.122  19.574  -7.269  0.00  0.00     0.044 A 
HETATM   22  O   UNK     0      22.906  21.008  -6.860  0.00  0.00    -0.285 OA
HETATM   23  C   UNK     0      21.376  19.478  -8.660  0.00  0.00     0.003 A 
HETATM   24  C   UNK     0      20.080  18.794  -6.690  0.00  0.00     0.044 A 
HETATM   25  C   UNK     0      20.619  18.609  -9.463  0.00  0.00     0.000 A 
HETATM   26  C   UNK     0      19.614  17.814  -8.885  0.00  0.00     0.000 A 
HETATM   27  C   UNK     0      19.350  17.898  -7.507  0.00  0.00     0.003 A 
HETATM   28  C   UNK     0      19.793  18.963  -5.300  0.00  0.00     0.215 C 
HETATM   29  O   UNK     0      18.978  18.202  -4.723  0.00  0.00    -0.285 OA
ENDBRANCH   1  17
TORSDOF 5
ENDMDL
MODEL 6
REMARK VINA RESULT:      -8.8      2.269      9.249
REMARK  5 active torsions:
REMARK  status: ('A' for Active; 'I' for Inactive)
REMARK    1  A    between atoms: C_9  and  N_13 
REMARK       I    between atoms: N_13  and  C_14 
REMARK    2  A    between atoms: C_14  and  C_17 
REMARK    3  A    between atoms: C_17  and  N_18 
REMARK    4  A    between atoms: C_20  and  C_23 
REMARK    5  A    between atoms: C_23  and  C_24 
ROOT
HETATM    1  N   UNK     0      15.145  14.592  22.001  0.00  0.00    -0.205 NA
HETATM    2  C   UNK     0      13.782  14.584  21.947  0.00  0.00     0.281 C 
HETATM    3  O   UNK     0      13.251  13.463  21.772  0.00  0.00    -0.268 OA
ENDROOT
BRANCH   2   4
HETATM    4  C   UNK     0      12.881  15.753  22.118  0.00  0.00     0.219 C 
BRANCH   4   5
HETATM    5  N   UNK     0      12.710  16.461  20.886  0.00  0.00    -0.221 N 
HETATM    6  C   UNK     0      12.507  15.932  19.666  0.00  0.00     0.114 A 
HETATM    7  C   UNK     0      12.364  17.005  18.797  0.00  0.00     0.101 A 
HETATM    8  N   UNK     0      12.511  18.111  19.543  0.00  0.00    -0.133 NA
HETATM    9  N   UNK     0      12.709  17.754  20.775  0.00  0.00    -0.064 NA
BRANCH   7  10
HETATM   10  C   UNK     0      12.090  16.981  17.341  0.00  0.00     0.049 C 
BRANCH  10  11
HETATM   11  C   UNK     0      10.733  17.641  16.922  0.00  0.00     0.006 C 
HETATM   12  C   UNK     0       9.540  16.649  17.128  0.00  0.00     0.000 C 
HETATM   13  C   UNK     0       8.174  17.235  16.674  0.00  0.00     0.000 C 
HETATM   14  C   UNK     0       8.223  17.741  15.210  0.00  0.00     0.000 C 
HETATM   15  C   UNK     0       9.382  18.746  14.997  0.00  0.00     0.000 C 
HETATM   16  C   UNK     0      10.746  18.152  15.443  0.00  0.00     0.000 C 
ENDBRANCH  10  11
ENDBRANCH   7  10
ENDBRANCH   4   5
ENDBRANCH   2   4
BRANCH   1  17
HETATM   17  C   UNK     0      15.931  15.655  22.211  0.00  0.00     0.146 C 
HETATM   18  C   UNK     0      16.329  16.397  21.147  0.00  0.00     0.162 C 
HETATM   19  C   UNK     0      17.181  17.496  21.312  0.00  0.00     0.217 C 
HETATM   20  N   UNK     0      15.947  16.086  19.915  0.00  0.00    -0.143 N 
HETATM   21  C   UNK     0      17.789  17.742  22.578  0.00  0.00     0.044 A 
HETATM   22  O   UNK     0      17.417  18.257  20.341  0.00  0.00    -0.285 OA
HETATM   23  C   UNK     0      18.838  18.682  22.733  0.00  0.00     0.003 A 
HETATM   24  C   UNK     0      17.339  16.999  23.707  0.00  0.00     0.044 A 
HETATM   25  C   UNK     0      19.421  18.896  23.994  0.00  0.00     0.000 A 
HETATM   26  C   UNK     0      18.953  18.188  25.113  0.00  0.00     0.000 A 
HETATM   27  C   UNK     0      17.914  17.251  24.975  0.00  0.00     0.003 A 
HETATM   28  C   UNK     0      16.332  16.003  23.512  0.00  0.00     0.215 C 
HETATM   29  O   UNK     0      15.814  15.423  24.497  0.00  0.00    -0.285 OA
ENDBRANCH   1  17
TORSDOF 5
ENDMDL
MODEL 7
REMARK VINA RESULT:      -8.8      2.355     10.040
REMARK  5 active torsions:
REMARK  status: ('A' for Active; 'I' for Inactive)
REMARK    1  A    between atoms: C_9  and  N_13 
REMARK       I    between atoms: N_13  and  C_14 
REMARK    2  A    between atoms: C_14  and  C_17 
REMARK    3  A    between atoms: C_17  and  N_18 
REMARK    4  A    between atoms: C_20  and  C_23 
REMARK    5  A    between atoms: C_23  and  C_24 
ROOT
HETATM    1  N   UNK     0      17.477  16.802  23.577  0.00  0.00    -0.205 NA
HETATM    2  C   UNK     0      16.346  16.708  22.818  0.00  0.00     0.281 C 
HETATM    3  O   UNK     0      15.288  16.480  23.447  0.00  0.00    -0.268 OA
ENDROOT
BRANCH   2   4
HETATM    4  C   UNK     0      16.247  16.895  21.348  0.00  0.00     0.219 C 
BRANCH   4   5
HETATM    5  N   UNK     0      14.905  17.201  20.953  0.00  0.00    -0.221 N 
HETATM    6  C   UNK     0      13.992  16.350  20.450  0.00  0.00     0.114 A 
HETATM    7  C   UNK     0      12.835  17.093  20.257  0.00  0.00     0.101 A 
HETATM    8  N   UNK     0      13.131  18.347  20.633  0.00  0.00    -0.133 NA
HETATM    9  N   UNK     0      14.362  18.376  21.045  0.00  0.00    -0.064 NA
BRANCH   7  10
HETATM   10  C   UNK     0      11.519  16.635  19.754  0.00  0.00     0.049 C 
BRANCH  10  11
HETATM   11  C   UNK     0      10.914  17.519  18.612  0.00  0.00     0.006 C 
HETATM   12  C   UNK     0       9.379  17.254  18.454  0.00  0.00     0.000 C 
HETATM   13  C   UNK     0       8.737  18.066  17.295  0.00  0.00     0.000 C 
HETATM   14  C   UNK     0       9.476  17.836  15.952  0.00  0.00     0.000 C 
HETATM   15  C   UNK     0      10.993  18.122  16.086  0.00  0.00     0.000 C 
HETATM   16  C   UNK     0      11.632  17.301  17.239  0.00  0.00     0.000 C 
ENDBRANCH  10  11
ENDBRANCH   7  10
ENDBRANCH   4   5
ENDBRANCH   2   4
BRANCH   1  17
HETATM   17  C   UNK     0      18.713  17.071  23.139  0.00  0.00     0.146 C 
HETATM   18  C   UNK     0      19.492  16.050  22.703  0.00  0.00     0.162 C 
HETATM   19  C   UNK     0      20.804  16.276  22.271  0.00  0.00     0.217 C 
HETATM   20  N   UNK     0      19.045  14.801  22.702  0.00  0.00    -0.143 N 
HETATM   21  C   UNK     0      21.403  17.558  22.454  0.00  0.00     0.044 A 
HETATM   22  O   UNK     0      21.457  15.348  21.733  0.00  0.00    -0.285 OA
HETATM   23  C   UNK     0      22.791  17.768  22.262  0.00  0.00     0.003 A 
HETATM   24  C   UNK     0      20.578  18.644  22.864  0.00  0.00     0.044 A 
HETATM   25  C   UNK     0      23.351  19.042  22.458  0.00  0.00     0.000 A 
HETATM   26  C   UNK     0      22.531  20.121  22.829  0.00  0.00     0.000 A 
HETATM   27  C   UNK     0      21.152  19.928  23.023  0.00  0.00     0.003 A 
HETATM   28  C   UNK     0      19.195  18.391  23.123  0.00  0.00     0.215 C 
HETATM   29  O   UNK     0      18.409  19.342  23.354  0.00  0.00    -0.285 OA
ENDBRANCH   1  17
TORSDOF 5
ENDMDL
MODEL 8
REMARK VINA RESULT:      -8.7      2.495      9.968
REMARK  5 active torsions:
REMARK  status: ('A' for Active; 'I' for Inactive)
REMARK    1  A    between atoms: C_9  and  N_13 
REMARK       I    between atoms: N_13  and  C_14 
REMARK    2  A    between atoms: C_14  and  C_17 
REMARK    3  A    between atoms: C_17  and  N_18 
REMARK    4  A    between atoms: C_20  and  C_23 
REMARK    5  A    between atoms: C_23  and  C_24 
ROOT
HETATM    1  N   UNK     0      18.322  16.769  20.845  0.00  0.00    -0.205 NA
HETATM    2  C   UNK     0      16.975  16.909  20.675  0.00  0.00     0.281 C 
HETATM    3  O   UNK     0      16.572  16.895  19.490  0.00  0.00    -0.268 OA
ENDROOT
BRANCH   2   4
HETATM    4  C   UNK     0      15.954  17.029  21.748  0.00  0.00     0.219 C 
BRANCH   4   5
HETATM    5  N   UNK     0      14.660  17.312  21.204  0.00  0.00    -0.221 N 
HETATM    6  C   UNK     0      13.773  16.426  20.715  0.00  0.00     0.114 A 
HETATM    7  C   UNK     0      12.657  17.163  20.340  0.00  0.00     0.101 A 
HETATM    8  N   UNK     0      12.951  18.445  20.604  0.00  0.00    -0.133 NA
HETATM    9  N   UNK     0      14.141  18.499  21.119  0.00  0.00    -0.064 NA
BRANCH   7  10
HETATM   10  C   UNK     0      11.379  16.673  19.774  0.00  0.00     0.049 C 
BRANCH  10  11
HETATM   11  C   UNK     0      10.811  17.541  18.600  0.00  0.00     0.006 C 
HETATM   12  C   UNK     0       9.276  17.296  18.415  0.00  0.00     0.000 C 
HETATM   13  C   UNK     0       8.671  18.092  17.225  0.00  0.00     0.000 C 
HETATM   14  C   UNK     0       9.435  17.822  15.904  0.00  0.00     0.000 C 
HETATM   15  C   UNK     0      10.953  18.088  16.065  0.00  0.00     0.000 C 
HETATM   16  C   UNK     0      11.554  17.283  17.248  0.00  0.00     0.000 C 
ENDBRANCH  10  11
ENDBRANCH   7  10
ENDBRANCH   4   5
ENDBRANCH   2   4
BRANCH   1  17
HETATM   17  C   UNK     0      18.980  16.720  22.010  0.00  0.00     0.146 C 
HETATM   18  C   UNK     0      19.120  15.525  22.635  0.00  0.00     0.162 C 
HETATM   19  C   UNK     0      19.768  15.430  23.873  0.00  0.00     0.217 C 
HETATM   20  N   UNK     0      18.620  14.415  22.108  0.00  0.00    -0.143 N 
HETATM   21  C   UNK     0      20.129  16.614  24.580  0.00  0.00     0.044 A 
HETATM   22  O   UNK     0      20.019  14.301  24.363  0.00  0.00    -0.285 OA
HETATM   23  C   UNK     0      20.559  16.576  25.930  0.00  0.00     0.003 A 
HETATM   24  C   UNK     0      20.030  17.866  23.909  0.00  0.00     0.044 A 
HETATM   25  C   UNK     0      20.901  17.763  26.601  0.00  0.00     0.000 A 
HETATM   26  C   UNK     0      20.836  18.994  25.928  0.00  0.00     0.000 A 
HETATM   27  C   UNK     0      20.412  19.048  24.589  0.00  0.00     0.003 A 
HETATM   28  C   UNK     0      19.524  17.887  22.573  0.00  0.00     0.215 C 
HETATM   29  O   UNK     0      19.548  18.948  21.901  0.00  0.00    -0.285 OA
ENDBRANCH   1  17
TORSDOF 5
ENDMDL
MODEL 9
REMARK VINA RESULT:      -8.7     22.856     26.030
REMARK  5 active torsions:
REMARK  status: ('A' for Active; 'I' for Inactive)
REMARK    1  A    between atoms: C_9  and  N_13 
REMARK       I    between atoms: N_13  and  C_14 
REMARK    2  A    between atoms: C_14  and  C_17 
REMARK    3  A    between atoms: C_17  and  N_18 
REMARK    4  A    between atoms: C_20  and  C_23 
REMARK    5  A    between atoms: C_23  and  C_24 
ROOT
HETATM    1  N   UNK     0      20.011  20.346  -3.502  0.00  0.00    -0.205 NA
HETATM    2  C   UNK     0      19.018  21.185  -3.088  0.00  0.00     0.281 C 
HETATM    3  O   UNK     0      18.861  21.270  -1.848  0.00  0.00    -0.268 OA
ENDROOT
BRANCH   2   4
HETATM    4  C   UNK     0      18.150  22.026  -3.952  0.00  0.00     0.219 C 
BRANCH   4   5
HETATM    5  N   UNK     0      17.369  22.938  -3.171  0.00  0.00    -0.221 N 
HETATM    6  C   UNK     0      17.791  24.071  -2.582  0.00  0.00     0.114 A 
HETATM    7  C   UNK     0      16.674  24.631  -1.975  0.00  0.00     0.101 A 
HETATM    8  N   UNK     0      15.657  23.789  -2.217  0.00  0.00    -0.133 NA
HETATM    9  N   UNK     0      16.101  22.801  -2.932  0.00  0.00    -0.064 NA
BRANCH   7  10
HETATM   10  C   UNK     0      16.577  25.900  -1.217  0.00  0.00     0.049 C 
BRANCH  10  11
HETATM   11  C   UNK     0      15.137  26.249  -0.712  0.00  0.00     0.006 C 
HETATM   12  C   UNK     0      15.027  27.766  -0.340  0.00  0.00     0.000 C 
HETATM   13  C   UNK     0      13.630  28.156   0.221  0.00  0.00     0.000 C 
HETATM   14  C   UNK     0      13.223  27.264   1.422  0.00  0.00     0.000 C 
HETATM   15  C   UNK     0      13.301  25.760   1.060  0.00  0.00     0.000 C 
HETATM   16  C   UNK     0      14.700  25.373   0.509  0.00  0.00     0.000 C 
ENDBRANCH  10  11
ENDBRANCH   7  10
ENDBRANCH   4   5
ENDBRANCH   2   4
BRANCH   1  17
HETATM   17  C   UNK     0      20.387  20.115  -4.766  0.00  0.00     0.146 C 
HETATM   18  C   UNK     0      19.894  19.028  -5.410  0.00  0.00     0.162 C 
HETATM   19  C   UNK     0      20.286  18.725  -6.719  0.00  0.00     0.217 C 
HETATM   20  N   UNK     0      19.046  18.203  -4.808  0.00  0.00    -0.143 N 
HETATM   21  C   UNK     0      21.350  19.452  -7.330  0.00  0.00     0.044 A 
HETATM   22  O   UNK     0      19.708  17.805  -7.350  0.00  0.00    -0.285 OA
HETATM   23  C   UNK     0      21.944  19.028  -8.545  0.00  0.00     0.003 A 
HETATM   24  C   UNK     0      21.838  20.621  -6.681  0.00  0.00     0.044 A 
HETATM   25  C   UNK     0      22.996  19.763  -9.117  0.00  0.00     0.000 A 
HETATM   26  C   UNK     0      23.454  20.936  -8.494  0.00  0.00     0.000 A 
HETATM   27  C   UNK     0      22.875  21.369  -7.288  0.00  0.00     0.003 A 
HETATM   28  C   UNK     0      21.274  20.988  -5.419  0.00  0.00     0.215 C 
HETATM   29  O   UNK     0      21.580  22.080  -4.881  0.00  0.00    -0.285 OA
ENDBRANCH   1  17
TORSDOF 5
ENDMDL
