MODEL 1
REMARK VINA RESULT:      -9.4      0.000      0.000
REMARK  4 active torsions:
REMARK  status: ('A' for Active; 'I' for Inactive)
REMARK    1  A    between atoms: C_9  and  N_13 
REMARK       I    between atoms: N_13  and  C_14 
REMARK    2  A    between atoms: C_14  and  C_17 
REMARK    3  A    between atoms: C_17  and  N_18 
REMARK    4  A    between atoms: C_20  and  C_23 
ROOT
HETATM    1  N   UNK     0      13.513  15.216  19.305  0.00  0.00    -0.205 NA
HETATM    2  C   UNK     0      14.474  15.588  20.203  0.00  0.00     0.281 C 
HETATM    3  O   UNK     0      15.467  14.829  20.284  0.00  0.00    -0.268 OA
ENDROOT
BRANCH   1   4
HETATM    4  C   UNK     0      12.392  15.885  19.012  0.00  0.00     0.146 C 
HETATM    5  C   UNK     0      11.287  15.694  19.773  0.00  0.00     0.162 C 
HETATM    6  C   UNK     0      10.072  16.309  19.446  0.00  0.00     0.217 C 
HETATM    7  N   UNK     0      11.314  14.891  20.830  0.00  0.00    -0.143 N 
HETATM    8  C   UNK     0       9.932  16.996  18.202  0.00  0.00     0.044 A 
HETATM    9  O   UNK     0       9.100  16.240  20.237  0.00  0.00    -0.285 OA
HETATM   10  C   UNK     0       8.672  17.399  17.703  0.00  0.00     0.003 A 
HETATM   11  C   UNK     0      11.102  17.252  17.433  0.00  0.00     0.044 A 
HETATM   12  C   UNK     0       8.571  18.048  16.459  0.00  0.00     0.000 A 
HETATM   13  C   UNK     0       9.728  18.326  15.715  0.00  0.00     0.000 A 
HETATM   14  C   UNK     0      10.988  17.939  16.201  0.00  0.00     0.003 A 
HETATM   15  C   UNK     0      12.355  16.770  17.921  0.00  0.00     0.215 C 
HETATM   16  O   UNK     0      13.427  17.122  17.368  0.00  0.00    -0.285 OA
ENDBRANCH   1   4
BRANCH   2  17
HETATM   17  C   UNK     0      14.477  16.805  21.055  0.00  0.00     0.219 C 
BRANCH  17  18
HETATM   18  N   UNK     0      15.797  17.319  21.249  0.00  0.00    -0.221 N 
HETATM   19  C   UNK     0      16.518  17.274  22.381  0.00  0.00     0.114 A 
HETATM   20  C   UNK     0      17.754  17.825  22.084  0.00  0.00     0.101 A 
HETATM   21  N   UNK     0      17.694  18.185  20.790  0.00  0.00    -0.133 NA
HETATM   22  N   UNK     0      16.522  17.876  20.327  0.00  0.00    -0.064 NA
BRANCH  20  23
HETATM   23  C   UNK     0      18.912  17.961  23.000  0.00  0.00     0.044 C 
HETATM   24  C   UNK     0      18.544  18.409  24.433  0.00  0.00     0.006 C 
HETATM   25  C   UNK     0      19.863  18.947  25.019  0.00  0.00     0.000 C 
HETATM   26  C   UNK     0      20.667  19.498  23.820  0.00  0.00     0.000 C 
HETATM   27  C   UNK     0      19.959  19.002  22.537  0.00  0.00     0.006 C 
ENDBRANCH  20  23
ENDBRANCH  17  18
ENDBRANCH   2  17
TORSDOF 4
ENDMDL
MODEL 2
REMARK VINA RESULT:      -9.0      1.927      8.735
REMARK  4 active torsions:
REMARK  status: ('A' for Active; 'I' for Inactive)
REMARK    1  A    between atoms: C_9  and  N_13 
REMARK       I    between atoms: N_13  and  C_14 
REMARK    2  A    between atoms: C_14  and  C_17 
REMARK    3  A    between atoms: C_17  and  N_18 
REMARK    4  A    between atoms: C_20  and  C_23 
ROOT
HETATM    1  N   UNK     0      14.716  15.012  21.242  0.00  0.00    -0.205 NA
HETATM    2  C   UNK     0      13.419  15.197  20.852  0.00  0.00     0.281 C 
HETATM    3  O   UNK     0      12.796  14.160  20.526  0.00  0.00    -0.268 OA
ENDROOT
BRANCH   1   4
HETATM    4  C   UNK     0      15.563  15.954  21.674  0.00  0.00     0.146 C 
HETATM    5  C   UNK     0      16.273  16.672  20.770  0.00  0.00     0.162 C 
HETATM    6  C   UNK     0      17.231  17.605  21.185  0.00  0.00     0.217 C 
HETATM    7  N   UNK     0      16.108  16.487  19.466  0.00  0.00    -0.143 N 
HETATM    8  C   UNK     0      17.606  17.680  22.560  0.00  0.00     0.044 A 
HETATM    9  O   UNK     0      17.775  18.363  20.344  0.00  0.00    -0.285 OA
HETATM   10  C   UNK     0      18.743  18.403  22.992  0.00  0.00     0.003 A 
HETATM   11  C   UNK     0      16.822  16.976  23.517  0.00  0.00     0.044 A 
HETATM   12  C   UNK     0      19.097  18.429  24.353  0.00  0.00     0.000 A 
HETATM   13  C   UNK     0      18.306  17.758  25.299  0.00  0.00     0.000 A 
HETATM   14  C   UNK     0      17.169  17.043  24.887  0.00  0.00     0.003 A 
HETATM   15  C   UNK     0      15.722  16.193  23.049  0.00  0.00     0.215 C 
HETATM   16  O   UNK     0      14.904  15.701  23.866  0.00  0.00    -0.285 OA
ENDBRANCH   1   4
BRANCH   2  17
HETATM   17  C   UNK     0      12.675  16.481  20.808  0.00  0.00     0.219 C 
BRANCH  17  18
HETATM   18  N   UNK     0      12.320  16.848  19.472  0.00  0.00    -0.221 N 
HETATM   19  C   UNK     0      11.120  17.280  19.051  0.00  0.00     0.114 A 
HETATM   20  C   UNK     0      11.260  17.582  17.706  0.00  0.00     0.101 A 
HETATM   21  N   UNK     0      12.536  17.296  17.395  0.00  0.00    -0.133 NA
HETATM   22  N   UNK     0      13.134  16.860  18.461  0.00  0.00    -0.064 NA
BRANCH  20  23
HETATM   23  C   UNK     0      10.221  18.136  16.804  0.00  0.00     0.044 C 
HETATM   24  C   UNK     0       9.027  17.188  16.545  0.00  0.00     0.006 C 
HETATM   25  C   UNK     0       8.375  17.731  15.261  0.00  0.00     0.000 C 
HETATM   26  C   UNK     0       9.516  18.381  14.447  0.00  0.00     0.000 C 
HETATM   27  C   UNK     0      10.739  18.484  15.388  0.00  0.00     0.006 C 
ENDBRANCH  20  23
ENDBRANCH  17  18
ENDBRANCH   2  17
TORSDOF 4
ENDMDL
MODEL 3
REMARK VINA RESULT:      -8.9      2.328      8.414
REMARK  4 active torsions:
REMARK  status: ('A' for Active; 'I' for Inactive)
REMARK    1  A    between atoms: C_9  and  N_13 
REMARK       I    between atoms: N_13  and  C_14 
REMARK    2  A    between atoms: C_14  and  C_17 
REMARK    3  A    between atoms: C_17  and  N_18 
REMARK    4  A    between atoms: C_20  and  C_23 
ROOT
HETATM    1  N   UNK     0      13.280  16.431  22.150  0.00  0.00    -0.205 NA
HETATM    2  C   UNK     0      12.291  16.094  21.268  0.00  0.00     0.281 C 
HETATM    3  O   UNK     0      11.140  16.490  21.564  0.00  0.00    -0.268 OA
ENDROOT
BRANCH   1   4
HETATM    4  C   UNK     0      14.584  16.161  22.028  0.00  0.00     0.146 C 
HETATM    5  C   UNK     0      15.054  14.958  22.440  0.00  0.00     0.162 C 
HETATM    6  C   UNK     0      16.425  14.672  22.410  0.00  0.00     0.217 C 
HETATM    7  N   UNK     0      14.235  14.031  22.919  0.00  0.00    -0.143 N 
HETATM    8  C   UNK     0      17.364  15.707  22.119  0.00  0.00     0.044 A 
HETATM    9  O   UNK     0      16.829  13.509  22.656  0.00  0.00    -0.285 OA
HETATM   10  C   UNK     0      18.753  15.545  22.335  0.00  0.00     0.003 A 
HETATM   11  C   UNK     0      16.874  16.949  21.626  0.00  0.00     0.044 A 
HETATM   12  C   UNK     0      19.644  16.599  22.064  0.00  0.00     0.000 A 
HETATM   13  C   UNK     0      19.163  17.814  21.550  0.00  0.00     0.000 A 
HETATM   14  C   UNK     0      17.788  17.987  21.323  0.00  0.00     0.003 A 
HETATM   15  C   UNK     0      15.462  17.116  21.487  0.00  0.00     0.215 C 
HETATM   16  O   UNK     0      15.000  18.122  20.895  0.00  0.00    -0.285 OA
ENDBRANCH   1   4
BRANCH   2  17
HETATM   17  C   UNK     0      12.447  15.345  19.995  0.00  0.00     0.219 C 
BRANCH  17  18
HETATM   18  N   UNK     0      12.214  16.176  18.854  0.00  0.00    -0.221 N 
HETATM   19  C   UNK     0      11.024  16.604  18.403  0.00  0.00     0.114 A 
HETATM   20  C   UNK     0      11.287  17.434  17.325  0.00  0.00     0.101 A 
HETATM   21  N   UNK     0      12.623  17.441  17.184  0.00  0.00    -0.133 NA
HETATM   22  N   UNK     0      13.141  16.683  18.100  0.00  0.00    -0.064 NA
BRANCH  20  23
HETATM   23  C   UNK     0      10.296  18.184  16.516  0.00  0.00     0.044 C 
HETATM   24  C   UNK     0       9.015  17.387  16.176  0.00  0.00     0.006 C 
HETATM   25  C   UNK     0       8.404  18.135  14.976  0.00  0.00     0.000 C 
HETATM   26  C   UNK     0       9.593  18.765  14.218  0.00  0.00     0.000 C 
HETATM   27  C   UNK     0      10.830  18.644  15.138  0.00  0.00     0.006 C 
ENDBRANCH  20  23
ENDBRANCH  17  18
ENDBRANCH   2  17
TORSDOF 4
ENDMDL
MODEL 4
REMARK VINA RESULT:      -8.8      2.216      8.400
REMARK  4 active torsions:
REMARK  status: ('A' for Active; 'I' for Inactive)
REMARK    1  A    between atoms: C_9  and  N_13 
REMARK       I    between atoms: N_13  and  C_14 
REMARK    2  A    between atoms: C_14  and  C_17 
REMARK    3  A    between atoms: C_17  and  N_18 
REMARK    4  A    between atoms: C_20  and  C_23 
ROOT
HETATM    1  N   UNK     0      14.500  14.573  21.235  0.00  0.00    -0.205 NA
HETATM    2  C   UNK     0      13.420  15.099  20.584  0.00  0.00     0.281 C 
HETATM    3  O   UNK     0      12.645  14.269  20.055  0.00  0.00    -0.268 OA
ENDROOT
BRANCH   1   4
HETATM    4  C   UNK     0      15.436  15.252  21.909  0.00  0.00     0.146 C 
HETATM    5  C   UNK     0      15.351  15.336  23.259  0.00  0.00     0.162 C 
HETATM    6  C   UNK     0      16.262  16.110  23.990  0.00  0.00     0.217 C 
HETATM    7  N   UNK     0      14.383  14.720  23.924  0.00  0.00    -0.143 N 
HETATM    8  C   UNK     0      17.178  16.967  23.310  0.00  0.00     0.044 A 
HETATM    9  O   UNK     0      16.260  16.062  25.245  0.00  0.00    -0.285 OA
HETATM   10  C   UNK     0      17.926  17.958  23.988  0.00  0.00     0.003 A 
HETATM   11  C   UNK     0      17.312  16.835  21.899  0.00  0.00     0.044 A 
HETATM   12  C   UNK     0      18.796  18.805  23.279  0.00  0.00     0.000 A 
HETATM   13  C   UNK     0      18.951  18.654  21.892  0.00  0.00     0.000 A 
HETATM   14  C   UNK     0      18.221  17.669  21.205  0.00  0.00     0.003 A 
HETATM   15  C   UNK     0      16.492  15.878  21.226  0.00  0.00     0.215 C 
HETATM   16  O   UNK     0      16.701  15.606  20.017  0.00  0.00    -0.285 OA
ENDBRANCH   1   4
BRANCH   2  17
HETATM   17  C   UNK     0      13.058  16.535  20.471  0.00  0.00     0.219 C 
BRANCH  17  18
HETATM   18  N   UNK     0      12.596  16.869  19.159  0.00  0.00    -0.221 N 
HETATM   19  C   UNK     0      11.383  17.344  18.833  0.00  0.00     0.114 A 
HETATM   20  C   UNK     0      11.410  17.588  17.469  0.00  0.00     0.101 A 
HETATM   21  N   UNK     0      12.636  17.227  17.055  0.00  0.00    -0.133 NA
HETATM   22  N   UNK     0      13.311  16.802  18.078  0.00  0.00    -0.064 NA
BRANCH  20  23
HETATM   23  C   UNK     0      10.316  18.159  16.646  0.00  0.00     0.044 C 
HETATM   24  C   UNK     0       9.203  17.152  16.274  0.00  0.00     0.006 C 
HETATM   25  C   UNK     0       8.492  17.792  15.068  0.00  0.00     0.000 C 
HETATM   26  C   UNK     0       9.565  18.630  14.337  0.00  0.00     0.000 C 
HETATM   27  C   UNK     0      10.786  18.719  15.281  0.00  0.00     0.006 C 
ENDBRANCH  20  23
ENDBRANCH  17  18
ENDBRANCH   2  17
TORSDOF 4
ENDMDL
MODEL 5
REMARK VINA RESULT:      -8.8      2.283      8.897
REMARK  4 active torsions:
REMARK  status: ('A' for Active; 'I' for Inactive)
REMARK    1  A    between atoms: C_9  and  N_13 
REMARK       I    between atoms: N_13  and  C_14 
REMARK    2  A    between atoms: C_14  and  C_17 
REMARK    3  A    between atoms: C_17  and  N_18 
REMARK    4  A    between atoms: C_20  and  C_23 
ROOT
HETATM    1  N   UNK     0      15.149  17.940  22.032  0.00  0.00    -0.205 NA
HETATM    2  C   UNK     0      14.095  17.681  21.201  0.00  0.00     0.281 C 
HETATM    3  O   UNK     0      13.246  18.596  21.097  0.00  0.00    -0.268 OA
ENDROOT
BRANCH   1   4
HETATM    4  C   UNK     0      16.195  17.140  22.269  0.00  0.00     0.146 C 
HETATM    5  C   UNK     0      16.047  16.082  23.102  0.00  0.00     0.162 C 
HETATM    6  C   UNK     0      17.139  15.274  23.442  0.00  0.00     0.217 C 
HETATM    7  N   UNK     0      14.871  15.802  23.650  0.00  0.00    -0.143 N 
HETATM    8  C   UNK     0      18.459  15.663  23.064  0.00  0.00     0.044 A 
HETATM    9  O   UNK     0      16.959  14.217  24.096  0.00  0.00    -0.285 OA
HETATM   10  C   UNK     0      19.610  15.040  23.601  0.00  0.00     0.003 A 
HETATM   11  C   UNK     0      18.613  16.734  22.139  0.00  0.00     0.044 A 
HETATM   12  C   UNK     0      20.896  15.471  23.226  0.00  0.00     0.000 A 
HETATM   13  C   UNK     0      21.046  16.507  22.291  0.00  0.00     0.000 A 
HETATM   14  C   UNK     0      19.913  17.131  21.743  0.00  0.00     0.003 A 
HETATM   15  C   UNK     0      17.439  17.397  21.667  0.00  0.00     0.215 C 
HETATM   16  O   UNK     0      17.516  18.224  20.724  0.00  0.00    -0.285 OA
ENDBRANCH   1   4
BRANCH   2  17
HETATM   17  C   UNK     0      13.875  16.454  20.394  0.00  0.00     0.219 C 
BRANCH  17  18
HETATM   18  N   UNK     0      13.208  16.737  19.161  0.00  0.00    -0.221 N 
HETATM   19  C   UNK     0      11.920  17.086  19.008  0.00  0.00     0.114 A 
HETATM   20  C   UNK     0      11.736  17.329  17.656  0.00  0.00     0.101 A 
HETATM   21  N   UNK     0      12.925  17.094  17.075  0.00  0.00    -0.133 NA
HETATM   22  N   UNK     0      13.772  16.741  17.992  0.00  0.00    -0.064 NA
BRANCH  20  23
HETATM   23  C   UNK     0      10.489  17.785  16.995  0.00  0.00     0.044 C 
HETATM   24  C   UNK     0       9.422  16.681  16.812  0.00  0.00     0.006 C 
HETATM   25  C   UNK     0       8.490  17.225  15.714  0.00  0.00     0.000 C 
HETATM   26  C   UNK     0       9.368  18.125  14.818  0.00  0.00     0.000 C 
HETATM   27  C   UNK     0      10.704  18.341  15.567  0.00  0.00     0.006 C 
ENDBRANCH  20  23
ENDBRANCH  17  18
ENDBRANCH   2  17
TORSDOF 4
ENDMDL
MODEL 6
REMARK VINA RESULT:      -8.8      2.579      8.233
REMARK  4 active torsions:
REMARK  status: ('A' for Active; 'I' for Inactive)
REMARK    1  A    between atoms: C_9  and  N_13 
REMARK       I    between atoms: N_13  and  C_14 
REMARK    2  A    between atoms: C_14  and  C_17 
REMARK    3  A    between atoms: C_17  and  N_18 
REMARK    4  A    between atoms: C_20  and  C_23 
ROOT
HETATM    1  N   UNK     0      12.296  14.881  21.526  0.00  0.00    -0.205 NA
HETATM    2  C   UNK     0      11.907  14.457  20.287  0.00  0.00     0.281 C 
HETATM    3  O   UNK     0      10.736  14.019  20.204  0.00  0.00    -0.268 OA
ENDROOT
BRANCH   1   4
HETATM    4  C   UNK     0      13.475  15.425  21.851  0.00  0.00     0.146 C 
HETATM    5  C   UNK     0      13.613  16.773  21.824  0.00  0.00     0.162 C 
HETATM    6  C   UNK     0      14.854  17.375  22.073  0.00  0.00     0.217 C 
HETATM    7  N   UNK     0      12.588  17.561  21.526  0.00  0.00    -0.143 N 
HETATM    8  C   UNK     0      16.029  16.571  22.176  0.00  0.00     0.044 A 
HETATM    9  O   UNK     0      14.935  18.622  22.188  0.00  0.00    -0.285 OA
HETATM   10  C   UNK     0      17.327  17.131  22.157  0.00  0.00     0.003 A 
HETATM   11  C   UNK     0      15.880  15.158  22.267  0.00  0.00     0.044 A 
HETATM   12  C   UNK     0      18.463  16.304  22.230  0.00  0.00     0.000 A 
HETATM   13  C   UNK     0      18.314  14.914  22.350  0.00  0.00     0.000 A 
HETATM   14  C   UNK     0      17.031  14.342  22.378  0.00  0.00     0.003 A 
HETATM   15  C   UNK     0      14.562  14.609  22.209  0.00  0.00     0.215 C 
HETATM   16  O   UNK     0      14.372  13.394  22.460  0.00  0.00    -0.285 OA
ENDBRANCH   1   4
BRANCH   2  17
HETATM   17  C   UNK     0      12.710  14.494  19.038  0.00  0.00     0.219 C 
BRANCH  17  18
HETATM   18  N   UNK     0      12.417  15.651  18.249  0.00  0.00    -0.221 N 
HETATM   19  C   UNK     0      11.216  16.011  17.769  0.00  0.00     0.114 A 
HETATM   20  C   UNK     0      11.397  17.227  17.129  0.00  0.00     0.101 A 
HETATM   21  N   UNK     0      12.703  17.516  17.250  0.00  0.00    -0.133 NA
HETATM   22  N   UNK     0      13.280  16.561  17.913  0.00  0.00    -0.064 NA
BRANCH  20  23
HETATM   23  C   UNK     0      10.353  18.052  16.474  0.00  0.00     0.044 C 
HETATM   24  C   UNK     0       9.065  17.280  16.106  0.00  0.00     0.006 C 
HETATM   25  C   UNK     0       8.379  18.158  15.043  0.00  0.00     0.000 C 
HETATM   26  C   UNK     0       9.517  18.899  14.306  0.00  0.00     0.000 C 
HETATM   27  C   UNK     0      10.804  18.689  15.137  0.00  0.00     0.006 C 
ENDBRANCH  20  23
ENDBRANCH  17  18
ENDBRANCH   2  17
TORSDOF 4
ENDMDL
MODEL 7
REMARK VINA RESULT:      -8.8     23.275     25.811
REMARK  4 active torsions:
REMARK  status: ('A' for Active; 'I' for Inactive)
REMARK    1  A    between atoms: C_9  and  N_13 
REMARK       I    between atoms: N_13  and  C_14 
REMARK    2  A    between atoms: C_14  and  C_17 
REMARK    3  A    between atoms: C_17  and  N_18 
REMARK    4  A    between atoms: C_20  and  C_23 
ROOT
HETATM    1  N   UNK     0      20.602  21.883  -5.236  0.00  0.00    -0.205 NA
HETATM    2  C   UNK     0      19.918  22.676  -4.357  0.00  0.00     0.281 C 
HETATM    3  O   UNK     0      19.681  23.842  -4.746  0.00  0.00    -0.268 OA
ENDROOT
BRANCH   1   4
HETATM    4  C   UNK     0      20.930  20.598  -5.064  0.00  0.00     0.146 C 
HETATM    5  C   UNK     0      22.161  20.284  -4.591  0.00  0.00     0.162 C 
HETATM    6  C   UNK     0      22.571  18.950  -4.480  0.00  0.00     0.217 C 
HETATM    7  N   UNK     0      23.026  21.232  -4.254  0.00  0.00    -0.143 N 
HETATM    8  C   UNK     0      21.770  17.908  -5.037  0.00  0.00     0.044 A 
HETATM    9  O   UNK     0      23.653  18.671  -3.908  0.00  0.00    -0.285 OA
HETATM   10  C   UNK     0      22.254  16.588  -5.193  0.00  0.00     0.003 A 
HETATM   11  C   UNK     0      20.454  18.225  -5.476  0.00  0.00     0.044 A 
HETATM   12  C   UNK     0      21.445  15.595  -5.774  0.00  0.00     0.000 A 
HETATM   13  C   UNK     0      20.136  15.902  -6.179  0.00  0.00     0.000 A 
HETATM   14  C   UNK     0      19.638  17.206  -6.024  0.00  0.00     0.003 A 
HETATM   15  C   UNK     0      20.013  19.580  -5.378  0.00  0.00     0.215 C 
HETATM   16  O   UNK     0      18.809  19.870  -5.588  0.00  0.00    -0.285 OA
ENDBRANCH   1   4
BRANCH   2  17
HETATM   17  C   UNK     0      19.403  22.287  -3.018  0.00  0.00     0.219 C 
BRANCH  17  18
HETATM   18  N   UNK     0      18.085  22.791  -2.785  0.00  0.00    -0.221 N 
HETATM   19  C   UNK     0      17.764  23.998  -2.293  0.00  0.00     0.114 A 
HETATM   20  C   UNK     0      16.380  24.074  -2.308  0.00  0.00     0.101 A 
HETATM   21  N   UNK     0      15.953  22.897  -2.794  0.00  0.00    -0.133 NA
HETATM   22  N   UNK     0      16.986  22.159  -3.062  0.00  0.00    -0.064 NA
BRANCH  20  23
HETATM   23  C   UNK     0      15.548  25.231  -1.900  0.00  0.00     0.044 C 
HETATM   24  C   UNK     0      16.343  26.532  -1.640  0.00  0.00     0.006 C 
HETATM   25  C   UNK     0      15.399  27.396  -0.784  0.00  0.00     0.000 C 
HETATM   26  C   UNK     0      14.532  26.407   0.025  0.00  0.00     0.000 C 
HETATM   27  C   UNK     0      14.760  25.004  -0.587  0.00  0.00     0.006 C 
ENDBRANCH  20  23
ENDBRANCH  17  18
ENDBRANCH   2  17
TORSDOF 4
ENDMDL
MODEL 8
REMARK VINA RESULT:      -8.7     21.755     24.587
REMARK  4 active torsions:
REMARK  status: ('A' for Active; 'I' for Inactive)
REMARK    1  A    between atoms: C_9  and  N_13 
REMARK       I    between atoms: N_13  and  C_14 
REMARK    2  A    between atoms: C_14  and  C_17 
REMARK    3  A    between atoms: C_17  and  N_18 
REMARK    4  A    between atoms: C_20  and  C_23 
ROOT
HETATM    1  N   UNK     0      18.332  25.561  -1.810  0.00  0.00    -0.205 NA
HETATM    2  C   UNK     0      18.563  24.511  -2.654  0.00  0.00     0.281 C 
HETATM    3  O   UNK     0      19.763  24.184  -2.801  0.00  0.00    -0.268 OA
ENDROOT
BRANCH   1   4
HETATM    4  C   UNK     0      17.139  26.059  -1.463  0.00  0.00     0.146 C 
HETATM    5  C   UNK     0      16.823  27.329  -1.817  0.00  0.00     0.162 C 
HETATM    6  C   UNK     0      15.621  27.915  -1.398  0.00  0.00     0.217 C 
HETATM    7  N   UNK     0      17.656  28.067  -2.539  0.00  0.00    -0.143 N 
HETATM    8  C   UNK     0      14.799  27.249  -0.439  0.00  0.00     0.044 A 
HETATM    9  O   UNK     0      15.277  29.034  -1.851  0.00  0.00    -0.285 OA
HETATM   10  C   UNK     0      13.728  27.901   0.215  0.00  0.00     0.003 A 
HETATM   11  C   UNK     0      15.094  25.895  -0.115  0.00  0.00     0.044 A 
HETATM   12  C   UNK     0      12.958  27.221   1.176  0.00  0.00     0.000 A 
HETATM   13  C   UNK     0      13.232  25.876   1.473  0.00  0.00     0.000 A 
HETATM   14  C   UNK     0      14.287  25.213   0.826  0.00  0.00     0.003 A 
HETATM   15  C   UNK     0      16.226  25.280  -0.733  0.00  0.00     0.215 C 
HETATM   16  O   UNK     0      16.419  24.045  -0.612  0.00  0.00    -0.285 OA
ENDBRANCH   1   4
BRANCH   2  17
HETATM   17  C   UNK     0      17.546  23.706  -3.377  0.00  0.00     0.219 C 
BRANCH  17  18
HETATM   18  N   UNK     0      17.938  22.336  -3.503  0.00  0.00    -0.221 N 
HETATM   19  C   UNK     0      18.736  21.814  -4.448  0.00  0.00     0.114 A 
HETATM   20  C   UNK     0      18.894  20.474  -4.133  0.00  0.00     0.101 A 
HETATM   21  N   UNK     0      18.165  20.268  -3.024  0.00  0.00    -0.133 NA
HETATM   22  N   UNK     0      17.608  21.388  -2.680  0.00  0.00    -0.064 NA
BRANCH  20  23
HETATM   23  C   UNK     0      19.724  19.481  -4.858  0.00  0.00     0.044 C 
HETATM   24  C   UNK     0      19.627  19.569  -6.399  0.00  0.00     0.006 C 
HETATM   25  C   UNK     0      20.132  18.202  -6.896  0.00  0.00     0.000 C 
HETATM   26  C   UNK     0      19.779  17.189  -5.785  0.00  0.00     0.000 C 
HETATM   27  C   UNK     0      19.361  18.010  -4.542  0.00  0.00     0.006 C 
ENDBRANCH  20  23
ENDBRANCH  17  18
ENDBRANCH   2  17
TORSDOF 4
ENDMDL
MODEL 9
REMARK VINA RESULT:      -8.7      1.207      2.437
REMARK  4 active torsions:
REMARK  status: ('A' for Active; 'I' for Inactive)
REMARK    1  A    between atoms: C_9  and  N_13 
REMARK       I    between atoms: N_13  and  C_14 
REMARK    2  A    between atoms: C_14  and  C_17 
REMARK    3  A    between atoms: C_17  and  N_18 
REMARK    4  A    between atoms: C_20  and  C_23 
ROOT
HETATM    1  N   UNK     0      12.569  15.173  21.028  0.00  0.00    -0.205 NA
HETATM    2  C   UNK     0      13.233  15.888  21.985  0.00  0.00     0.281 C 
HETATM    3  O   UNK     0      13.632  15.234  22.975  0.00  0.00    -0.268 OA
ENDROOT
BRANCH   1   4
HETATM    4  C   UNK     0      12.091  15.640  19.869  0.00  0.00     0.146 C 
HETATM    5  C   UNK     0      12.939  15.829  18.829  0.00  0.00     0.162 C 
HETATM    6  C   UNK     0      12.492  16.397  17.629  0.00  0.00     0.217 C 
HETATM    7  N   UNK     0      14.225  15.515  18.928  0.00  0.00    -0.143 N 
HETATM    8  C   UNK     0      11.181  16.956  17.549  0.00  0.00     0.044 A 
HETATM    9  O   UNK     0      13.251  16.432  16.629  0.00  0.00    -0.285 OA
HETATM   10  C   UNK     0      10.775  17.771  16.467  0.00  0.00     0.003 A 
HETATM   11  C   UNK     0      10.269  16.704  18.613  0.00  0.00     0.044 A 
HETATM   12  C   UNK     0       9.484  18.329  16.438  0.00  0.00     0.000 A 
HETATM   13  C   UNK     0       8.576  18.056  17.473  0.00  0.00     0.000 A 
HETATM   14  C   UNK     0       8.961  17.241  18.551  0.00  0.00     0.003 A 
HETATM   15  C   UNK     0      10.725  15.940  19.731  0.00  0.00     0.215 C 
HETATM   16  O   UNK     0       9.910  15.549  20.603  0.00  0.00    -0.285 OA
ENDBRANCH   1   4
BRANCH   2  17
HETATM   17  C   UNK     0      13.555  17.338  21.953  0.00  0.00     0.219 C 
BRANCH  17  18
HETATM   18  N   UNK     0      14.954  17.571  21.773  0.00  0.00    -0.221 N 
HETATM   19  C   UNK     0      15.911  17.475  22.711  0.00  0.00     0.114 A 
HETATM   20  C   UNK     0      17.115  17.718  22.071  0.00  0.00     0.101 A 
HETATM   21  N   UNK     0      16.807  17.962  20.786  0.00  0.00    -0.133 NA
HETATM   22  N   UNK     0      15.521  17.872  20.644  0.00  0.00    -0.064 NA
BRANCH  20  23
HETATM   23  C   UNK     0      18.468  17.683  22.677  0.00  0.00     0.044 C 
HETATM   24  C   UNK     0      19.140  19.068  22.822  0.00  0.00     0.006 C 
HETATM   25  C   UNK     0      20.639  18.755  22.983  0.00  0.00     0.000 C 
HETATM   26  C   UNK     0      20.884  17.441  22.208  0.00  0.00     0.000 C 
HETATM   27  C   UNK     0      19.495  16.850  21.873  0.00  0.00     0.006 C 
ENDBRANCH  20  23
ENDBRANCH  17  18
ENDBRANCH   2  17
TORSDOF 4
ENDMDL
