MODEL 1
REMARK VINA RESULT:      -8.5      0.000      0.000
REMARK  5 active torsions:
REMARK  status: ('A' for Active; 'I' for Inactive)
REMARK    1  A    between atoms: C_9  and  N_13 
REMARK       I    between atoms: N_13  and  C_14 
REMARK    2  A    between atoms: C_14  and  C_17 
REMARK    3  A    between atoms: C_17  and  N_18 
REMARK    4  A    between atoms: C_20  and  C_23 
REMARK    5  A    between atoms: C_23  and  C_24 
ROOT
HETATM    1  C   UNK     0      11.007  17.938  16.226  0.00  0.00     0.003 A 
HETATM    2  C   UNK     0       9.749  18.349  15.753  0.00  0.00     0.000 A 
HETATM    3  C   UNK     0       8.590  18.072  16.496  0.00  0.00     0.000 A 
HETATM    4  C   UNK     0       8.687  17.398  17.726  0.00  0.00     0.003 A 
HETATM    5  C   UNK     0       9.946  16.977  18.215  0.00  0.00     0.044 A 
HETATM    6  C   UNK     0      11.119  17.228  17.445  0.00  0.00     0.044 A 
HETATM    7  C   UNK     0      10.080  16.285  19.455  0.00  0.00     0.217 C 
HETATM    8  C   UNK     0      11.294  15.673  19.786  0.00  0.00     0.162 C 
HETATM    9  C   UNK     0      12.405  15.868  19.033  0.00  0.00     0.146 C 
HETATM   10  C   UNK     0      12.370  16.729  17.924  0.00  0.00     0.215 C 
HETATM   11  O   UNK     0      13.440  17.041  17.347  0.00  0.00    -0.285 OA
HETATM   12  O   UNK     0       9.105  16.213  20.244  0.00  0.00    -0.285 OA
HETATM   13  N   UNK     0      11.318  14.871  20.845  0.00  0.00    -0.143 N 
ENDROOT
BRANCH   9  14
HETATM   14  N   UNK     0      13.536  15.234  19.368  0.00  0.00    -0.205 NA
HETATM   15  C   UNK     0      14.473  15.657  20.266  0.00  0.00     0.281 C 
HETATM   16  O   UNK     0      15.474  14.916  20.397  0.00  0.00    -0.268 OA
BRANCH  15  17
HETATM   17  C   UNK     0      14.439  16.915  21.056  0.00  0.00     0.219 C 
BRANCH  17  18
HETATM   18  N   UNK     0      15.760  17.410  21.302  0.00  0.00    -0.221 N 
HETATM   19  C   UNK     0      16.381  17.513  22.491  0.00  0.00     0.114 A 
HETATM   20  C   UNK     0      17.650  18.009  22.223  0.00  0.00     0.102 A 
HETATM   21  N   UNK     0      17.703  18.197  20.895  0.00  0.00    -0.133 NA
HETATM   22  N   UNK     0      16.572  17.827  20.379  0.00  0.00    -0.064 NA
BRANCH  20  23
HETATM   23  C   UNK     0      18.753  18.280  23.174  0.00  0.00     0.062 C 
BRANCH  23  24
HETATM   24  C   UNK     0      19.864  19.226  22.682  0.00  0.00     0.074 C 
HETATM   25 Br   UNK     0      21.176  18.648  22.121  0.00  0.00    -0.081 Br
ENDBRANCH  23  24
ENDBRANCH  20  23
ENDBRANCH  17  18
ENDBRANCH  15  17
ENDBRANCH   9  14
TORSDOF 5
ENDMDL
MODEL 2
REMARK VINA RESULT:      -8.1      1.136      1.288
REMARK  5 active torsions:
REMARK  status: ('A' for Active; 'I' for Inactive)
REMARK    1  A    between atoms: C_9  and  N_13 
REMARK       I    between atoms: N_13  and  C_14 
REMARK    2  A    between atoms: C_14  and  C_17 
REMARK    3  A    between atoms: C_17  and  N_18 
REMARK    4  A    between atoms: C_20  and  C_23 
REMARK    5  A    between atoms: C_23  and  C_24 
ROOT
HETATM    1  C   UNK     0      11.831  17.349  17.239  0.00  0.00     0.003 A 
HETATM    2  C   UNK     0      10.650  17.774  16.604  0.00  0.00     0.000 A 
HETATM    3  C   UNK     0       9.413  17.648  17.257  0.00  0.00     0.000 A 
HETATM    4  C   UNK     0       9.353  17.113  18.555  0.00  0.00     0.003 A 
HETATM    5  C   UNK     0      10.532  16.680  19.207  0.00  0.00     0.044 A 
HETATM    6  C   UNK     0      11.784  16.776  18.532  0.00  0.00     0.044 A 
HETATM    7  C   UNK     0      10.507  16.125  20.521  0.00  0.00     0.217 C 
HETATM    8  C   UNK     0      11.643  15.488  21.032  0.00  0.00     0.162 C 
HETATM    9  C   UNK     0      12.828  15.533  20.374  0.00  0.00     0.146 C 
HETATM   10  C   UNK     0      12.951  16.264  19.181  0.00  0.00     0.215 C 
HETATM   11  O   UNK     0      14.087  16.449  18.680  0.00  0.00    -0.285 OA
HETATM   12  O   UNK     0       9.462  16.198  21.214  0.00  0.00    -0.285 OA
HETATM   13  N   UNK     0      11.518  14.810  22.168  0.00  0.00    -0.143 N 
ENDROOT
BRANCH   9  14
HETATM   14  N   UNK     0      13.879  14.879  20.883  0.00  0.00    -0.205 NA
HETATM   15  C   UNK     0      14.839  15.392  21.707  0.00  0.00     0.281 C 
HETATM   16  O   UNK     0      15.753  14.602  22.034  0.00  0.00    -0.268 OA
BRANCH  15  17
HETATM   17  C   UNK     0      14.923  16.789  22.206  0.00  0.00     0.219 C 
BRANCH  17  18
HETATM   18  N   UNK     0      16.170  17.394  21.847  0.00  0.00    -0.221 N 
HETATM   19  C   UNK     0      17.201  17.679  22.663  0.00  0.00     0.114 A 
HETATM   20  C   UNK     0      18.194  18.221  21.858  0.00  0.00     0.102 A 
HETATM   21  N   UNK     0      17.689  18.252  20.615  0.00  0.00    -0.133 NA
HETATM   22  N   UNK     0      16.493  17.751  20.641  0.00  0.00    -0.064 NA
BRANCH  20  23
HETATM   23  C   UNK     0      19.550  18.674  22.247  0.00  0.00     0.062 C 
BRANCH  23  24
HETATM   24  C   UNK     0      19.756  19.015  23.735  0.00  0.00     0.074 C 
HETATM   25 Br   UNK     0      21.162  19.357  24.259  0.00  0.00    -0.081 Br
ENDBRANCH  23  24
ENDBRANCH  20  23
ENDBRANCH  17  18
ENDBRANCH  15  17
ENDBRANCH   9  14
TORSDOF 5
ENDMDL
MODEL 3
REMARK VINA RESULT:      -8.0     24.197     26.435
REMARK  5 active torsions:
REMARK  status: ('A' for Active; 'I' for Inactive)
REMARK    1  A    between atoms: C_9  and  N_13 
REMARK       I    between atoms: N_13  and  C_14 
REMARK    2  A    between atoms: C_14  and  C_17 
REMARK    3  A    between atoms: C_17  and  N_18 
REMARK    4  A    between atoms: C_20  and  C_23 
REMARK    5  A    between atoms: C_23  and  C_24 
ROOT
HETATM    1  C   UNK     0      18.922  15.928  -6.742  0.00  0.00     0.003 A 
HETATM    2  C   UNK     0      18.454  15.353  -7.937  0.00  0.00     0.000 A 
HETATM    3  C   UNK     0      18.845  15.886  -9.177  0.00  0.00     0.000 A 
HETATM    4  C   UNK     0      19.719  16.985  -9.227  0.00  0.00     0.003 A 
HETATM    5  C   UNK     0      20.197  17.575  -8.032  0.00  0.00     0.044 A 
HETATM    6  C   UNK     0      19.774  17.056  -6.773  0.00  0.00     0.044 A 
HETATM    7  C   UNK     0      21.079  18.696  -8.046  0.00  0.00     0.217 C 
HETATM    8  C   UNK     0      21.333  19.400  -6.864  0.00  0.00     0.162 C 
HETATM    9  C   UNK     0      20.894  18.939  -5.666  0.00  0.00     0.146 C 
HETATM   10  C   UNK     0      20.211  17.715  -5.583  0.00  0.00     0.215 C 
HETATM   11  O   UNK     0      19.972  17.213  -4.457  0.00  0.00    -0.285 OA
HETATM   12  O   UNK     0      21.618  19.059  -9.121  0.00  0.00    -0.285 OA
HETATM   13  N   UNK     0      21.991  20.551  -6.954  0.00  0.00    -0.143 N 
ENDROOT
BRANCH   9  14
HETATM   14  N   UNK     0      21.130  19.665  -4.566  0.00  0.00    -0.205 NA
HETATM   15  C   UNK     0      20.359  20.680  -4.078  0.00  0.00     0.281 C 
HETATM   16  O   UNK     0      20.793  21.244  -3.048  0.00  0.00    -0.268 OA
BRANCH  15  17
HETATM   17  C   UNK     0      19.099  21.199  -4.670  0.00  0.00     0.219 C 
BRANCH  17  18
HETATM   18  N   UNK     0      18.386  22.019  -3.737  0.00  0.00    -0.221 N 
HETATM   19  C   UNK     0      18.469  23.354  -3.598  0.00  0.00     0.114 A 
HETATM   20  C   UNK     0      17.569  23.696  -2.598  0.00  0.00     0.102 A 
HETATM   21  N   UNK     0      17.021  22.545  -2.181  0.00  0.00    -0.133 NA
HETATM   22  N   UNK     0      17.521  21.572  -2.878  0.00  0.00    -0.064 NA
BRANCH  20  23
HETATM   23  C   UNK     0      17.242  25.044  -2.075  0.00  0.00     0.062 C 
BRANCH  23  24
HETATM   24  C   UNK     0      15.751  25.332  -1.815  0.00  0.00     0.074 C 
HETATM   25 Br   UNK     0      15.193  25.269  -0.382  0.00  0.00    -0.081 Br
ENDBRANCH  23  24
ENDBRANCH  20  23
ENDBRANCH  17  18
ENDBRANCH  15  17
ENDBRANCH   9  14
TORSDOF 5
ENDMDL
MODEL 4
REMARK VINA RESULT:      -7.9      3.714      7.398
REMARK  5 active torsions:
REMARK  status: ('A' for Active; 'I' for Inactive)
REMARK    1  A    between atoms: C_9  and  N_13 
REMARK       I    between atoms: N_13  and  C_14 
REMARK    2  A    between atoms: C_14  and  C_17 
REMARK    3  A    between atoms: C_17  and  N_18 
REMARK    4  A    between atoms: C_20  and  C_23 
REMARK    5  A    between atoms: C_23  and  C_24 
ROOT
HETATM    1  C   UNK     0      16.996  14.732  22.500  0.00  0.00     0.003 A 
HETATM    2  C   UNK     0      18.196  15.464  22.534  0.00  0.00     0.000 A 
HETATM    3  C   UNK     0      18.177  16.857  22.358  0.00  0.00     0.000 A 
HETATM    4  C   UNK     0      16.957  17.526  22.166  0.00  0.00     0.003 A 
HETATM    5  C   UNK     0      15.740  16.803  22.129  0.00  0.00     0.044 A 
HETATM    6  C   UNK     0      15.761  15.385  22.274  0.00  0.00     0.044 A 
HETATM    7  C   UNK     0      14.485  17.449  21.929  0.00  0.00     0.217 C 
HETATM    8  C   UNK     0      13.343  16.688  21.655  0.00  0.00     0.162 C 
HETATM    9  C   UNK     0      13.365  15.335  21.744  0.00  0.00     0.146 C 
HETATM   10  C   UNK     0      14.530  14.669  22.159  0.00  0.00     0.215 C 
HETATM   11  O   UNK     0      14.485  13.440  22.412  0.00  0.00    -0.285 OA
HETATM   12  O   UNK     0      14.405  18.702  21.987  0.00  0.00    -0.285 OA
HETATM   13  N   UNK     0      12.244  17.330  21.275  0.00  0.00    -0.143 N 
ENDROOT
BRANCH   9  14
HETATM   14  N   UNK     0      12.259  14.646  21.437  0.00  0.00    -0.205 NA
HETATM   15  C   UNK     0      11.928  14.137  20.215  0.00  0.00     0.281 C 
HETATM   16  O   UNK     0      10.821  13.554  20.151  0.00  0.00    -0.268 OA
BRANCH  15  17
HETATM   17  C   UNK     0      12.722  14.246  18.965  0.00  0.00     0.219 C 
BRANCH  17  18
HETATM   18  N   UNK     0      12.445  15.471  18.278  0.00  0.00    -0.221 N 
HETATM   19  C   UNK     0      11.238  15.950  17.924  0.00  0.00     0.114 A 
HETATM   20  C   UNK     0      11.471  17.178  17.318  0.00  0.00     0.102 A 
HETATM   21  N   UNK     0      12.803  17.348  17.323  0.00  0.00    -0.133 NA
HETATM   22  N   UNK     0      13.349  16.324  17.902  0.00  0.00    -0.064 NA
BRANCH  20  23
HETATM   23  C   UNK     0      10.483  18.139  16.776  0.00  0.00     0.062 C 
BRANCH  23  24
HETATM   24  C   UNK     0      10.721  18.623  15.333  0.00  0.00     0.074 C 
HETATM   25 Br   UNK     0       9.539  18.738  14.354  0.00  0.00    -0.081 Br
ENDBRANCH  23  24
ENDBRANCH  20  23
ENDBRANCH  17  18
ENDBRANCH  15  17
ENDBRANCH   9  14
TORSDOF 5
ENDMDL
MODEL 5
REMARK VINA RESULT:      -7.9      1.096      2.368
REMARK  5 active torsions:
REMARK  status: ('A' for Active; 'I' for Inactive)
REMARK    1  A    between atoms: C_9  and  N_13 
REMARK       I    between atoms: N_13  and  C_14 
REMARK    2  A    between atoms: C_14  and  C_17 
REMARK    3  A    between atoms: C_17  and  N_18 
REMARK    4  A    between atoms: C_20  and  C_23 
REMARK    5  A    between atoms: C_23  and  C_24 
ROOT
HETATM    1  C   UNK     0       9.037  17.237  18.748  0.00  0.00     0.003 A 
HETATM    2  C   UNK     0       8.594  17.988  17.645  0.00  0.00     0.000 A 
HETATM    3  C   UNK     0       9.455  18.226  16.561  0.00  0.00     0.000 A 
HETATM    4  C   UNK     0      10.758  17.700  16.568  0.00  0.00     0.003 A 
HETATM    5  C   UNK     0      11.219  16.943  17.672  0.00  0.00     0.044 A 
HETATM    6  C   UNK     0      10.357  16.729  18.787  0.00  0.00     0.044 A 
HETATM    7  C   UNK     0      12.538  16.401  17.716  0.00  0.00     0.217 C 
HETATM    8  C   UNK     0      13.038  15.875  18.912  0.00  0.00     0.162 C 
HETATM    9  C   UNK     0      12.237  15.711  19.994  0.00  0.00     0.146 C 
HETATM   10  C   UNK     0      10.870  16.026  19.921  0.00  0.00     0.215 C 
HETATM   11  O   UNK     0      10.107  15.701  20.863  0.00  0.00    -0.285 OA
HETATM   12  O   UNK     0      13.255  16.406  16.684  0.00  0.00    -0.285 OA
HETATM   13  N   UNK     0      14.329  15.570  18.966  0.00  0.00    -0.143 N 
ENDROOT
BRANCH   9  14
HETATM   14  N   UNK     0      12.767  15.238  21.128  0.00  0.00    -0.205 NA
HETATM   15  C   UNK     0      13.484  15.944  22.051  0.00  0.00     0.281 C 
HETATM   16  O   UNK     0      13.915  15.285  23.025  0.00  0.00    -0.268 OA
BRANCH  15  17
HETATM   17  C   UNK     0      13.833  17.387  21.986  0.00  0.00     0.219 C 
BRANCH  17  18
HETATM   18  N   UNK     0      15.233  17.573  21.753  0.00  0.00    -0.221 N 
HETATM   19  C   UNK     0      16.229  17.466  22.652  0.00  0.00     0.114 A 
HETATM   20  C   UNK     0      17.407  17.696  21.954  0.00  0.00     0.102 A 
HETATM   21  N   UNK     0      17.045  17.952  20.687  0.00  0.00    -0.133 NA
HETATM   22  N   UNK     0      15.754  17.865  20.600  0.00  0.00    -0.064 NA
BRANCH  20  23
HETATM   23  C   UNK     0      18.799  17.665  22.461  0.00  0.00     0.062 C 
BRANCH  23  24
HETATM   24  C   UNK     0      19.260  18.893  23.268  0.00  0.00     0.074 C 
HETATM   25 Br   UNK     0      20.627  19.539  22.974  0.00  0.00    -0.081 Br
ENDBRANCH  23  24
ENDBRANCH  20  23
ENDBRANCH  17  18
ENDBRANCH  15  17
ENDBRANCH   9  14
TORSDOF 5
ENDMDL
MODEL 6
REMARK VINA RESULT:      -7.8     24.361     26.532
REMARK  5 active torsions:
REMARK  status: ('A' for Active; 'I' for Inactive)
REMARK    1  A    between atoms: C_9  and  N_13 
REMARK       I    between atoms: N_13  and  C_14 
REMARK    2  A    between atoms: C_14  and  C_17 
REMARK    3  A    between atoms: C_17  and  N_18 
REMARK    4  A    between atoms: C_20  and  C_23 
REMARK    5  A    between atoms: C_23  and  C_24 
ROOT
HETATM    1  C   UNK     0      21.644  18.501  -9.280  0.00  0.00     0.003 A 
HETATM    2  C   UNK     0      21.455  17.504 -10.253  0.00  0.00     0.000 A 
HETATM    3  C   UNK     0      20.618  16.408  -9.987  0.00  0.00     0.000 A 
HETATM    4  C   UNK     0      19.952  16.314  -8.754  0.00  0.00     0.003 A 
HETATM    5  C   UNK     0      20.132  17.309  -7.764  0.00  0.00     0.044 A 
HETATM    6  C   UNK     0      21.008  18.405  -8.019  0.00  0.00     0.044 A 
HETATM    7  C   UNK     0      19.478  17.241  -6.498  0.00  0.00     0.217 C 
HETATM    8  C   UNK     0      19.865  18.101  -5.464  0.00  0.00     0.162 C 
HETATM    9  C   UNK     0      20.734  19.117  -5.687  0.00  0.00     0.146 C 
HETATM   10  C   UNK     0      21.231  19.358  -6.978  0.00  0.00     0.215 C 
HETATM   11  O   UNK     0      21.887  20.404  -7.206  0.00  0.00    -0.285 OA
HETATM   12  O   UNK     0      18.562  16.402  -6.308  0.00  0.00    -0.285 OA
HETATM   13  N   UNK     0      19.378  17.871  -4.250  0.00  0.00    -0.143 N 
ENDROOT
BRANCH   9  14
HETATM   14  N   UNK     0      21.103  19.892  -4.659  0.00  0.00    -0.205 NA
HETATM   15  C   UNK     0      20.508  21.054  -4.258  0.00  0.00     0.281 C 
HETATM   16  O   UNK     0      21.047  21.633  -3.288  0.00  0.00    -0.268 OA
BRANCH  15  17
HETATM   17  C   UNK     0      19.329  21.706  -4.883  0.00  0.00     0.219 C 
BRANCH  17  18
HETATM   18  N   UNK     0      18.487  22.312  -3.895  0.00  0.00    -0.221 N 
HETATM   19  C   UNK     0      18.431  23.615  -3.563  0.00  0.00     0.114 A 
HETATM   20  C   UNK     0      17.447  23.724  -2.590  0.00  0.00     0.102 A 
HETATM   21  N   UNK     0      16.991  22.479  -2.380  0.00  0.00    -0.133 NA
HETATM   22  N   UNK     0      17.623  21.669  -3.172  0.00  0.00    -0.064 NA
BRANCH  20  23
HETATM   23  C   UNK     0      16.960  24.944  -1.905  0.00  0.00     0.062 C 
BRANCH  23  24
HETATM   24  C   UNK     0      15.436  25.054  -1.705  0.00  0.00     0.074 C 
HETATM   25 Br   UNK     0      14.853  25.185  -0.286  0.00  0.00    -0.081 Br
ENDBRANCH  23  24
ENDBRANCH  20  23
ENDBRANCH  17  18
ENDBRANCH  15  17
ENDBRANCH   9  14
TORSDOF 5
ENDMDL
MODEL 7
REMARK VINA RESULT:      -7.8      3.380      8.034
REMARK  5 active torsions:
REMARK  status: ('A' for Active; 'I' for Inactive)
REMARK    1  A    between atoms: C_9  and  N_13 
REMARK       I    between atoms: N_13  and  C_14 
REMARK    2  A    between atoms: C_14  and  C_17 
REMARK    3  A    between atoms: C_17  and  N_18 
REMARK    4  A    between atoms: C_20  and  C_23 
REMARK    5  A    between atoms: C_23  and  C_24 
ROOT
HETATM    1  C   UNK     0      18.034  17.436  24.910  0.00  0.00     0.003 A 
HETATM    2  C   UNK     0      19.094  18.353  25.022  0.00  0.00     0.000 A 
HETATM    3  C   UNK     0      19.576  19.017  23.882  0.00  0.00     0.000 A 
HETATM    4  C   UNK     0      18.989  18.779  22.628  0.00  0.00     0.003 A 
HETATM    5  C   UNK     0      17.922  17.858  22.499  0.00  0.00     0.044 A 
HETATM    6  C   UNK     0      17.454  17.158  23.650  0.00  0.00     0.044 A 
HETATM    7  C   UNK     0      17.309  17.587  21.240  0.00  0.00     0.217 C 
HETATM    8  C   UNK     0      16.434  16.503  21.108  0.00  0.00     0.162 C 
HETATM    9  C   UNK     0      16.019  15.802  22.192  0.00  0.00     0.146 C 
HETATM   10  C   UNK     0      16.427  16.180  23.482  0.00  0.00     0.215 C 
HETATM   11  O   UNK     0      15.896  15.640  24.484  0.00  0.00    -0.285 OA
HETATM   12  O   UNK     0      17.562  18.314  20.247  0.00  0.00    -0.285 OA
HETATM   13  N   UNK     0      16.045  16.163  19.885  0.00  0.00    -0.143 N 
ENDROOT
BRANCH   9  14
HETATM   14  N   UNK     0      15.210  14.750  22.014  0.00  0.00    -0.205 NA
HETATM   15  C   UNK     0      13.845  14.765  21.993  0.00  0.00     0.281 C 
HETATM   16  O   UNK     0      13.292  13.651  21.845  0.00  0.00    -0.268 OA
BRANCH  15  17
HETATM   17  C   UNK     0      12.970  15.952  22.170  0.00  0.00     0.219 C 
BRANCH  17  18
HETATM   18  N   UNK     0      12.590  16.511  20.907  0.00  0.00    -0.221 N 
HETATM   19  C   UNK     0      11.735  15.987  20.010  0.00  0.00     0.114 A 
HETATM   20  C   UNK     0      11.660  16.901  18.967  0.00  0.00     0.102 A 
HETATM   21  N   UNK     0      12.493  17.903  19.290  0.00  0.00    -0.133 NA
HETATM   22  N   UNK     0      13.023  17.644  20.446  0.00  0.00    -0.064 NA
BRANCH  20  23
HETATM   23  C   UNK     0      10.836  16.830  17.738  0.00  0.00     0.062 C 
BRANCH  23  24
HETATM   24  C   UNK     0      11.269  17.738  16.571  0.00  0.00     0.074 C 
HETATM   25 Br   UNK     0      10.227  18.230  15.551  0.00  0.00    -0.081 Br
ENDBRANCH  23  24
ENDBRANCH  20  23
ENDBRANCH  17  18
ENDBRANCH  15  17
ENDBRANCH   9  14
TORSDOF 5
ENDMDL
MODEL 8
REMARK VINA RESULT:      -7.7      1.960      3.015
REMARK  5 active torsions:
REMARK  status: ('A' for Active; 'I' for Inactive)
REMARK    1  A    between atoms: C_9  and  N_13 
REMARK       I    between atoms: N_13  and  C_14 
REMARK    2  A    between atoms: C_14  and  C_17 
REMARK    3  A    between atoms: C_17  and  N_18 
REMARK    4  A    between atoms: C_20  and  C_23 
REMARK    5  A    between atoms: C_23  and  C_24 
ROOT
HETATM    1  C   UNK     0       8.470  16.026  18.219  0.00  0.00     0.003 A 
HETATM    2  C   UNK     0       7.926  17.109  17.505  0.00  0.00     0.000 A 
HETATM    3  C   UNK     0       8.773  18.029  16.865  0.00  0.00     0.000 A 
HETATM    4  C   UNK     0      10.167  17.859  16.921  0.00  0.00     0.003 A 
HETATM    5  C   UNK     0      10.729  16.775  17.636  0.00  0.00     0.044 A 
HETATM    6  C   UNK     0       9.871  15.860  18.315  0.00  0.00     0.044 A 
HETATM    7  C   UNK     0      12.139  16.577  17.720  0.00  0.00     0.217 C 
HETATM    8  C   UNK     0      12.662  15.649  18.628  0.00  0.00     0.162 C 
HETATM    9  C   UNK     0      11.851  14.806  19.313  0.00  0.00     0.146 C 
HETATM   10  C   UNK     0      10.464  14.816  19.090  0.00  0.00     0.215 C 
HETATM   11  O   UNK     0       9.748  13.915  19.592  0.00  0.00    -0.285 OA
HETATM   12  O   UNK     0      12.913  17.243  16.988  0.00  0.00    -0.285 OA
HETATM   13  N   UNK     0      13.976  15.640  18.821  0.00  0.00    -0.143 N 
ENDROOT
BRANCH   9  14
HETATM   14  N   UNK     0      12.392  13.960  20.198  0.00  0.00    -0.205 NA
HETATM   15  C   UNK     0      12.623  14.201  21.521  0.00  0.00     0.281 C 
HETATM   16  O   UNK     0      13.175  13.272  22.155  0.00  0.00    -0.268 OA
BRANCH  15  17
HETATM   17  C   UNK     0      12.329  15.457  22.258  0.00  0.00     0.219 C 
BRANCH  17  18
HETATM   18  N   UNK     0      13.385  16.411  22.102  0.00  0.00    -0.221 N 
HETATM   19  C   UNK     0      14.686  16.239  22.401  0.00  0.00     0.114 A 
HETATM   20  C   UNK     0      15.324  17.420  22.046  0.00  0.00     0.102 A 
HETATM   21  N   UNK     0      14.364  18.236  21.581  0.00  0.00    -0.133 NA
HETATM   22  N   UNK     0      13.231  17.606  21.622  0.00  0.00    -0.064 NA
BRANCH  20  23
HETATM   23  C   UNK     0      16.765  17.751  22.134  0.00  0.00     0.062 C 
BRANCH  23  24
HETATM   24  C   UNK     0      17.588  17.574  20.844  0.00  0.00     0.074 C 
HETATM   25 Br   UNK     0      17.764  16.173  20.230  0.00  0.00    -0.081 Br
ENDBRANCH  23  24
ENDBRANCH  20  23
ENDBRANCH  17  18
ENDBRANCH  15  17
ENDBRANCH   9  14
TORSDOF 5
ENDMDL
MODEL 9
REMARK VINA RESULT:      -7.7     23.907     26.184
REMARK  5 active torsions:
REMARK  status: ('A' for Active; 'I' for Inactive)
REMARK    1  A    between atoms: C_9  and  N_13 
REMARK       I    between atoms: N_13  and  C_14 
REMARK    2  A    between atoms: C_14  and  C_17 
REMARK    3  A    between atoms: C_17  and  N_18 
REMARK    4  A    between atoms: C_20  and  C_23 
REMARK    5  A    between atoms: C_23  and  C_24 
ROOT
HETATM    1  C   UNK     0      19.345  17.952  -7.732  0.00  0.00     0.003 A 
HETATM    2  C   UNK     0      19.650  17.901  -9.104  0.00  0.00     0.000 A 
HETATM    3  C   UNK     0      20.728  18.643  -9.614  0.00  0.00     0.000 A 
HETATM    4  C   UNK     0      21.516  19.424  -8.753  0.00  0.00     0.003 A 
HETATM    5  C   UNK     0      21.221  19.486  -7.370  0.00  0.00     0.044 A 
HETATM    6  C   UNK     0      20.106  18.761  -6.856  0.00  0.00     0.044 A 
HETATM    7  C   UNK     0      21.995  20.275  -6.468  0.00  0.00     0.217 C 
HETATM    8  C   UNK     0      21.532  20.506  -5.168  0.00  0.00     0.162 C 
HETATM    9  C   UNK     0      20.445  19.856  -4.685  0.00  0.00     0.146 C 
HETATM   10  C   UNK     0      19.783  18.897  -5.470  0.00  0.00     0.215 C 
HETATM   11  O   UNK     0      18.896  18.176  -4.952  0.00  0.00    -0.285 OA
HETATM   12  O   UNK     0      23.086  20.772  -6.844  0.00  0.00    -0.285 OA
HETATM   13  N   UNK     0      22.174  21.406  -4.430  0.00  0.00    -0.143 N 
ENDROOT
BRANCH   9  14
HETATM   14  N   UNK     0      20.017  20.136  -3.448  0.00  0.00    -0.205 NA
HETATM   15  C   UNK     0      19.080  21.065  -3.099  0.00  0.00     0.281 C 
HETATM   16  O   UNK     0      18.860  21.181  -1.872  0.00  0.00    -0.268 OA
BRANCH  15  17
HETATM   17  C   UNK     0      18.341  21.967  -4.020  0.00  0.00     0.219 C 
BRANCH  17  18
HETATM   18  N   UNK     0      17.493  22.866  -3.297  0.00  0.00    -0.221 N 
HETATM   19  C   UNK     0      17.830  24.059  -2.774  0.00  0.00     0.114 A 
HETATM   20  C   UNK     0      16.673  24.573  -2.204  0.00  0.00     0.102 A 
HETATM   21  N   UNK     0      15.721  23.647  -2.397  0.00  0.00    -0.133 NA
HETATM   22  N   UNK     0      16.237  22.653  -3.051  0.00  0.00    -0.064 NA
BRANCH  20  23
HETATM   23  C   UNK     0      16.482  25.875  -1.523  0.00  0.00     0.062 C 
BRANCH  23  24
HETATM   24  C   UNK     0      17.219  27.081  -2.136  0.00  0.00     0.074 C 
HETATM   25 Br   UNK     0      18.456  27.667  -1.431  0.00  0.00    -0.081 Br
ENDBRANCH  23  24
ENDBRANCH  20  23
ENDBRANCH  17  18
ENDBRANCH  15  17
ENDBRANCH   9  14
TORSDOF 5
ENDMDL
