MODEL 1
REMARK VINA RESULT:      -9.1      0.000      0.000
REMARK  6 active torsions:
REMARK  status: ('A' for Active; 'I' for Inactive)
REMARK    1  A    between atoms: C_9  and  N_13 
REMARK       I    between atoms: N_13  and  C_14 
REMARK    2  A    between atoms: C_14  and  C_17 
REMARK    3  A    between atoms: C_17  and  N_18 
REMARK    4  A    between atoms: C_20  and  C_23 
REMARK    5  A    between atoms: C_23  and  O_24 
REMARK    6  A    between atoms: O_24  and  C_26 
ROOT
HETATM    1  N   UNK     0      12.047  16.135  19.087  0.00  0.00    -0.205 NA
HETATM    2  C   UNK     0      12.832  16.757  20.020  0.00  0.00     0.281 C 
HETATM    3  O   UNK     0      12.742  17.989  20.243  0.00  0.00    -0.268 OA
ENDROOT
BRANCH   1   4
HETATM    4  C   UNK     0      11.068  16.722  18.386  0.00  0.00     0.146 C 
HETATM    5  C   UNK     0       9.790  16.656  18.830  0.00  0.00     0.162 C 
HETATM    6  C   UNK     0       8.736  17.198  18.079  0.00  0.00     0.217 C 
HETATM    7  N   UNK     0       9.514  16.049  19.978  0.00  0.00    -0.143 N 
HETATM    8  C   UNK     0       8.983  17.740  16.779  0.00  0.00     0.044 A 
HETATM    9  O   UNK     0       7.571  17.194  18.547  0.00  0.00    -0.285 OA
HETATM   10  C   UNK     0       7.938  18.172  15.927  0.00  0.00     0.003 A 
HETATM   11  C   UNK     0      10.330  17.841  16.330  0.00  0.00     0.044 A 
HETATM   12  C   UNK     0       8.221  18.680  14.647  0.00  0.00     0.000 A 
HETATM   13  C   UNK     0       9.550  18.773  14.204  0.00  0.00     0.000 A 
HETATM   14  C   UNK     0      10.599  18.363  15.042  0.00  0.00     0.003 A 
HETATM   15  C   UNK     0      11.371  17.412  17.202  0.00  0.00     0.215 C 
HETATM   16  O   UNK     0      12.567  17.683  16.929  0.00  0.00    -0.285 OA
ENDBRANCH   1   4
BRANCH   2  17
HETATM   17  C   UNK     0      13.805  15.956  20.788  0.00  0.00     0.219 C 
BRANCH  17  18
HETATM   18  N   UNK     0      15.119  16.507  20.703  0.00  0.00    -0.221 N 
HETATM   19  C   UNK     0      15.863  16.976  21.718  0.00  0.00     0.124 A 
HETATM   20  C   UNK     0      17.046  17.431  21.153  0.00  0.00     0.186 A 
HETATM   21  N   UNK     0      16.940  17.201  19.836  0.00  0.00    -0.123 NA
HETATM   22  N   UNK     0      15.791  16.650  19.602  0.00  0.00    -0.063 NA
BRANCH  20  23
HETATM   23  C   UNK     0      18.155  18.011  21.790  0.00  0.00     0.317 C 
HETATM   24  O   UNK     0      17.985  19.036  22.489  0.00  0.00    -0.257 OA
BRANCH  23  25
HETATM   25  O   UNK     0      19.399  17.469  21.640  0.00  0.00    -0.297 OA
BRANCH  25  26
HETATM   26  C   UNK     0      20.514  17.678  22.517  0.00  0.00     0.152 C 
HETATM   27  C   UNK     0      21.410  18.799  21.964  0.00  0.00     0.035 C 
ENDBRANCH  25  26
ENDBRANCH  23  25
ENDBRANCH  20  23
ENDBRANCH  17  18
ENDBRANCH   2  17
TORSDOF 6
ENDMDL
MODEL 2
REMARK VINA RESULT:      -8.9      1.215      1.498
REMARK  6 active torsions:
REMARK  status: ('A' for Active; 'I' for Inactive)
REMARK    1  A    between atoms: C_9  and  N_13 
REMARK       I    between atoms: N_13  and  C_14 
REMARK    2  A    between atoms: C_14  and  C_17 
REMARK    3  A    between atoms: C_17  and  N_18 
REMARK    4  A    between atoms: C_20  and  C_23 
REMARK    5  A    between atoms: C_23  and  O_24 
REMARK    6  A    between atoms: O_24  and  C_26 
ROOT
HETATM    1  N   UNK     0      13.243  15.898  19.396  0.00  0.00    -0.205 NA
HETATM    2  C   UNK     0      14.067  16.541  20.278  0.00  0.00     0.281 C 
HETATM    3  O   UNK     0      13.806  17.692  20.707  0.00  0.00    -0.268 OA
ENDROOT
BRANCH   1   4
HETATM    4  C   UNK     0      12.063  16.360  18.962  0.00  0.00     0.146 C 
HETATM    5  C   UNK     0      10.940  16.113  19.678  0.00  0.00     0.162 C 
HETATM    6  C   UNK     0       9.681  16.521  19.211  0.00  0.00     0.217 C 
HETATM    7  N   UNK     0      11.013  15.452  20.826  0.00  0.00    -0.143 N 
HETATM    8  C   UNK     0       9.553  17.117  17.916  0.00  0.00     0.044 A 
HETATM    9  O   UNK     0       8.664  16.351  19.927  0.00  0.00    -0.285 OA
HETATM   10  C   UNK     0       8.294  17.420  17.343  0.00  0.00     0.003 A 
HETATM   11  C   UNK     0      10.737  17.409  17.182  0.00  0.00     0.044 A 
HETATM   12  C   UNK     0       8.209  17.987  16.059  0.00  0.00     0.000 A 
HETATM   13  C   UNK     0       9.378  18.267  15.335  0.00  0.00     0.000 A 
HETATM   14  C   UNK     0      10.635  17.987  15.895  0.00  0.00     0.003 A 
HETATM   15  C   UNK     0      11.996  17.107  17.776  0.00  0.00     0.215 C 
HETATM   16  O   UNK     0      13.053  17.544  17.255  0.00  0.00    -0.285 OA
ENDBRANCH   1   4
BRANCH   2  17
HETATM   17  C   UNK     0      15.291  15.861  20.743  0.00  0.00     0.219 C 
BRANCH  17  18
HETATM   18  N   UNK     0      16.311  16.799  21.089  0.00  0.00    -0.221 N 
HETATM   19  C   UNK     0      16.807  17.034  22.315  0.00  0.00     0.124 A 
HETATM   20  C   UNK     0      17.751  18.040  22.164  0.00  0.00     0.186 A 
HETATM   21  N   UNK     0      17.767  18.340  20.856  0.00  0.00    -0.123 NA
HETATM   22  N   UNK     0      16.907  17.586  20.247  0.00  0.00    -0.063 NA
BRANCH  20  23
HETATM   23  C   UNK     0      18.554  18.643  23.145  0.00  0.00     0.317 C 
HETATM   24  O   UNK     0      18.533  18.184  24.310  0.00  0.00    -0.257 OA
BRANCH  23  25
HETATM   25  O   UNK     0      19.336  19.717  22.834  0.00  0.00    -0.297 OA
BRANCH  25  26
HETATM   26  C   UNK     0      20.763  19.777  22.954  0.00  0.00     0.152 C 
HETATM   27  C   UNK     0      21.408  18.703  22.062  0.00  0.00     0.035 C 
ENDBRANCH  25  26
ENDBRANCH  23  25
ENDBRANCH  20  23
ENDBRANCH  17  18
ENDBRANCH   2  17
TORSDOF 6
ENDMDL
MODEL 3
REMARK VINA RESULT:      -8.8     20.292     22.854
REMARK  6 active torsions:
REMARK  status: ('A' for Active; 'I' for Inactive)
REMARK    1  A    between atoms: C_9  and  N_13 
REMARK       I    between atoms: N_13  and  C_14 
REMARK    2  A    between atoms: C_14  and  C_17 
REMARK    3  A    between atoms: C_17  and  N_18 
REMARK    4  A    between atoms: C_20  and  C_23 
REMARK    5  A    between atoms: C_23  and  O_24 
REMARK    6  A    between atoms: O_24  and  C_26 
ROOT
HETATM    1  N   UNK     0      16.235  26.220  -2.063  0.00  0.00    -0.205 NA
HETATM    2  C   UNK     0      17.554  25.992  -1.785  0.00  0.00     0.281 C 
HETATM    3  O   UNK     0      18.060  26.308  -0.680  0.00  0.00    -0.268 OA
ENDROOT
BRANCH   1   4
HETATM    4  C   UNK     0      15.335  26.708  -1.199  0.00  0.00     0.146 C 
HETATM    5  C   UNK     0      15.121  28.044  -1.132  0.00  0.00     0.162 C 
HETATM    6  C   UNK     0      14.239  28.588  -0.186  0.00  0.00     0.217 C 
HETATM    7  N   UNK     0      15.771  28.863  -1.949  0.00  0.00    -0.143 N 
HETATM    8  C   UNK     0      13.627  27.745   0.794  0.00  0.00     0.044 A 
HETATM    9  O   UNK     0      13.999  29.820  -0.195  0.00  0.00    -0.285 OA
HETATM   10  C   UNK     0      12.840  28.262   1.852  0.00  0.00     0.003 A 
HETATM   11  C   UNK     0      13.823  26.339   0.699  0.00  0.00     0.044 A 
HETATM   12  C   UNK     0      12.271  27.402   2.807  0.00  0.00     0.000 A 
HETATM   13  C   UNK     0      12.471  26.016   2.715  0.00  0.00     0.000 A 
HETATM   14  C   UNK     0      13.236  25.486   1.665  0.00  0.00     0.003 A 
HETATM   15  C   UNK     0      14.609  25.833  -0.375  0.00  0.00     0.215 C 
HETATM   16  O   UNK     0      14.624  24.599  -0.612  0.00  0.00    -0.285 OA
ENDBRANCH   1   4
BRANCH   2  17
HETATM   17  C   UNK     0      18.404  25.354  -2.808  0.00  0.00     0.219 C 
BRANCH  17  18
HETATM   18  N   UNK     0      18.191  23.943  -2.861  0.00  0.00    -0.221 N 
HETATM   19  C   UNK     0      18.942  23.038  -3.508  0.00  0.00     0.124 A 
HETATM   20  C   UNK     0      18.335  21.808  -3.296  0.00  0.00     0.186 A 
HETATM   21  N   UNK     0      17.261  22.052  -2.530  0.00  0.00    -0.123 NA
HETATM   22  N   UNK     0      17.205  23.324  -2.286  0.00  0.00    -0.063 NA
BRANCH  20  23
HETATM   23  C   UNK     0      18.731  20.544  -3.760  0.00  0.00     0.317 C 
HETATM   24  O   UNK     0      17.861  19.763  -4.210  0.00  0.00    -0.257 OA
BRANCH  23  25
HETATM   25  O   UNK     0      20.043  20.170  -3.712  0.00  0.00    -0.297 OA
BRANCH  25  26
HETATM   26  C   UNK     0      20.745  19.447  -4.731  0.00  0.00     0.152 C 
HETATM   27  C   UNK     0      21.006  20.364  -5.938  0.00  0.00     0.035 C 
ENDBRANCH  25  26
ENDBRANCH  23  25
ENDBRANCH  20  23
ENDBRANCH  17  18
ENDBRANCH   2  17
TORSDOF 6
ENDMDL
MODEL 4
REMARK VINA RESULT:      -8.6      2.018      8.953
REMARK  6 active torsions:
REMARK  status: ('A' for Active; 'I' for Inactive)
REMARK    1  A    between atoms: C_9  and  N_13 
REMARK       I    between atoms: N_13  and  C_14 
REMARK    2  A    between atoms: C_14  and  C_17 
REMARK    3  A    between atoms: C_17  and  N_18 
REMARK    4  A    between atoms: C_20  and  C_23 
REMARK    5  A    between atoms: C_23  and  O_24 
REMARK    6  A    between atoms: O_24  and  C_26 
ROOT
HETATM    1  N   UNK     0      13.861  16.094  21.260  0.00  0.00    -0.205 NA
HETATM    2  C   UNK     0      12.966  17.097  21.007  0.00  0.00     0.281 C 
HETATM    3  O   UNK     0      13.194  18.286  21.341  0.00  0.00    -0.268 OA
ENDROOT
BRANCH   1   4
HETATM    4  C   UNK     0      15.078  16.261  21.797  0.00  0.00     0.146 C 
HETATM    5  C   UNK     0      15.329  15.809  23.049  0.00  0.00     0.162 C 
HETATM    6  C   UNK     0      16.571  16.034  23.662  0.00  0.00     0.217 C 
HETATM    7  N   UNK     0      14.386  15.167  23.727  0.00  0.00    -0.143 N 
HETATM    8  C   UNK     0      17.560  16.836  23.011  0.00  0.00     0.044 A 
HETATM    9  O   UNK     0      16.807  15.539  24.792  0.00  0.00    -0.285 OA
HETATM   10  C   UNK     0      18.772  17.207  23.643  0.00  0.00     0.003 A 
HETATM   11  C   UNK     0      17.309  17.278  21.682  0.00  0.00     0.044 A 
HETATM   12  C   UNK     0      19.710  18.013  22.976  0.00  0.00     0.000 A 
HETATM   13  C   UNK     0      19.457  18.453  21.668  0.00  0.00     0.000 A 
HETATM   14  C   UNK     0      18.268  18.083  21.021  0.00  0.00     0.003 A 
HETATM   15  C   UNK     0      16.090  16.890  21.055  0.00  0.00     0.215 C 
HETATM   16  O   UNK     0      15.933  17.078  19.823  0.00  0.00    -0.285 OA
ENDBRANCH   1   4
BRANCH   2  17
HETATM   17  C   UNK     0      11.702  16.774  20.318  0.00  0.00     0.219 C 
BRANCH  17  18
HETATM   18  N   UNK     0      11.756  17.123  18.934  0.00  0.00    -0.221 N 
HETATM   19  C   UNK     0      10.781  17.692  18.208  0.00  0.00     0.124 A 
HETATM   20  C   UNK     0      11.279  17.814  16.918  0.00  0.00     0.186 A 
HETATM   21  N   UNK     0      12.524  17.315  16.953  0.00  0.00    -0.123 NA
HETATM   22  N   UNK     0      12.779  16.918  18.161  0.00  0.00    -0.063 NA
BRANCH  20  23
HETATM   23  C   UNK     0      10.651  18.349  15.783  0.00  0.00     0.317 C 
HETATM   24  O   UNK     0      11.356  18.700  14.809  0.00  0.00    -0.257 OA
BRANCH  23  25
HETATM   25  O   UNK     0       9.294  18.492  15.747  0.00  0.00    -0.297 OA
BRANCH  25  26
HETATM   26  C   UNK     0       8.374  17.592  15.116  0.00  0.00     0.152 C 
HETATM   27  C   UNK     0       6.954  18.183  15.155  0.00  0.00     0.035 C 
ENDBRANCH  25  26
ENDBRANCH  23  25
ENDBRANCH  20  23
ENDBRANCH  17  18
ENDBRANCH   2  17
TORSDOF 6
ENDMDL
MODEL 5
REMARK VINA RESULT:      -8.4     21.485     24.592
REMARK  6 active torsions:
REMARK  status: ('A' for Active; 'I' for Inactive)
REMARK    1  A    between atoms: C_9  and  N_13 
REMARK       I    between atoms: N_13  and  C_14 
REMARK    2  A    between atoms: C_14  and  C_17 
REMARK    3  A    between atoms: C_17  and  N_18 
REMARK    4  A    between atoms: C_20  and  C_23 
REMARK    5  A    between atoms: C_23  and  O_24 
REMARK    6  A    between atoms: O_24  and  C_26 
ROOT
HETATM    1  N   UNK     0      19.697  21.909  -4.392  0.00  0.00    -0.205 NA
HETATM    2  C   UNK     0      19.055  22.432  -3.303  0.00  0.00     0.281 C 
HETATM    3  O   UNK     0      18.904  21.774  -2.246  0.00  0.00    -0.268 OA
ENDROOT
BRANCH   1   4
HETATM    4  C   UNK     0      20.295  20.711  -4.435  0.00  0.00     0.146 C 
HETATM    5  C   UNK     0      21.616  20.607  -4.152  0.00  0.00     0.162 C 
HETATM    6  C   UNK     0      22.283  19.378  -4.261  0.00  0.00     0.217 C 
HETATM    7  N   UNK     0      22.306  21.682  -3.792  0.00  0.00    -0.143 N 
HETATM    8  C   UNK     0      21.599  18.231  -4.773  0.00  0.00     0.044 A 
HETATM    9  O   UNK     0      23.488  19.290  -3.919  0.00  0.00    -0.285 OA
HETATM   10  C   UNK     0      22.261  17.006  -5.030  0.00  0.00     0.003 A 
HETATM   11  C   UNK     0      20.204  18.332  -5.034  0.00  0.00     0.044 A 
HETATM   12  C   UNK     0      21.557  15.907  -5.553  0.00  0.00     0.000 A 
HETATM   13  C   UNK     0      20.182  16.012  -5.816  0.00  0.00     0.000 A 
HETATM   14  C   UNK     0      19.507  17.214  -5.552  0.00  0.00     0.003 A 
HETATM   15  C   UNK     0      19.549  19.567  -4.761  0.00  0.00     0.215 C 
HETATM   16  O   UNK     0      18.294  19.627  -4.775  0.00  0.00    -0.285 OA
ENDBRANCH   1   4
BRANCH   2  17
HETATM   17  C   UNK     0      18.531  23.810  -3.373  0.00  0.00     0.219 C 
BRANCH  17  18
HETATM   18  N   UNK     0      17.310  23.943  -2.645  0.00  0.00    -0.221 N 
HETATM   19  C   UNK     0      17.065  24.787  -1.630  0.00  0.00     0.124 A 
HETATM   20  C   UNK     0      15.761  24.538  -1.226  0.00  0.00     0.186 A 
HETATM   21  N   UNK     0      15.303  23.566  -2.029  0.00  0.00    -0.123 NA
HETATM   22  N   UNK     0      16.242  23.238  -2.860  0.00  0.00    -0.063 NA
BRANCH  20  23
HETATM   23  C   UNK     0      15.028  25.157  -0.201  0.00  0.00     0.317 C 
HETATM   24  O   UNK     0      14.965  24.602   0.920  0.00  0.00    -0.257 OA
BRANCH  23  25
HETATM   25  O   UNK     0      14.386  26.340  -0.428  0.00  0.00    -0.297 OA
BRANCH  25  26
HETATM   26  C   UNK     0      14.988  27.640  -0.389  0.00  0.00     0.152 C 
HETATM   27  C   UNK     0      15.130  28.194  -1.816  0.00  0.00     0.035 C 
ENDBRANCH  25  26
ENDBRANCH  23  25
ENDBRANCH  20  23
ENDBRANCH  17  18
ENDBRANCH   2  17
TORSDOF 6
ENDMDL
MODEL 6
REMARK VINA RESULT:      -8.3      1.787      2.999
REMARK  6 active torsions:
REMARK  status: ('A' for Active; 'I' for Inactive)
REMARK    1  A    between atoms: C_9  and  N_13 
REMARK       I    between atoms: N_13  and  C_14 
REMARK    2  A    between atoms: C_14  and  C_17 
REMARK    3  A    between atoms: C_17  and  N_18 
REMARK    4  A    between atoms: C_20  and  C_23 
REMARK    5  A    between atoms: C_23  and  O_24 
REMARK    6  A    between atoms: O_24  and  C_26 
ROOT
HETATM    1  N   UNK     0      10.500  17.442  19.240  0.00  0.00    -0.205 NA
HETATM    2  C   UNK     0      11.022  16.256  19.678  0.00  0.00     0.281 C 
HETATM    3  O   UNK     0      10.962  15.212  18.984  0.00  0.00    -0.268 OA
ENDROOT
BRANCH   1   4
HETATM    4  C   UNK     0       9.961  17.650  18.031  0.00  0.00     0.146 C 
HETATM    5  C   UNK     0      10.763  17.914  16.972  0.00  0.00     0.162 C 
HETATM    6  C   UNK     0      10.221  18.208  15.711  0.00  0.00     0.217 C 
HETATM    7  N   UNK     0      12.081  17.926  17.122  0.00  0.00    -0.143 N 
HETATM    8  C   UNK     0       8.806  18.333  15.548  0.00  0.00     0.044 A 
HETATM    9  O   UNK     0      10.984  18.372  14.728  0.00  0.00    -0.285 OA
HETATM   10  C   UNK     0       8.218  18.761  14.333  0.00  0.00     0.003 A 
HETATM   11  C   UNK     0       7.964  18.020  16.652  0.00  0.00     0.044 A 
HETATM   12  C   UNK     0       6.823  18.892  14.219  0.00  0.00     0.000 A 
HETATM   13  C   UNK     0       5.996  18.588  15.311  0.00  0.00     0.000 A 
HETATM   14  C   UNK     0       6.561  18.148  16.518  0.00  0.00     0.003 A 
HETATM   15  C   UNK     0       8.568  17.581  17.864  0.00  0.00     0.215 C 
HETATM   16  O   UNK     0       7.856  17.095  18.778  0.00  0.00    -0.285 OA
ENDBRANCH   1   4
BRANCH   2  17
HETATM   17  C   UNK     0      11.676  16.205  21.000  0.00  0.00     0.219 C 
BRANCH  17  18
HETATM   18  N   UNK     0      12.971  16.808  20.967  0.00  0.00    -0.221 N 
HETATM   19  C   UNK     0      14.141  16.190  20.745  0.00  0.00     0.124 A 
HETATM   20  C   UNK     0      15.120  17.170  20.836  0.00  0.00     0.186 A 
HETATM   21  N   UNK     0      14.474  18.315  21.100  0.00  0.00    -0.123 NA
HETATM   22  N   UNK     0      13.203  18.069  21.168  0.00  0.00    -0.063 NA
BRANCH  20  23
HETATM   23  C   UNK     0      16.509  17.038  20.681  0.00  0.00     0.317 C 
HETATM   24  O   UNK     0      16.997  15.894  20.533  0.00  0.00    -0.257 OA
BRANCH  23  25
HETATM   25  O   UNK     0      17.314  18.140  20.702  0.00  0.00    -0.297 OA
BRANCH  25  26
HETATM   26  C   UNK     0      18.520  18.281  21.463  0.00  0.00     0.152 C 
HETATM   27  C   UNK     0      18.182  18.444  22.954  0.00  0.00     0.035 C 
ENDBRANCH  25  26
ENDBRANCH  23  25
ENDBRANCH  20  23
ENDBRANCH  17  18
ENDBRANCH   2  17
TORSDOF 6
ENDMDL
MODEL 7
REMARK VINA RESULT:      -8.3      1.723      2.816
REMARK  6 active torsions:
REMARK  status: ('A' for Active; 'I' for Inactive)
REMARK    1  A    between atoms: C_9  and  N_13 
REMARK       I    between atoms: N_13  and  C_14 
REMARK    2  A    between atoms: C_14  and  C_17 
REMARK    3  A    between atoms: C_17  and  N_18 
REMARK    4  A    between atoms: C_20  and  C_23 
REMARK    5  A    between atoms: C_23  and  O_24 
REMARK    6  A    between atoms: O_24  and  C_26 
ROOT
HETATM    1  N   UNK     0      12.838  16.332  20.218  0.00  0.00    -0.205 NA
HETATM    2  C   UNK     0      13.419  17.267  21.030  0.00  0.00     0.281 C 
HETATM    3  O   UNK     0      13.136  18.487  20.940  0.00  0.00    -0.268 OA
ENDROOT
BRANCH   1   4
HETATM    4  C   UNK     0      11.872  16.578  19.323  0.00  0.00     0.146 C 
HETATM    5  C   UNK     0      12.200  16.991  18.075  0.00  0.00     0.162 C 
HETATM    6  C   UNK     0      11.209  17.326  17.141  0.00  0.00     0.217 C 
HETATM    7  N   UNK     0      13.475  17.113  17.728  0.00  0.00    -0.143 N 
HETATM    8  C   UNK     0       9.831  17.334  17.526  0.00  0.00     0.044 A 
HETATM    9  O   UNK     0      11.535  17.632  15.968  0.00  0.00    -0.285 OA
HETATM   10  C   UNK     0       8.806  17.795  16.665  0.00  0.00     0.003 A 
HETATM   11  C   UNK     0       9.486  16.864  18.824  0.00  0.00     0.044 A 
HETATM   12  C   UNK     0       7.465  17.805  17.088  0.00  0.00     0.000 A 
HETATM   13  C   UNK     0       7.128  17.347  18.371  0.00  0.00     0.000 A 
HETATM   14  C   UNK     0       8.130  16.873  19.232  0.00  0.00     0.003 A 
HETATM   15  C   UNK     0      10.526  16.394  19.676  0.00  0.00     0.215 C 
HETATM   16  O   UNK     0      10.238  15.779  20.733  0.00  0.00    -0.285 OA
ENDBRANCH   1   4
BRANCH   2  17
HETATM   17  C   UNK     0      14.400  16.830  22.041  0.00  0.00     0.219 C 
BRANCH  17  18
HETATM   18  N   UNK     0      15.701  17.353  21.769  0.00  0.00    -0.221 N 
HETATM   19  C   UNK     0      16.655  17.647  22.667  0.00  0.00     0.124 A 
HETATM   20  C   UNK     0      17.727  18.148  21.942  0.00  0.00     0.186 A 
HETATM   21  N   UNK     0      17.351  18.117  20.654  0.00  0.00    -0.123 NA
HETATM   22  N   UNK     0      16.149  17.638  20.584  0.00  0.00    -0.063 NA
BRANCH  20  23
HETATM   23  C   UNK     0      18.970  18.599  22.414  0.00  0.00     0.317 C 
HETATM   24  O   UNK     0      20.010  18.255  21.807  0.00  0.00    -0.257 OA
BRANCH  23  25
HETATM   25  O   UNK     0      19.042  19.390  23.523  0.00  0.00    -0.297 OA
BRANCH  25  26
HETATM   26  C   UNK     0      19.804  19.109  24.705  0.00  0.00     0.152 C 
HETATM   27  C   UNK     0      19.406  17.735  25.269  0.00  0.00     0.035 C 
ENDBRANCH  25  26
ENDBRANCH  23  25
ENDBRANCH  20  23
ENDBRANCH  17  18
ENDBRANCH   2  17
TORSDOF 6
ENDMDL
MODEL 8
REMARK VINA RESULT:      -8.3     23.482     26.211
REMARK  6 active torsions:
REMARK  status: ('A' for Active; 'I' for Inactive)
REMARK    1  A    between atoms: C_9  and  N_13 
REMARK       I    between atoms: N_13  and  C_14 
REMARK    2  A    between atoms: C_14  and  C_17 
REMARK    3  A    between atoms: C_17  and  N_18 
REMARK    4  A    between atoms: C_20  and  C_23 
REMARK    5  A    between atoms: C_23  and  O_24 
REMARK    6  A    between atoms: O_24  and  C_26 
ROOT
HETATM    1  N   UNK     0      20.305  21.268  -5.407  0.00  0.00    -0.205 NA
HETATM    2  C   UNK     0      21.288  20.371  -5.090  0.00  0.00     0.281 C 
HETATM    3  O   UNK     0      21.817  20.345  -3.952  0.00  0.00    -0.268 OA
ENDROOT
BRANCH   1   4
HETATM    4  C   UNK     0      19.748  22.138  -4.554  0.00  0.00     0.146 C 
HETATM    5  C   UNK     0      18.680  21.761  -3.811  0.00  0.00     0.162 C 
HETATM    6  C   UNK     0      18.031  22.673  -2.964  0.00  0.00     0.217 C 
HETATM    7  N   UNK     0      18.212  20.522  -3.896  0.00  0.00    -0.143 N 
HETATM    8  C   UNK     0      18.427  24.048  -2.950  0.00  0.00     0.044 A 
HETATM    9  O   UNK     0      17.093  22.282  -2.228  0.00  0.00    -0.285 OA
HETATM   10  C   UNK     0      17.719  25.033  -2.219  0.00  0.00     0.003 A 
HETATM   11  C   UNK     0      19.572  24.433  -3.702  0.00  0.00     0.044 A 
HETATM   12  C   UNK     0      18.128  26.377  -2.247  0.00  0.00     0.000 A 
HETATM   13  C   UNK     0      19.254  26.756  -2.995  0.00  0.00     0.000 A 
HETATM   14  C   UNK     0      19.976  25.789  -3.713  0.00  0.00     0.003 A 
HETATM   15  C   UNK     0      20.280  23.430  -4.425  0.00  0.00     0.215 C 
HETATM   16  O   UNK     0      21.405  23.692  -4.918  0.00  0.00    -0.285 OA
ENDBRANCH   1   4
BRANCH   2  17
HETATM   17  C   UNK     0      21.733  19.404  -6.112  0.00  0.00     0.219 C 
BRANCH  17  18
HETATM   18  N   UNK     0      20.725  18.431  -6.388  0.00  0.00    -0.221 N 
HETATM   19  C   UNK     0      20.201  18.130  -7.587  0.00  0.00     0.124 A 
HETATM   20  C   UNK     0      19.244  17.152  -7.357  0.00  0.00     0.186 A 
HETATM   21  N   UNK     0      19.258  16.922  -6.036  0.00  0.00    -0.123 NA
HETATM   22  N   UNK     0      20.147  17.692  -5.490  0.00  0.00    -0.063 NA
BRANCH  20  23
HETATM   23  C   UNK     0      18.415  16.502  -8.285  0.00  0.00     0.317 C 
HETATM   24  O   UNK     0      18.483  16.830  -9.492  0.00  0.00    -0.257 OA
BRANCH  23  25
HETATM   25  O   UNK     0      17.543  15.536  -7.875  0.00  0.00    -0.297 OA
BRANCH  25  26
HETATM   26  C   UNK     0      17.779  14.123  -7.915  0.00  0.00     0.152 C 
HETATM   27  C   UNK     0      16.974  13.489  -9.062  0.00  0.00     0.035 C 
ENDBRANCH  25  26
ENDBRANCH  23  25
ENDBRANCH  20  23
ENDBRANCH  17  18
ENDBRANCH   2  17
TORSDOF 6
ENDMDL
MODEL 9
REMARK VINA RESULT:      -8.3     22.842     25.399
REMARK  6 active torsions:
REMARK  status: ('A' for Active; 'I' for Inactive)
REMARK    1  A    between atoms: C_9  and  N_13 
REMARK       I    between atoms: N_13  and  C_14 
REMARK    2  A    between atoms: C_14  and  C_17 
REMARK    3  A    between atoms: C_17  and  N_18 
REMARK    4  A    between atoms: C_20  and  C_23 
REMARK    5  A    between atoms: C_23  and  O_24 
REMARK    6  A    between atoms: O_24  and  C_26 
ROOT
HETATM    1  N   UNK     0      19.835  21.933  -3.153  0.00  0.00    -0.205 NA
HETATM    2  C   UNK     0      19.933  21.231  -4.322  0.00  0.00     0.281 C 
HETATM    3  O   UNK     0      19.335  21.596  -5.364  0.00  0.00    -0.268 OA
ENDROOT
BRANCH   1   4
HETATM    4  C   UNK     0      19.185  23.095  -3.000  0.00  0.00     0.146 C 
HETATM    5  C   UNK     0      19.829  24.262  -3.238  0.00  0.00     0.162 C 
HETATM    6  C   UNK     0      19.196  25.495  -3.016  0.00  0.00     0.217 C 
HETATM    7  N   UNK     0      21.087  24.255  -3.661  0.00  0.00    -0.143 N 
HETATM    8  C   UNK     0      17.889  25.537  -2.436  0.00  0.00     0.044 A 
HETATM    9  O   UNK     0      19.785  26.562  -3.317  0.00  0.00    -0.285 OA
HETATM   10  C   UNK     0      17.263  26.753  -2.066  0.00  0.00     0.003 A 
HETATM   11  C   UNK     0      17.200  24.311  -2.222  0.00  0.00     0.044 A 
HETATM   12  C   UNK     0      15.986  26.752  -1.480  0.00  0.00     0.000 A 
HETATM   13  C   UNK     0      15.311  25.540  -1.264  0.00  0.00     0.000 A 
HETATM   14  C   UNK     0      15.910  24.327  -1.638  0.00  0.00     0.003 A 
HETATM   15  C   UNK     0      17.837  23.097  -2.608  0.00  0.00     0.215 C 
HETATM   16  O   UNK     0      17.180  22.026  -2.633  0.00  0.00    -0.285 OA
ENDBRANCH   1   4
BRANCH   2  17
HETATM   17  C   UNK     0      20.770  20.016  -4.362  0.00  0.00     0.219 C 
BRANCH  17  18
HETATM   18  N   UNK     0      20.134  18.966  -5.091  0.00  0.00    -0.221 N 
HETATM   19  C   UNK     0      20.308  18.666  -6.388  0.00  0.00     0.124 A 
HETATM   20  C   UNK     0      19.466  17.595  -6.654  0.00  0.00     0.186 A 
HETATM   21  N   UNK     0      18.845  17.316  -5.498  0.00  0.00    -0.123 NA
HETATM   22  N   UNK     0      19.264  18.142  -4.592  0.00  0.00    -0.063 NA
BRANCH  20  23
HETATM   23  C   UNK     0      19.277  16.909  -7.864  0.00  0.00     0.317 C 
HETATM   24  O   UNK     0      18.296  17.207  -8.583  0.00  0.00    -0.257 OA
BRANCH  23  25
HETATM   25  O   UNK     0      20.144  15.925  -8.244  0.00  0.00    -0.297 OA
BRANCH  25  26
HETATM   26  C   UNK     0      20.373  14.695  -7.545  0.00  0.00     0.152 C 
HETATM   27  C   UNK     0      19.060  13.900  -7.441  0.00  0.00     0.035 C 
ENDBRANCH  25  26
ENDBRANCH  23  25
ENDBRANCH  20  23
ENDBRANCH  17  18
ENDBRANCH   2  17
TORSDOF 6
ENDMDL
