MODEL 1
REMARK VINA RESULT:      -8.0      0.000      0.000
REMARK  6 active torsions:
REMARK  status: ('A' for Active; 'I' for Inactive)
REMARK    1  A    between atoms: C_9  and  N_13 
REMARK       I    between atoms: N_13  and  C_14 
REMARK    2  A    between atoms: C_14  and  C_17 
REMARK    3  A    between atoms: C_17  and  N_18 
REMARK    4  A    between atoms: C_20  and  C_23 
REMARK    5  A    between atoms: C_23  and  C_24 
REMARK    6  A    between atoms: C_24  and  C_25 
ROOT
HETATM    1  N   UNK     0       8.089   3.590  10.323  0.00  0.00    -0.205 NA
HETATM    2  C   UNK     0       9.017   4.130   9.479  0.00  0.00     0.281 C 
HETATM    3  O   UNK     0       9.638   5.125   9.915  0.00  0.00    -0.268 OA
ENDROOT
BRANCH   2   4
HETATM    4  C   UNK     0       9.400   3.614   8.141  0.00  0.00     0.219 C 
BRANCH   4   5
HETATM    5  N   UNK     0       8.902   4.467   7.105  0.00  0.00    -0.221 N 
HETATM    6  C   UNK     0       9.481   5.588   6.637  0.00  0.00     0.114 A 
HETATM    7  C   UNK     0       8.654   6.055   5.627  0.00  0.00     0.101 A 
HETATM    8  N   UNK     0       7.627   5.194   5.559  0.00  0.00    -0.133 NA
HETATM    9  N   UNK     0       7.805   4.264   6.444  0.00  0.00    -0.064 NA
BRANCH   7  10
HETATM   10  C   UNK     0       8.832   7.245   4.768  0.00  0.00     0.054 C 
BRANCH  10  11
HETATM   11  C   UNK     0       8.596   6.930   3.266  0.00  0.00     0.033 C 
BRANCH  11  12
HETATM   12  C   UNK     0       9.844   7.074   2.466  0.00  0.00    -0.022 A 
HETATM   13  C   UNK     0      10.920   6.168   2.631  0.00  0.00    -0.004 A 
HETATM   14  C   UNK     0      12.090   6.291   1.857  0.00  0.00    -0.000 A 
HETATM   15  C   UNK     0      12.203   7.325   0.911  0.00  0.00     0.000 A 
HETATM   16  C   UNK     0      11.148   8.239   0.743  0.00  0.00    -0.000 A 
HETATM   17  C   UNK     0       9.977   8.115   1.515  0.00  0.00    -0.004 A 
ENDBRANCH  11  12
ENDBRANCH  10  11
ENDBRANCH   7  10
ENDBRANCH   4   5
ENDBRANCH   2   4
BRANCH   1  18
HETATM   18  C   UNK     0       7.334   2.509  10.093  0.00  0.00     0.146 C 
HETATM   19  C   UNK     0       6.126   2.657   9.497  0.00  0.00     0.162 C 
HETATM   20  C   UNK     0       5.263   1.568   9.333  0.00  0.00     0.217 C 
HETATM   21  N   UNK     0       5.711   3.851   9.091  0.00  0.00    -0.143 N 
HETATM   22  C   UNK     0       5.570   0.320   9.953  0.00  0.00     0.044 A 
HETATM   23  O   UNK     0       4.212   1.694   8.658  0.00  0.00    -0.285 OA
HETATM   24  C   UNK     0       4.624  -0.730  10.041  0.00  0.00     0.003 A 
HETATM   25  C   UNK     0       6.859   0.142  10.529  0.00  0.00     0.044 A 
HETATM   26  C   UNK     0       4.950  -1.933  10.691  0.00  0.00     0.000 A 
HETATM   27  C   UNK     0       6.229  -2.114  11.242  0.00  0.00     0.000 A 
HETATM   28  C   UNK     0       7.182  -1.086  11.155  0.00  0.00     0.003 A 
HETATM   29  C   UNK     0       7.776   1.234  10.485  0.00  0.00     0.215 C 
HETATM   30  O   UNK     0       8.977   1.061  10.810  0.00  0.00    -0.285 OA
ENDBRANCH   1  18
TORSDOF 6
ENDMDL
MODEL 2
REMARK VINA RESULT:      -7.8     16.402     18.743
REMARK  6 active torsions:
REMARK  status: ('A' for Active; 'I' for Inactive)
REMARK    1  A    between atoms: C_9  and  N_13 
REMARK       I    between atoms: N_13  and  C_14 
REMARK    2  A    between atoms: C_14  and  C_17 
REMARK    3  A    between atoms: C_17  and  N_18 
REMARK    4  A    between atoms: C_20  and  C_23 
REMARK    5  A    between atoms: C_23  and  C_24 
REMARK    6  A    between atoms: C_24  and  C_25 
ROOT
HETATM    1  N   UNK     0      -8.078   7.254  -3.479  0.00  0.00    -0.205 NA
HETATM    2  C   UNK     0      -8.041   7.829  -2.241  0.00  0.00     0.281 C 
HETATM    3  O   UNK     0      -8.272   9.058  -2.202  0.00  0.00    -0.268 OA
ENDROOT
BRANCH   2   4
HETATM    4  C   UNK     0      -7.822   7.132  -0.949  0.00  0.00     0.219 C 
BRANCH   4   5
HETATM    5  N   UNK     0      -6.580   7.530  -0.359  0.00  0.00    -0.221 N 
HETATM    6  C   UNK     0      -6.395   8.003   0.887  0.00  0.00     0.114 A 
HETATM    7  C   UNK     0      -5.033   8.224   1.016  0.00  0.00     0.101 A 
HETATM    8  N   UNK     0      -4.487   7.883  -0.161  0.00  0.00    -0.133 NA
HETATM    9  N   UNK     0      -5.428   7.473  -0.953  0.00  0.00    -0.064 NA
BRANCH   7  10
HETATM   10  C   UNK     0      -4.289   8.723   2.192  0.00  0.00     0.054 C 
BRANCH  10  11
HETATM   11  C   UNK     0      -5.227   9.063   3.382  0.00  0.00     0.033 C 
BRANCH  11  12
HETATM   12  C   UNK     0      -4.699   8.538   4.673  0.00  0.00    -0.022 A 
HETATM   13  C   UNK     0      -3.329   8.675   5.005  0.00  0.00    -0.004 A 
HETATM   14  C   UNK     0      -2.835   8.200   6.235  0.00  0.00    -0.000 A 
HETATM   15  C   UNK     0      -3.703   7.576   7.149  0.00  0.00     0.000 A 
HETATM   16  C   UNK     0      -5.064   7.423   6.829  0.00  0.00    -0.000 A 
HETATM   17  C   UNK     0      -5.558   7.900   5.600  0.00  0.00    -0.004 A 
ENDBRANCH  11  12
ENDBRANCH  10  11
ENDBRANCH   7  10
ENDBRANCH   4   5
ENDBRANCH   2   4
BRANCH   1  18
HETATM   18  C   UNK     0      -7.902   5.957  -3.762  0.00  0.00     0.146 C 
HETATM   19  C   UNK     0      -6.679   5.523  -4.152  0.00  0.00     0.162 C 
HETATM   20  C   UNK     0      -6.478   4.199  -4.557  0.00  0.00     0.217 C 
HETATM   21  N   UNK     0      -5.647   6.357  -4.201  0.00  0.00    -0.143 N 
HETATM   22  C   UNK     0      -7.598   3.334  -4.736  0.00  0.00     0.044 A 
HETATM   23  O   UNK     0      -5.316   3.779  -4.781  0.00  0.00    -0.285 OA
HETATM   24  C   UNK     0      -7.486   2.080  -5.383  0.00  0.00     0.003 A 
HETATM   25  C   UNK     0      -8.874   3.764  -4.274  0.00  0.00     0.044 A 
HETATM   26  C   UNK     0      -8.618   1.269  -5.573  0.00  0.00     0.000 A 
HETATM   27  C   UNK     0      -9.873   1.687  -5.101  0.00  0.00     0.000 A 
HETATM   28  C   UNK     0     -10.000   2.924  -4.448  0.00  0.00     0.003 A 
HETATM   29  C   UNK     0      -8.978   5.057  -3.681  0.00  0.00     0.215 C 
HETATM   30  O   UNK     0     -10.035   5.398  -3.096  0.00  0.00    -0.285 OA
ENDBRANCH   1  18
TORSDOF 6
ENDMDL
MODEL 3
REMARK VINA RESULT:      -7.7      1.748      2.657
REMARK  6 active torsions:
REMARK  status: ('A' for Active; 'I' for Inactive)
REMARK    1  A    between atoms: C_9  and  N_13 
REMARK       I    between atoms: N_13  and  C_14 
REMARK    2  A    between atoms: C_14  and  C_17 
REMARK    3  A    between atoms: C_17  and  N_18 
REMARK    4  A    between atoms: C_20  and  C_23 
REMARK    5  A    between atoms: C_23  and  C_24 
REMARK    6  A    between atoms: C_24  and  C_25 
ROOT
HETATM    1  N   UNK     0       8.208   1.581   8.013  0.00  0.00    -0.205 NA
HETATM    2  C   UNK     0       8.766   2.697   7.459  0.00  0.00     0.281 C 
HETATM    3  O   UNK     0       9.503   2.503   6.466  0.00  0.00    -0.268 OA
ENDROOT
BRANCH   2   4
HETATM    4  C   UNK     0       8.531   4.102   7.874  0.00  0.00     0.219 C 
BRANCH   4   5
HETATM    5  N   UNK     0       8.522   4.974   6.739  0.00  0.00    -0.221 N 
HETATM    6  C   UNK     0       9.458   5.885   6.416  0.00  0.00     0.114 A 
HETATM    7  C   UNK     0       9.036   6.464   5.228  0.00  0.00     0.101 A 
HETATM    8  N   UNK     0       7.871   5.875   4.920  0.00  0.00    -0.133 NA
HETATM    9  N   UNK     0       7.596   4.995   5.831  0.00  0.00    -0.064 NA
BRANCH   7  10
HETATM   10  C   UNK     0       9.705   7.512   4.428  0.00  0.00     0.054 C 
BRANCH  10  11
HETATM   11  C   UNK     0       9.242   7.507   2.946  0.00  0.00     0.033 C 
BRANCH  11  12
HETATM   12  C   UNK     0      10.390   7.365   2.006  0.00  0.00    -0.022 A 
HETATM   13  C   UNK     0      10.493   8.187   0.858  0.00  0.00    -0.004 A 
HETATM   14  C   UNK     0      11.590   8.067  -0.017  0.00  0.00    -0.000 A 
HETATM   15  C   UNK     0      12.597   7.120   0.241  0.00  0.00     0.000 A 
HETATM   16  C   UNK     0      12.503   6.288   1.372  0.00  0.00    -0.000 A 
HETATM   17  C   UNK     0      11.407   6.409   2.247  0.00  0.00    -0.004 A 
ENDBRANCH  11  12
ENDBRANCH  10  11
ENDBRANCH   7  10
ENDBRANCH   4   5
ENDBRANCH   2   4
BRANCH   1  18
HETATM   18  C   UNK     0       7.361   1.543   9.051  0.00  0.00     0.146 C 
HETATM   19  C   UNK     0       7.856   1.559  10.312  0.00  0.00     0.162 C 
HETATM   20  C   UNK     0       7.013   1.416  11.420  0.00  0.00     0.217 C 
HETATM   21  N   UNK     0       9.161   1.668  10.528  0.00  0.00    -0.143 N 
HETATM   22  C   UNK     0       5.642   1.072  11.229  0.00  0.00     0.044 A 
HETATM   23  O   UNK     0       7.468   1.572  12.579  0.00  0.00    -0.285 OA
HETATM   24  C   UNK     0       4.812   0.664  12.300  0.00  0.00     0.003 A 
HETATM   25  C   UNK     0       5.106   1.110   9.911  0.00  0.00     0.044 A 
HETATM   26  C   UNK     0       3.474   0.298  12.069  0.00  0.00     0.000 A 
HETATM   27  C   UNK     0       2.941   0.354  10.771  0.00  0.00     0.000 A 
HETATM   28  C   UNK     0       3.749   0.765   9.698  0.00  0.00     0.003 A 
HETATM   29  C   UNK     0       5.975   1.463   8.836  0.00  0.00     0.215 C 
HETATM   30  O   UNK     0       5.504   1.691   7.695  0.00  0.00    -0.285 OA
ENDBRANCH   1  18
TORSDOF 6
ENDMDL
MODEL 4
REMARK VINA RESULT:      -7.7     19.766     21.754
REMARK  6 active torsions:
REMARK  status: ('A' for Active; 'I' for Inactive)
REMARK    1  A    between atoms: C_9  and  N_13 
REMARK       I    between atoms: N_13  and  C_14 
REMARK    2  A    between atoms: C_14  and  C_17 
REMARK    3  A    between atoms: C_17  and  N_18 
REMARK    4  A    between atoms: C_20  and  C_23 
REMARK    5  A    between atoms: C_23  and  C_24 
REMARK    6  A    between atoms: C_24  and  C_25 
ROOT
HETATM    1  N   UNK     0      -6.883   7.031  -2.609  0.00  0.00    -0.205 NA
HETATM    2  C   UNK     0      -7.679   8.093  -2.929  0.00  0.00     0.281 C 
HETATM    3  O   UNK     0      -7.529   9.118  -2.228  0.00  0.00    -0.268 OA
ENDROOT
BRANCH   2   4
HETATM    4  C   UNK     0      -8.643   8.167  -4.055  0.00  0.00     0.219 C 
BRANCH   4   5
HETATM    5  N   UNK     0      -9.852   7.471  -3.738  0.00  0.00    -0.221 N 
HETATM    6  C   UNK     0     -10.602   6.735  -4.578  0.00  0.00     0.114 A 
HETATM    7  C   UNK     0     -11.651   6.236  -3.821  0.00  0.00     0.101 A 
HETATM    8  N   UNK     0     -11.473   6.712  -2.579  0.00  0.00    -0.133 NA
HETATM    9  N   UNK     0     -10.397   7.436  -2.561  0.00  0.00    -0.064 NA
BRANCH   7  10
HETATM   10  C   UNK     0     -12.755   5.352  -4.249  0.00  0.00     0.054 C 
BRANCH  10  11
HETATM   11  C   UNK     0     -12.489   3.863  -3.899  0.00  0.00     0.033 C 
BRANCH  11  12
HETATM   12  C   UNK     0     -12.241   3.042  -5.117  0.00  0.00    -0.022 A 
HETATM   13  C   UNK     0     -11.529   3.576  -6.219  0.00  0.00    -0.004 A 
HETATM   14  C   UNK     0     -11.275   2.791  -7.360  0.00  0.00    -0.000 A 
HETATM   15  C   UNK     0     -11.733   1.463  -7.419  0.00  0.00     0.000 A 
HETATM   16  C   UNK     0     -12.450   0.922  -6.337  0.00  0.00    -0.000 A 
HETATM   17  C   UNK     0     -12.703   1.706  -5.195  0.00  0.00    -0.004 A 
ENDBRANCH  11  12
ENDBRANCH  10  11
ENDBRANCH   7  10
ENDBRANCH   4   5
ENDBRANCH   2   4
BRANCH   1  18
HETATM   18  C   UNK     0      -6.838   5.848  -3.237  0.00  0.00     0.146 C 
HETATM   19  C   UNK     0      -5.980   5.678  -4.271  0.00  0.00     0.162 C 
HETATM   20  C   UNK     0      -5.977   4.495  -5.020  0.00  0.00     0.217 C 
HETATM   21  N   UNK     0      -5.148   6.648  -4.630  0.00  0.00    -0.143 N 
HETATM   22  C   UNK     0      -7.001   3.524  -4.815  0.00  0.00     0.044 A 
HETATM   23  O   UNK     0      -5.086   4.299  -5.882  0.00  0.00    -0.285 OA
HETATM   24  C   UNK     0      -7.201   2.442  -5.706  0.00  0.00     0.003 A 
HETATM   25  C   UNK     0      -7.867   3.670  -3.695  0.00  0.00     0.044 A 
HETATM   26  C   UNK     0      -8.243   1.522  -5.492  0.00  0.00     0.000 A 
HETATM   27  C   UNK     0      -9.086   1.657  -4.376  0.00  0.00     0.000 A 
HETATM   28  C   UNK     0      -8.895   2.720  -3.478  0.00  0.00     0.003 A 
HETATM   29  C   UNK     0      -7.690   4.801  -2.845  0.00  0.00     0.215 C 
HETATM   30  O   UNK     0      -8.302   4.869  -1.752  0.00  0.00    -0.285 OA
ENDBRANCH   1  18
TORSDOF 6
ENDMDL
MODEL 5
REMARK VINA RESULT:      -7.6     11.286     14.899
REMARK  6 active torsions:
REMARK  status: ('A' for Active; 'I' for Inactive)
REMARK    1  A    between atoms: C_9  and  N_13 
REMARK       I    between atoms: N_13  and  C_14 
REMARK    2  A    between atoms: C_14  and  C_17 
REMARK    3  A    between atoms: C_17  and  N_18 
REMARK    4  A    between atoms: C_20  and  C_23 
REMARK    5  A    between atoms: C_23  and  C_24 
REMARK    6  A    between atoms: C_24  and  C_25 
ROOT
HETATM    1  N   UNK     0       6.580   5.040  -6.837  0.00  0.00    -0.205 NA
HETATM    2  C   UNK     0       7.217   4.046  -6.149  0.00  0.00     0.281 C 
HETATM    3  O   UNK     0       7.722   3.138  -6.846  0.00  0.00    -0.268 OA
ENDROOT
BRANCH   2   4
HETATM    4  C   UNK     0       7.421   3.978  -4.681  0.00  0.00     0.219 C 
BRANCH   4   5
HETATM    5  N   UNK     0       7.381   2.623  -4.224  0.00  0.00    -0.221 N 
HETATM    6  C   UNK     0       8.413   1.903  -3.746  0.00  0.00     0.114 A 
HETATM    7  C   UNK     0       7.892   0.664  -3.405  0.00  0.00     0.101 A 
HETATM    8  N   UNK     0       6.586   0.712  -3.709  0.00  0.00    -0.133 NA
HETATM    9  N   UNK     0       6.314   1.886  -4.188  0.00  0.00    -0.064 NA
BRANCH   7  10
HETATM   10  C   UNK     0       8.591  -0.497  -2.816  0.00  0.00     0.054 C 
BRANCH  10  11
HETATM   11  C   UNK     0       8.231  -0.707  -1.321  0.00  0.00     0.033 C 
BRANCH  11  12
HETATM   12  C   UNK     0       8.933  -1.886  -0.740  0.00  0.00    -0.022 A 
HETATM   13  C   UNK     0      10.188  -1.741  -0.101  0.00  0.00    -0.004 A 
HETATM   14  C   UNK     0      10.839  -2.851   0.468  0.00  0.00    -0.000 A 
HETATM   15  C   UNK     0      10.249  -4.126   0.401  0.00  0.00     0.000 A 
HETATM   16  C   UNK     0       9.008  -4.289  -0.241  0.00  0.00    -0.000 A 
HETATM   17  C   UNK     0       8.355  -3.177  -0.808  0.00  0.00    -0.004 A 
ENDBRANCH  11  12
ENDBRANCH  10  11
ENDBRANCH   7  10
ENDBRANCH   4   5
ENDBRANCH   2   4
BRANCH   1  18
HETATM   18  C   UNK     0       6.001   6.128  -6.313  0.00  0.00     0.146 C 
HETATM   19  C   UNK     0       4.675   6.105  -6.036  0.00  0.00     0.162 C 
HETATM   20  C   UNK     0       4.012   7.253  -5.587  0.00  0.00     0.217 C 
HETATM   21  N   UNK     0       3.960   5.002  -6.225  0.00  0.00    -0.143 N 
HETATM   22  C   UNK     0       4.688   8.509  -5.586  0.00  0.00     0.044 A 
HETATM   23  O   UNK     0       2.818   7.180  -5.204  0.00  0.00    -0.285 OA
HETATM   24  C   UNK     0       4.003   9.733  -5.393  0.00  0.00     0.003 A 
HETATM   25  C   UNK     0       6.092   8.529  -5.820  0.00  0.00     0.044 A 
HETATM   26  C   UNK     0       4.697  10.955  -5.434  0.00  0.00     0.000 A 
HETATM   27  C   UNK     0       6.085  10.972  -5.646  0.00  0.00     0.000 A 
HETATM   28  C   UNK     0       6.781   9.765  -5.831  0.00  0.00     0.003 A 
HETATM   29  C   UNK     0       6.753   7.291  -6.075  0.00  0.00     0.215 C 
HETATM   30  O   UNK     0       8.007   7.241  -6.100  0.00  0.00    -0.285 OA
ENDBRANCH   1  18
TORSDOF 6
ENDMDL
MODEL 6
REMARK VINA RESULT:      -7.6     14.726     17.601
REMARK  6 active torsions:
REMARK  status: ('A' for Active; 'I' for Inactive)
REMARK    1  A    between atoms: C_9  and  N_13 
REMARK       I    between atoms: N_13  and  C_14 
REMARK    2  A    between atoms: C_14  and  C_17 
REMARK    3  A    between atoms: C_17  and  N_18 
REMARK    4  A    between atoms: C_20  and  C_23 
REMARK    5  A    between atoms: C_23  and  C_24 
REMARK    6  A    between atoms: C_24  and  C_25 
ROOT
HETATM    1  N   UNK     0      -6.638   9.114  -1.576  0.00  0.00    -0.205 NA
HETATM    2  C   UNK     0      -5.592   9.456  -0.767  0.00  0.00     0.281 C 
HETATM    3  O   UNK     0      -5.591  10.635  -0.347  0.00  0.00    -0.268 OA
ENDROOT
BRANCH   2   4
HETATM    4  C   UNK     0      -4.512   8.558  -0.291  0.00  0.00     0.219 C 
BRANCH   4   5
HETATM    5  N   UNK     0      -4.380   8.629   1.132  0.00  0.00    -0.221 N 
HETATM    6  C   UNK     0      -5.260   8.182   2.047  0.00  0.00     0.114 A 
HETATM    7  C   UNK     0      -4.694   8.443   3.285  0.00  0.00     0.101 A 
HETATM    8  N   UNK     0      -3.518   9.040   3.039  0.00  0.00    -0.133 NA
HETATM    9  N   UNK     0      -3.359   9.132   1.756  0.00  0.00    -0.064 NA
BRANCH   7  10
HETATM   10  C   UNK     0      -5.235   8.136   4.626  0.00  0.00     0.054 C 
BRANCH  10  11
HETATM   11  C   UNK     0      -4.351   8.712   5.765  0.00  0.00     0.033 C 
BRANCH  11  12
HETATM   12  C   UNK     0      -4.183   7.741   6.883  0.00  0.00    -0.022 A 
HETATM   13  C   UNK     0      -3.006   7.738   7.671  0.00  0.00    -0.004 A 
HETATM   14  C   UNK     0      -2.859   6.836   8.741  0.00  0.00    -0.000 A 
HETATM   15  C   UNK     0      -3.884   5.920   9.037  0.00  0.00     0.000 A 
HETATM   16  C   UNK     0      -5.055   5.903   8.257  0.00  0.00    -0.000 A 
HETATM   17  C   UNK     0      -5.203   6.807   7.187  0.00  0.00    -0.004 A 
ENDBRANCH  11  12
ENDBRANCH  10  11
ENDBRANCH   7  10
ENDBRANCH   4   5
ENDBRANCH   2   4
BRANCH   1  18
HETATM   18  C   UNK     0      -6.871   7.908  -2.111  0.00  0.00     0.146 C 
HETATM   19  C   UNK     0      -7.620   7.012  -1.426  0.00  0.00     0.162 C 
HETATM   20  C   UNK     0      -7.800   5.708  -1.901  0.00  0.00     0.217 C 
HETATM   21  N   UNK     0      -8.169   7.335  -0.261  0.00  0.00    -0.143 N 
HETATM   22  C   UNK     0      -7.048   5.252  -3.025  0.00  0.00     0.044 A 
HETATM   23  O   UNK     0      -8.608   4.936  -1.329  0.00  0.00    -0.285 OA
HETATM   24  C   UNK     0      -6.993   3.886  -3.390  0.00  0.00     0.003 A 
HETATM   25  C   UNK     0      -6.306   6.203  -3.781  0.00  0.00     0.044 A 
HETATM   26  C   UNK     0      -6.213   3.468  -4.482  0.00  0.00     0.000 A 
HETATM   27  C   UNK     0      -5.496   4.409  -5.239  0.00  0.00     0.000 A 
HETATM   28  C   UNK     0      -5.548   5.771  -4.895  0.00  0.00     0.003 A 
HETATM   29  C   UNK     0      -6.325   7.566  -3.360  0.00  0.00     0.215 C 
HETATM   30  O   UNK     0      -5.843   8.459  -4.098  0.00  0.00    -0.285 OA
ENDBRANCH   1  18
TORSDOF 6
ENDMDL
MODEL 7
REMARK VINA RESULT:      -7.5     15.782     18.309
REMARK  6 active torsions:
REMARK  status: ('A' for Active; 'I' for Inactive)
REMARK    1  A    between atoms: C_9  and  N_13 
REMARK       I    between atoms: N_13  and  C_14 
REMARK    2  A    between atoms: C_14  and  C_17 
REMARK    3  A    between atoms: C_17  and  N_18 
REMARK    4  A    between atoms: C_20  and  C_23 
REMARK    5  A    between atoms: C_23  and  C_24 
REMARK    6  A    between atoms: C_24  and  C_25 
ROOT
HETATM    1  N   UNK     0      -7.006   8.124  -3.136  0.00  0.00    -0.205 NA
HETATM    2  C   UNK     0      -6.773   8.457  -1.833  0.00  0.00     0.281 C 
HETATM    3  O   UNK     0      -6.491   9.657  -1.617  0.00  0.00    -0.268 OA
ENDROOT
BRANCH   2   4
HETATM    4  C   UNK     0      -6.886   7.558  -0.657  0.00  0.00     0.219 C 
BRANCH   4   5
HETATM    5  N   UNK     0      -5.874   7.855   0.310  0.00  0.00    -0.221 N 
HETATM    6  C   UNK     0      -6.067   8.223   1.591  0.00  0.00     0.114 A 
HETATM    7  C   UNK     0      -4.803   8.374   2.141  0.00  0.00     0.101 A 
HETATM    8  N   UNK     0      -3.933   8.101   1.158  0.00  0.00    -0.133 NA
HETATM    9  N   UNK     0      -4.598   7.793   0.088  0.00  0.00    -0.064 NA
BRANCH   7  10
HETATM   10  C   UNK     0      -4.442   8.749   3.525  0.00  0.00     0.054 C 
BRANCH  10  11
HETATM   11  C   UNK     0      -5.481   8.244   4.563  0.00  0.00     0.033 C 
BRANCH  11  12
HETATM   12  C   UNK     0      -4.838   7.869   5.854  0.00  0.00    -0.022 A 
HETATM   13  C   UNK     0      -5.570   7.191   6.859  0.00  0.00    -0.004 A 
HETATM   14  C   UNK     0      -4.955   6.816   8.068  0.00  0.00    -0.000 A 
HETATM   15  C   UNK     0      -3.601   7.120   8.294  0.00  0.00     0.000 A 
HETATM   16  C   UNK     0      -2.863   7.803   7.310  0.00  0.00    -0.000 A 
HETATM   17  C   UNK     0      -3.477   8.175   6.099  0.00  0.00    -0.004 A 
ENDBRANCH  11  12
ENDBRANCH  10  11
ENDBRANCH   7  10
ENDBRANCH   4   5
ENDBRANCH   2   4
BRANCH   1  18
HETATM   18  C   UNK     0      -7.358   6.918  -3.601  0.00  0.00     0.146 C 
HETATM   19  C   UNK     0      -8.670   6.582  -3.647  0.00  0.00     0.162 C 
HETATM   20  C   UNK     0      -9.072   5.297  -4.027  0.00  0.00     0.217 C 
HETATM   21  N   UNK     0      -9.607   7.451  -3.289  0.00  0.00    -0.143 N 
HETATM   22  C   UNK     0      -8.097   4.269  -4.200  0.00  0.00     0.044 A 
HETATM   23  O   UNK     0     -10.290   5.044  -4.197  0.00  0.00    -0.285 OA
HETATM   24  C   UNK     0      -8.455   2.906  -4.328  0.00  0.00     0.003 A 
HETATM   25  C   UNK     0      -6.721   4.630  -4.210  0.00  0.00     0.044 A 
HETATM   26  C   UNK     0      -7.465   1.916  -4.461  0.00  0.00     0.000 A 
HETATM   27  C   UNK     0      -6.107   2.275  -4.490  0.00  0.00     0.000 A 
HETATM   28  C   UNK     0      -5.737   3.625  -4.373  0.00  0.00     0.003 A 
HETATM   29  C   UNK     0      -6.378   6.001  -4.017  0.00  0.00     0.215 C 
HETATM   30  O   UNK     0      -5.199   6.388  -4.204  0.00  0.00    -0.285 OA
ENDBRANCH   1  18
TORSDOF 6
ENDMDL
MODEL 8
REMARK VINA RESULT:      -7.5     14.113     15.669
REMARK  6 active torsions:
REMARK  status: ('A' for Active; 'I' for Inactive)
REMARK    1  A    between atoms: C_9  and  N_13 
REMARK       I    between atoms: N_13  and  C_14 
REMARK    2  A    between atoms: C_14  and  C_17 
REMARK    3  A    between atoms: C_17  and  N_18 
REMARK    4  A    between atoms: C_20  and  C_23 
REMARK    5  A    between atoms: C_23  and  C_24 
REMARK    6  A    between atoms: C_24  and  C_25 
ROOT
HETATM    1  N   UNK     0      -4.469  10.040   3.766  0.00  0.00    -0.205 NA
HETATM    2  C   UNK     0      -4.306   9.779   2.436  0.00  0.00     0.281 C 
HETATM    3  O   UNK     0      -4.167  10.779   1.696  0.00  0.00    -0.268 OA
ENDROOT
BRANCH   2   4
HETATM    4  C   UNK     0      -4.214   8.440   1.802  0.00  0.00     0.219 C 
BRANCH   4   5
HETATM    5  N   UNK     0      -5.336   8.202   0.948  0.00  0.00    -0.221 N 
HETATM    6  C   UNK     0      -5.301   7.876  -0.357  0.00  0.00     0.114 A 
HETATM    7  C   UNK     0      -6.622   7.719  -0.750  0.00  0.00     0.101 A 
HETATM    8  N   UNK     0      -7.366   7.971   0.337  0.00  0.00    -0.133 NA
HETATM    9  N   UNK     0      -6.576   8.250   1.326  0.00  0.00    -0.064 NA
BRANCH   7  10
HETATM   10  C   UNK     0      -7.146   7.343  -2.080  0.00  0.00     0.054 C 
BRANCH  10  11
HETATM   11  C   UNK     0      -7.495   5.833  -2.172  0.00  0.00     0.033 C 
BRANCH  11  12
HETATM   12  C   UNK     0      -6.740   5.154  -3.262  0.00  0.00    -0.022 A 
HETATM   13  C   UNK     0      -6.754   3.744  -3.386  0.00  0.00    -0.004 A 
HETATM   14  C   UNK     0      -6.060   3.105  -4.431  0.00  0.00    -0.000 A 
HETATM   15  C   UNK     0      -5.336   3.867  -5.365  0.00  0.00     0.000 A 
HETATM   16  C   UNK     0      -5.303   5.269  -5.250  0.00  0.00    -0.000 A 
HETATM   17  C   UNK     0      -5.999   5.907  -4.206  0.00  0.00    -0.004 A 
ENDBRANCH  11  12
ENDBRANCH  10  11
ENDBRANCH   7  10
ENDBRANCH   4   5
ENDBRANCH   2   4
BRANCH   1  18
HETATM   18  C   UNK     0      -4.599   9.137   4.747  0.00  0.00     0.146 C 
HETATM   19  C   UNK     0      -5.838   8.778   5.159  0.00  0.00     0.162 C 
HETATM   20  C   UNK     0      -6.016   7.919   6.249  0.00  0.00     0.217 C 
HETATM   21  N   UNK     0      -6.920   9.269   4.566  0.00  0.00    -0.143 N 
HETATM   22  C   UNK     0      -4.896   7.550   7.052  0.00  0.00     0.044 A 
HETATM   23  O   UNK     0      -7.161   7.488   6.530  0.00  0.00    -0.285 OA
HETATM   24  C   UNK     0      -5.046   6.903   8.302  0.00  0.00     0.003 A 
HETATM   25  C   UNK     0      -3.589   7.875   6.591  0.00  0.00     0.044 A 
HETATM   26  C   UNK     0      -3.921   6.586   9.083  0.00  0.00     0.000 A 
HETATM   27  C   UNK     0      -2.630   6.890   8.619  0.00  0.00     0.000 A 
HETATM   28  C   UNK     0      -2.464   7.524   7.376  0.00  0.00     0.003 A 
HETATM   29  C   UNK     0      -3.462   8.583   5.359  0.00  0.00     0.215 C 
HETATM   30  O   UNK     0      -2.334   8.723   4.827  0.00  0.00    -0.285 OA
ENDBRANCH   1  18
TORSDOF 6
ENDMDL
MODEL 9
REMARK VINA RESULT:      -7.4     11.168     15.487
REMARK  6 active torsions:
REMARK  status: ('A' for Active; 'I' for Inactive)
REMARK    1  A    between atoms: C_9  and  N_13 
REMARK       I    between atoms: N_13  and  C_14 
REMARK    2  A    between atoms: C_14  and  C_17 
REMARK    3  A    between atoms: C_17  and  N_18 
REMARK    4  A    between atoms: C_20  and  C_23 
REMARK    5  A    between atoms: C_23  and  C_24 
REMARK    6  A    between atoms: C_24  and  C_25 
ROOT
HETATM    1  N   UNK     0       6.389   5.089  -6.265  0.00  0.00    -0.205 NA
HETATM    2  C   UNK     0       6.824   5.144  -4.972  0.00  0.00     0.281 C 
HETATM    3  O   UNK     0       6.154   5.866  -4.200  0.00  0.00    -0.268 OA
ENDROOT
BRANCH   2   4
HETATM    4  C   UNK     0       7.959   4.386  -4.388  0.00  0.00     0.219 C 
BRANCH   4   5
HETATM    5  N   UNK     0       7.583   3.032  -4.121  0.00  0.00    -0.221 N 
HETATM    6  C   UNK     0       8.403   2.021  -3.775  0.00  0.00     0.114 A 
HETATM    7  C   UNK     0       7.590   0.912  -3.594  0.00  0.00     0.101 A 
HETATM    8  N   UNK     0       6.339   1.321  -3.853  0.00  0.00    -0.133 NA
HETATM    9  N   UNK     0       6.368   2.581  -4.158  0.00  0.00    -0.064 NA
BRANCH   7  10
HETATM   10  C   UNK     0       7.979  -0.455  -3.189  0.00  0.00     0.054 C 
BRANCH  10  11
HETATM   11  C   UNK     0       8.349  -0.543  -1.684  0.00  0.00     0.033 C 
BRANCH  11  12
HETATM   12  C   UNK     0       8.771  -1.918  -1.295  0.00  0.00    -0.022 A 
HETATM   13  C   UNK     0       9.158  -2.209   0.036  0.00  0.00    -0.004 A 
HETATM   14  C   UNK     0       9.533  -3.514   0.407  0.00  0.00    -0.000 A 
HETATM   15  C   UNK     0       9.534  -4.546  -0.547  0.00  0.00     0.000 A 
HETATM   16  C   UNK     0       9.163  -4.271  -1.876  0.00  0.00    -0.000 A 
HETATM   17  C   UNK     0       8.785  -2.966  -2.247  0.00  0.00    -0.004 A 
ENDBRANCH  11  12
ENDBRANCH  10  11
ENDBRANCH   7  10
ENDBRANCH   4   5
ENDBRANCH   2   4
BRANCH   1  18
HETATM   18  C   UNK     0       6.919   4.359  -7.255  0.00  0.00     0.146 C 
HETATM   19  C   UNK     0       6.248   3.276  -7.714  0.00  0.00     0.162 C 
HETATM   20  C   UNK     0       6.813   2.428  -8.673  0.00  0.00     0.217 C 
HETATM   21  N   UNK     0       5.050   2.965  -7.232  0.00  0.00    -0.143 N 
HETATM   22  C   UNK     0       8.180   2.594  -9.049  0.00  0.00     0.044 A 
HETATM   23  O   UNK     0       6.125   1.513  -9.187  0.00  0.00    -0.285 OA
HETATM   24  C   UNK     0       8.875   1.623  -9.808  0.00  0.00     0.003 A 
HETATM   25  C   UNK     0       8.870   3.760  -8.615  0.00  0.00     0.044 A 
HETATM   26  C   UNK     0      10.231   1.803 -10.131  0.00  0.00     0.000 A 
HETATM   27  C   UNK     0      10.907   2.963  -9.718  0.00  0.00     0.000 A 
HETATM   28  C   UNK     0      10.229   3.941  -8.971  0.00  0.00     0.003 A 
HETATM   29  C   UNK     0       8.171   4.697  -7.798  0.00  0.00     0.215 C 
HETATM   30  O   UNK     0       8.677   5.819  -7.552  0.00  0.00    -0.285 OA
ENDBRANCH   1  18
TORSDOF 6
ENDMDL
