MODEL 1
REMARK VINA RESULT:      -7.6      0.000      0.000
REMARK  6 active torsions:
REMARK  status: ('A' for Active; 'I' for Inactive)
REMARK    1  A    between atoms: C_9  and  N_13 
REMARK       I    between atoms: N_13  and  C_14 
REMARK    2  A    between atoms: C_14  and  C_17 
REMARK    3  A    between atoms: C_17  and  N_18 
REMARK    4  A    between atoms: C_20  and  C_23 
REMARK    5  A    between atoms: C_23  and  O_24 
REMARK    6  A    between atoms: O_24  and  C_26 
ROOT
HETATM    1  N   UNK     0      -4.482   7.974  -2.578  0.00  0.00    -0.205 NA
HETATM    2  C   UNK     0      -5.602   8.115  -3.349  0.00  0.00     0.281 C 
HETATM    3  O   UNK     0      -6.556   8.854  -3.001  0.00  0.00    -0.268 OA
ENDROOT
BRANCH   1   4
HETATM    4  C   UNK     0      -4.234   8.645  -1.445  0.00  0.00     0.146 C 
HETATM    5  C   UNK     0      -3.442   9.744  -1.472  0.00  0.00     0.162 C 
HETATM    6  C   UNK     0      -3.106  10.422  -0.291  0.00  0.00     0.217 C 
HETATM    7  N   UNK     0      -2.946  10.179  -2.624  0.00  0.00    -0.143 N 
HETATM    8  C   UNK     0      -3.514   9.902   0.978  0.00  0.00     0.044 A 
HETATM    9  O   UNK     0      -2.435  11.481  -0.349  0.00  0.00    -0.285 OA
HETATM   10  C   UNK     0      -3.087  10.470   2.203  0.00  0.00     0.003 A 
HETATM   11  C   UNK     0      -4.377   8.770   1.003  0.00  0.00     0.044 A 
HETATM   12  C   UNK     0      -3.495   9.918   3.429  0.00  0.00     0.000 A 
HETATM   13  C   UNK     0      -4.340   8.797   3.451  0.00  0.00     0.000 A 
HETATM   14  C   UNK     0      -4.784   8.231   2.246  0.00  0.00     0.003 A 
HETATM   15  C   UNK     0      -4.805   8.215  -0.237  0.00  0.00     0.215 C 
HETATM   16  O   UNK     0      -5.727   7.361  -0.254  0.00  0.00    -0.285 OA
ENDBRANCH   1   4
BRANCH   2  17
HETATM   17  C   UNK     0      -5.690   7.382  -4.627  0.00  0.00     0.219 C 
BRANCH  17  18
HETATM   18  N   UNK     0      -5.768   5.971  -4.417  0.00  0.00    -0.221 N 
HETATM   19  C   UNK     0      -5.434   5.007  -5.290  0.00  0.00     0.124 A 
HETATM   20  C   UNK     0      -5.704   3.802  -4.657  0.00  0.00     0.186 A 
HETATM   21  N   UNK     0      -6.177   4.118  -3.442  0.00  0.00    -0.123 NA
HETATM   22  N   UNK     0      -6.199   5.410  -3.329  0.00  0.00    -0.063 NA
BRANCH  20  23
HETATM   23  C   UNK     0      -5.527   2.498  -5.145  0.00  0.00     0.317 C 
HETATM   24  O   UNK     0      -4.396   2.154  -5.561  0.00  0.00    -0.257 OA
BRANCH  23  25
HETATM   25  O   UNK     0      -6.573   1.622  -5.173  0.00  0.00    -0.297 OA
BRANCH  25  26
HETATM   26  C   UNK     0      -7.910   1.927  -5.591  0.00  0.00     0.152 C 
HETATM   27  C   UNK     0      -8.905   1.542  -4.484  0.00  0.00     0.035 C 
ENDBRANCH  25  26
ENDBRANCH  23  25
ENDBRANCH  20  23
ENDBRANCH  17  18
ENDBRANCH   2  17
TORSDOF 6
ENDMDL
MODEL 2
REMARK VINA RESULT:      -7.5      2.894      8.770
REMARK  6 active torsions:
REMARK  status: ('A' for Active; 'I' for Inactive)
REMARK    1  A    between atoms: C_9  and  N_13 
REMARK       I    between atoms: N_13  and  C_14 
REMARK    2  A    between atoms: C_14  and  C_17 
REMARK    3  A    between atoms: C_17  and  N_18 
REMARK    4  A    between atoms: C_20  and  C_23 
REMARK    5  A    between atoms: C_23  and  O_24 
REMARK    6  A    between atoms: O_24  and  C_26 
ROOT
HETATM    1  N   UNK     0      -8.198   6.888  -2.299  0.00  0.00    -0.205 NA
HETATM    2  C   UNK     0      -8.342   6.787  -0.943  0.00  0.00     0.281 C 
HETATM    3  O   UNK     0      -8.713   5.719  -0.396  0.00  0.00    -0.268 OA
ENDROOT
BRANCH   1   4
HETATM    4  C   UNK     0      -8.345   5.881  -3.170  0.00  0.00     0.146 C 
HETATM    5  C   UNK     0      -9.555   5.649  -3.734  0.00  0.00     0.162 C 
HETATM    6  C   UNK     0      -9.755   4.557  -4.592  0.00  0.00     0.217 C 
HETATM    7  N   UNK     0     -10.582   6.443  -3.456  0.00  0.00    -0.143 N 
HETATM    8  C   UNK     0      -8.706   3.609  -4.806  0.00  0.00     0.044 A 
HETATM    9  O   UNK     0     -10.863   4.408  -5.163  0.00  0.00    -0.285 OA
HETATM   10  C   UNK     0      -8.899   2.420  -5.550  0.00  0.00     0.003 A 
HETATM   11  C   UNK     0      -7.426   3.874  -4.243  0.00  0.00     0.044 A 
HETATM   12  C   UNK     0      -7.848   1.503  -5.721  0.00  0.00     0.000 A 
HETATM   13  C   UNK     0      -6.588   1.763  -5.160  0.00  0.00     0.000 A 
HETATM   14  C   UNK     0      -6.375   2.944  -4.432  0.00  0.00     0.003 A 
HETATM   15  C   UNK     0      -7.243   5.078  -3.505  0.00  0.00     0.215 C 
HETATM   16  O   UNK     0      -6.086   5.444  -3.182  0.00  0.00    -0.285 OA
ENDBRANCH   1   4
BRANCH   2  17
HETATM   17  C   UNK     0      -8.049   7.962  -0.101  0.00  0.00     0.219 C 
BRANCH  17  18
HETATM   18  N   UNK     0      -6.671   8.008   0.272  0.00  0.00    -0.221 N 
HETATM   19  C   UNK     0      -6.168   8.409   1.450  0.00  0.00     0.124 A 
HETATM   20  C   UNK     0      -4.788   8.307   1.337  0.00  0.00     0.186 A 
HETATM   21  N   UNK     0      -4.551   7.844   0.100  0.00  0.00    -0.123 NA
HETATM   22  N   UNK     0      -5.685   7.674  -0.504  0.00  0.00    -0.063 NA
BRANCH  20  23
HETATM   23  C   UNK     0      -3.806   8.605   2.294  0.00  0.00     0.317 C 
HETATM   24  O   UNK     0      -3.003   9.539   2.069  0.00  0.00    -0.257 OA
BRANCH  23  25
HETATM   25  O   UNK     0      -3.723   7.880   3.448  0.00  0.00    -0.297 OA
BRANCH  25  26
HETATM   26  C   UNK     0      -4.171   8.309   4.740  0.00  0.00     0.152 C 
HETATM   27  C   UNK     0      -2.993   8.309   5.729  0.00  0.00     0.035 C 
ENDBRANCH  25  26
ENDBRANCH  23  25
ENDBRANCH  20  23
ENDBRANCH  17  18
ENDBRANCH   2  17
TORSDOF 6
ENDMDL
MODEL 3
REMARK VINA RESULT:      -7.4      2.088      8.407
REMARK  6 active torsions:
REMARK  status: ('A' for Active; 'I' for Inactive)
REMARK    1  A    between atoms: C_9  and  N_13 
REMARK       I    between atoms: N_13  and  C_14 
REMARK    2  A    between atoms: C_14  and  C_17 
REMARK    3  A    between atoms: C_17  and  N_18 
REMARK    4  A    between atoms: C_20  and  C_23 
REMARK    5  A    between atoms: C_23  and  O_24 
REMARK    6  A    between atoms: O_24  and  C_26 
ROOT
HETATM    1  N   UNK     0      -6.027   5.997  -3.234  0.00  0.00    -0.205 NA
HETATM    2  C   UNK     0      -6.429   7.285  -3.454  0.00  0.00     0.281 C 
HETATM    3  O   UNK     0      -7.379   7.558  -4.228  0.00  0.00    -0.268 OA
ENDROOT
BRANCH   1   4
HETATM    4  C   UNK     0      -6.624   4.905  -3.729  0.00  0.00     0.146 C 
HETATM    5  C   UNK     0      -6.080   4.262  -4.790  0.00  0.00     0.162 C 
HETATM    6  C   UNK     0      -6.722   3.160  -5.375  0.00  0.00     0.217 C 
HETATM    7  N   UNK     0      -4.936   4.688  -5.311  0.00  0.00    -0.143 N 
HETATM    8  C   UNK     0      -8.019   2.760  -4.922  0.00  0.00     0.044 A 
HETATM    9  O   UNK     0      -6.161   2.534  -6.307  0.00  0.00    -0.285 OA
HETATM   10  C   UNK     0      -8.766   1.745  -5.567  0.00  0.00     0.003 A 
HETATM   11  C   UNK     0      -8.572   3.412  -3.784  0.00  0.00     0.044 A 
HETATM   12  C   UNK     0     -10.046   1.394  -5.102  0.00  0.00     0.000 A 
HETATM   13  C   UNK     0     -10.592   2.043  -3.984  0.00  0.00     0.000 A 
HETATM   14  C   UNK     0      -9.858   3.040  -3.324  0.00  0.00     0.003 A 
HETATM   15  C   UNK     0      -7.804   4.424  -3.140  0.00  0.00     0.215 C 
HETATM   16  O   UNK     0      -8.164   4.864  -2.020  0.00  0.00    -0.285 OA
ENDBRANCH   1   4
BRANCH   2  17
HETATM   17  C   UNK     0      -5.732   8.383  -2.757  0.00  0.00     0.219 C 
BRANCH  17  18
HETATM   18  N   UNK     0      -5.912   8.304  -1.343  0.00  0.00    -0.221 N 
HETATM   19  C   UNK     0      -4.952   8.346  -0.405  0.00  0.00     0.124 A 
HETATM   20  C   UNK     0      -5.598   8.207   0.816  0.00  0.00     0.186 A 
HETATM   21  N   UNK     0      -6.905   8.097   0.534  0.00  0.00    -0.123 NA
HETATM   22  N   UNK     0      -7.059   8.162  -0.752  0.00  0.00    -0.063 NA
BRANCH  20  23
HETATM   23  C   UNK     0      -5.041   8.189   2.104  0.00  0.00     0.317 C 
HETATM   24  O   UNK     0      -3.803   8.048   2.228  0.00  0.00    -0.257 OA
BRANCH  23  25
HETATM   25  O   UNK     0      -5.840   8.312   3.204  0.00  0.00    -0.297 OA
BRANCH  25  26
HETATM   26  C   UNK     0      -5.482   8.964   4.430  0.00  0.00     0.152 C 
HETATM   27  C   UNK     0      -5.413   7.933   5.569  0.00  0.00     0.035 C 
ENDBRANCH  25  26
ENDBRANCH  23  25
ENDBRANCH  20  23
ENDBRANCH  17  18
ENDBRANCH   2  17
TORSDOF 6
ENDMDL
MODEL 4
REMARK VINA RESULT:      -7.3     15.373     17.202
REMARK  6 active torsions:
REMARK  status: ('A' for Active; 'I' for Inactive)
REMARK    1  A    between atoms: C_9  and  N_13 
REMARK       I    between atoms: N_13  and  C_14 
REMARK    2  A    between atoms: C_14  and  C_17 
REMARK    3  A    between atoms: C_17  and  N_18 
REMARK    4  A    between atoms: C_20  and  C_23 
REMARK    5  A    between atoms: C_23  and  O_24 
REMARK    6  A    between atoms: O_24  and  C_26 
ROOT
HETATM    1  N   UNK     0       9.067   4.287   7.582  0.00  0.00    -0.205 NA
HETATM    2  C   UNK     0       8.742   2.964   7.703  0.00  0.00     0.281 C 
HETATM    3  O   UNK     0       8.835   2.169   6.736  0.00  0.00    -0.268 OA
ENDROOT
BRANCH   1   4
HETATM    4  C   UNK     0       9.587   4.858   6.487  0.00  0.00     0.146 C 
HETATM    5  C   UNK     0      10.929   4.866   6.305  0.00  0.00     0.162 C 
HETATM    6  C   UNK     0      11.504   5.521   5.205  0.00  0.00     0.217 C 
HETATM    7  N   UNK     0      11.725   4.274   7.186  0.00  0.00    -0.143 N 
HETATM    8  C   UNK     0      10.685   6.280   4.311  0.00  0.00     0.044 A 
HETATM    9  O   UNK     0      12.743   5.450   5.014  0.00  0.00    -0.285 OA
HETATM   10  C   UNK     0      11.230   7.069   3.269  0.00  0.00     0.003 A 
HETATM   11  C   UNK     0       9.273   6.240   4.483  0.00  0.00     0.044 A 
HETATM   12  C   UNK     0      10.392   7.817   2.423  0.00  0.00     0.000 A 
HETATM   13  C   UNK     0       9.000   7.781   2.599  0.00  0.00     0.000 A 
HETATM   14  C   UNK     0       8.443   6.992   3.617  0.00  0.00     0.003 A 
HETATM   15  C   UNK     0       8.738   5.434   5.529  0.00  0.00     0.215 C 
HETATM   16  O   UNK     0       7.504   5.207   5.574  0.00  0.00    -0.285 OA
ENDBRANCH   1   4
BRANCH   2  17
HETATM   17  C   UNK     0       8.273   2.457   9.007  0.00  0.00     0.219 C 
BRANCH  17  18
HETATM   18  N   UNK     0       6.896   2.078   8.958  0.00  0.00    -0.221 N 
HETATM   19  C   UNK     0       6.282   1.171   9.733  0.00  0.00     0.124 A 
HETATM   20  C   UNK     0       4.964   1.122   9.303  0.00  0.00     0.186 A 
HETATM   21  N   UNK     0       4.868   2.009   8.301  0.00  0.00    -0.123 NA
HETATM   22  N   UNK     0       6.028   2.561   8.123  0.00  0.00    -0.063 NA
BRANCH  20  23
HETATM   23  C   UNK     0       3.911   0.332   9.791  0.00  0.00     0.317 C 
HETATM   24  O   UNK     0       3.713  -0.795   9.283  0.00  0.00    -0.257 OA
BRANCH  23  25
HETATM   25  O   UNK     0       3.111   0.791  10.797  0.00  0.00    -0.297 OA
BRANCH  25  26
HETATM   26  C   UNK     0       3.462   0.849  12.186  0.00  0.00     0.152 C 
HETATM   27  C   UNK     0       2.256   0.442  13.048  0.00  0.00     0.035 C 
ENDBRANCH  25  26
ENDBRANCH  23  25
ENDBRANCH  20  23
ENDBRANCH  17  18
ENDBRANCH   2  17
TORSDOF 6
ENDMDL
MODEL 5
REMARK VINA RESULT:      -7.3      2.808      8.699
REMARK  6 active torsions:
REMARK  status: ('A' for Active; 'I' for Inactive)
REMARK    1  A    between atoms: C_9  and  N_13 
REMARK       I    between atoms: N_13  and  C_14 
REMARK    2  A    between atoms: C_14  and  C_17 
REMARK    3  A    between atoms: C_17  and  N_18 
REMARK    4  A    between atoms: C_20  and  C_23 
REMARK    5  A    between atoms: C_23  and  O_24 
REMARK    6  A    between atoms: O_24  and  C_26 
ROOT
HETATM    1  N   UNK     0      -8.111   6.977  -2.422  0.00  0.00    -0.205 NA
HETATM    2  C   UNK     0      -8.223   6.929  -1.060  0.00  0.00     0.281 C 
HETATM    3  O   UNK     0      -8.590   5.888  -0.463  0.00  0.00    -0.268 OA
ENDROOT
BRANCH   1   4
HETATM    4  C   UNK     0      -8.288   5.938  -3.250  0.00  0.00     0.146 C 
HETATM    5  C   UNK     0      -9.518   5.684  -3.758  0.00  0.00     0.162 C 
HETATM    6  C   UNK     0      -9.747   4.561  -4.567  0.00  0.00     0.217 C 
HETATM    7  N   UNK     0     -10.535   6.486  -3.471  0.00  0.00    -0.143 N 
HETATM    8  C   UNK     0      -8.704   3.607  -4.786  0.00  0.00     0.044 A 
HETATM    9  O   UNK     0     -10.875   4.389  -5.090  0.00  0.00    -0.285 OA
HETATM   10  C   UNK     0      -8.922   2.391  -5.478  0.00  0.00     0.003 A 
HETATM   11  C   UNK     0      -7.404   3.894  -4.282  0.00  0.00     0.044 A 
HETATM   12  C   UNK     0      -7.875   1.470  -5.655  0.00  0.00     0.000 A 
HETATM   13  C   UNK     0      -6.596   1.752  -5.152  0.00  0.00     0.000 A 
HETATM   14  C   UNK     0      -6.359   2.960  -4.476  0.00  0.00     0.003 A 
HETATM   15  C   UNK     0      -7.197   5.125  -3.596  0.00  0.00     0.215 C 
HETATM   16  O   UNK     0      -6.030   5.504  -3.331  0.00  0.00    -0.285 OA
ENDBRANCH   1   4
BRANCH   2  17
HETATM   17  C   UNK     0      -7.899   8.133  -0.271  0.00  0.00     0.219 C 
BRANCH  17  18
HETATM   18  N   UNK     0      -6.551   8.103   0.202  0.00  0.00    -0.221 N 
HETATM   19  C   UNK     0      -6.110   8.504   1.404  0.00  0.00     0.124 A 
HETATM   20  C   UNK     0      -4.736   8.311   1.397  0.00  0.00     0.186 A 
HETATM   21  N   UNK     0      -4.440   7.799   0.193  0.00  0.00    -0.123 NA
HETATM   22  N   UNK     0      -5.536   7.684  -0.490  0.00  0.00    -0.063 NA
BRANCH  20  23
HETATM   23  C   UNK     0      -3.808   8.573   2.417  0.00  0.00     0.317 C 
HETATM   24  O   UNK     0      -3.859   7.896   3.471  0.00  0.00    -0.257 OA
BRANCH  23  25
HETATM   25  O   UNK     0      -2.874   9.556   2.267  0.00  0.00    -0.297 OA
BRANCH  25  26
HETATM   26  C   UNK     0      -3.081  10.816   1.616  0.00  0.00     0.152 C 
HETATM   27  C   UNK     0      -2.265  10.873   0.314  0.00  0.00     0.035 C 
ENDBRANCH  25  26
ENDBRANCH  23  25
ENDBRANCH  20  23
ENDBRANCH  17  18
ENDBRANCH   2  17
TORSDOF 6
ENDMDL
MODEL 6
REMARK VINA RESULT:      -7.3     15.545     17.205
REMARK  6 active torsions:
REMARK  status: ('A' for Active; 'I' for Inactive)
REMARK    1  A    between atoms: C_9  and  N_13 
REMARK       I    between atoms: N_13  and  C_14 
REMARK    2  A    between atoms: C_14  and  C_17 
REMARK    3  A    between atoms: C_17  and  N_18 
REMARK    4  A    between atoms: C_20  and  C_23 
REMARK    5  A    between atoms: C_23  and  O_24 
REMARK    6  A    between atoms: O_24  and  C_26 
ROOT
HETATM    1  N   UNK     0       8.116   2.493   8.146  0.00  0.00    -0.205 NA
HETATM    2  C   UNK     0       8.126   3.407   7.128  0.00  0.00     0.281 C 
HETATM    3  O   UNK     0       7.126   4.119   6.869  0.00  0.00    -0.268 OA
ENDROOT
BRANCH   1   4
HETATM    4  C   UNK     0       7.110   2.312   9.012  0.00  0.00     0.146 C 
HETATM    5  C   UNK     0       7.100   2.991  10.183  0.00  0.00     0.162 C 
HETATM    6  C   UNK     0       6.098   2.766  11.140  0.00  0.00     0.217 C 
HETATM    7  N   UNK     0       8.061   3.864  10.456  0.00  0.00    -0.143 N 
HETATM    8  C   UNK     0       5.125   1.738  10.934  0.00  0.00     0.044 A 
HETATM    9  O   UNK     0       6.065   3.462  12.184  0.00  0.00    -0.285 OA
HETATM   10  C   UNK     0       4.180   1.380  11.926  0.00  0.00     0.003 A 
HETATM   11  C   UNK     0       5.114   1.053   9.687  0.00  0.00     0.044 A 
HETATM   12  C   UNK     0       3.252   0.350  11.693  0.00  0.00     0.000 A 
HETATM   13  C   UNK     0       3.248  -0.329  10.465  0.00  0.00     0.000 A 
HETATM   14  C   UNK     0       4.168   0.024   9.465  0.00  0.00     0.003 A 
HETATM   15  C   UNK     0       6.064   1.430   8.696  0.00  0.00     0.215 C 
HETATM   16  O   UNK     0       5.946   1.000   7.521  0.00  0.00    -0.285 OA
ENDBRANCH   1   4
BRANCH   2  17
HETATM   17  C   UNK     0       9.349   3.563   6.316  0.00  0.00     0.219 C 
BRANCH  17  18
HETATM   18  N   UNK     0       9.361   4.811   5.622  0.00  0.00    -0.221 N 
HETATM   19  C   UNK     0       9.030   5.021   4.338  0.00  0.00     0.124 A 
HETATM   20  C   UNK     0       9.222   6.376   4.106  0.00  0.00     0.186 A 
HETATM   21  N   UNK     0       9.650   6.894   5.267  0.00  0.00    -0.123 NA
HETATM   22  N   UNK     0       9.718   5.943   6.146  0.00  0.00    -0.063 NA
BRANCH  20  23
HETATM   23  C   UNK     0       9.016   7.101   2.921  0.00  0.00     0.317 C 
HETATM   24  O   UNK     0       7.867   7.529   2.665  0.00  0.00    -0.257 OA
BRANCH  23  25
HETATM   25  O   UNK     0      10.050   7.324   2.059  0.00  0.00    -0.297 OA
BRANCH  25  26
HETATM   26  C   UNK     0      10.417   8.594   1.504  0.00  0.00     0.152 C 
HETATM   27  C   UNK     0      10.858   9.548   2.626  0.00  0.00     0.035 C 
ENDBRANCH  25  26
ENDBRANCH  23  25
ENDBRANCH  20  23
ENDBRANCH  17  18
ENDBRANCH   2  17
TORSDOF 6
ENDMDL
MODEL 7
REMARK VINA RESULT:      -7.2      1.859      2.938
REMARK  6 active torsions:
REMARK  status: ('A' for Active; 'I' for Inactive)
REMARK    1  A    between atoms: C_9  and  N_13 
REMARK       I    between atoms: N_13  and  C_14 
REMARK    2  A    between atoms: C_14  and  C_17 
REMARK    3  A    between atoms: C_17  and  N_18 
REMARK    4  A    between atoms: C_20  and  C_23 
REMARK    5  A    between atoms: C_23  and  O_24 
REMARK    6  A    between atoms: O_24  and  C_26 
ROOT
HETATM    1  N   UNK     0      -5.483   7.425  -0.721  0.00  0.00    -0.205 NA
HETATM    2  C   UNK     0      -6.750   7.632  -1.194  0.00  0.00     0.281 C 
HETATM    3  O   UNK     0      -7.228   8.786  -1.320  0.00  0.00    -0.268 OA
ENDROOT
BRANCH   1   4
HETATM    4  C   UNK     0      -4.601   8.389  -0.426  0.00  0.00     0.146 C 
HETATM    5  C   UNK     0      -4.416   8.760   0.864  0.00  0.00     0.162 C 
HETATM    6  C   UNK     0      -3.553   9.816   1.195  0.00  0.00     0.217 C 
HETATM    7  N   UNK     0      -5.075   8.142   1.836  0.00  0.00    -0.143 N 
HETATM    8  C   UNK     0      -2.931  10.587   0.163  0.00  0.00     0.044 A 
HETATM    9  O   UNK     0      -3.338  10.091   2.401  0.00  0.00    -0.285 OA
HETATM   10  C   UNK     0      -2.164  11.745   0.440  0.00  0.00     0.003 A 
HETATM   11  C   UNK     0      -3.097  10.173  -1.188  0.00  0.00     0.044 A 
HETATM   12  C   UNK     0      -1.585  12.487  -0.604  0.00  0.00     0.000 A 
HETATM   13  C   UNK     0      -1.756  12.080  -1.936  0.00  0.00     0.000 A 
HETATM   14  C   UNK     0      -2.500  10.927  -2.227  0.00  0.00     0.003 A 
HETATM   15  C   UNK     0      -3.863   9.002  -1.451  0.00  0.00     0.215 C 
HETATM   16  O   UNK     0      -3.851   8.491  -2.599  0.00  0.00    -0.285 OA
ENDBRANCH   1   4
BRANCH   2  17
HETATM   17  C   UNK     0      -7.573   6.468  -1.573  0.00  0.00     0.219 C 
BRANCH  17  18
HETATM   18  N   UNK     0      -6.943   5.689  -2.591  0.00  0.00    -0.221 N 
HETATM   19  C   UNK     0      -6.955   4.352  -2.705  0.00  0.00     0.124 A 
HETATM   20  C   UNK     0      -6.191   4.052  -3.825  0.00  0.00     0.186 A 
HETATM   21  N   UNK     0      -5.777   5.230  -4.316  0.00  0.00    -0.123 NA
HETATM   22  N   UNK     0      -6.241   6.179  -3.566  0.00  0.00    -0.063 NA
BRANCH  20  23
HETATM   23  C   UNK     0      -5.896   2.794  -4.373  0.00  0.00     0.317 C 
HETATM   24  O   UNK     0      -4.739   2.577  -4.803  0.00  0.00    -0.257 OA
BRANCH  23  25
HETATM   25  O   UNK     0      -6.857   1.828  -4.445  0.00  0.00    -0.297 OA
BRANCH  25  26
HETATM   26  C   UNK     0      -8.031   1.875  -5.266  0.00  0.00     0.152 C 
HETATM   27  C   UNK     0      -9.272   1.533  -4.424  0.00  0.00     0.035 C 
ENDBRANCH  25  26
ENDBRANCH  23  25
ENDBRANCH  20  23
ENDBRANCH  17  18
ENDBRANCH   2  17
TORSDOF 6
ENDMDL
MODEL 8
REMARK VINA RESULT:      -7.1      2.360      8.990
REMARK  6 active torsions:
REMARK  status: ('A' for Active; 'I' for Inactive)
REMARK    1  A    between atoms: C_9  and  N_13 
REMARK       I    between atoms: N_13  and  C_14 
REMARK    2  A    between atoms: C_14  and  C_17 
REMARK    3  A    between atoms: C_17  and  N_18 
REMARK    4  A    between atoms: C_20  and  C_23 
REMARK    5  A    between atoms: C_23  and  O_24 
REMARK    6  A    between atoms: O_24  and  C_26 
ROOT
HETATM    1  N   UNK     0      -8.173   6.121  -3.333  0.00  0.00    -0.205 NA
HETATM    2  C   UNK     0      -8.060   6.376  -1.994  0.00  0.00     0.281 C 
HETATM    3  O   UNK     0      -8.170   5.465  -1.137  0.00  0.00    -0.268 OA
ENDROOT
BRANCH   1   4
HETATM    4  C   UNK     0      -8.322   4.907  -3.880  0.00  0.00     0.146 C 
HETATM    5  C   UNK     0      -7.232   4.211  -4.283  0.00  0.00     0.162 C 
HETATM    6  C   UNK     0      -7.363   2.970  -4.924  0.00  0.00     0.217 C 
HETATM    7  N   UNK     0      -6.017   4.713  -4.100  0.00  0.00    -0.143 N 
HETATM    8  C   UNK     0      -8.660   2.466  -5.255  0.00  0.00     0.044 A 
HETATM    9  O   UNK     0      -6.338   2.309  -5.219  0.00  0.00    -0.285 OA
HETATM   10  C   UNK     0      -8.842   1.289  -6.021  0.00  0.00     0.003 A 
HETATM   11  C   UNK     0      -9.804   3.179  -4.798  0.00  0.00     0.044 A 
HETATM   12  C   UNK     0     -10.134   0.836  -6.343  0.00  0.00     0.000 A 
HETATM   13  C   UNK     0     -11.260   1.545  -5.896  0.00  0.00     0.000 A 
HETATM   14  C   UNK     0     -11.097   2.705  -5.123  0.00  0.00     0.003 A 
HETATM   15  C   UNK     0      -9.605   4.355  -4.020  0.00  0.00     0.215 C 
HETATM   16  O   UNK     0     -10.578   4.883  -3.426  0.00  0.00    -0.285 OA
ENDBRANCH   1   4
BRANCH   2  17
HETATM   17  C   UNK     0      -7.798   7.757  -1.547  0.00  0.00     0.219 C 
BRANCH  17  18
HETATM   18  N   UNK     0      -6.508   7.876  -0.945  0.00  0.00    -0.221 N 
HETATM   19  C   UNK     0      -6.232   8.341   0.284  0.00  0.00     0.124 A 
HETATM   20  C   UNK     0      -4.851   8.294   0.415  0.00  0.00     0.186 A 
HETATM   21  N   UNK     0      -4.386   7.798  -0.742  0.00  0.00    -0.123 NA
HETATM   22  N   UNK     0      -5.391   7.557  -1.524  0.00  0.00    -0.063 NA
BRANCH  20  23
HETATM   23  C   UNK     0      -4.062   8.669   1.513  0.00  0.00     0.317 C 
HETATM   24  O   UNK     0      -3.381   9.718   1.441  0.00  0.00    -0.257 OA
BRANCH  23  25
HETATM   25  O   UNK     0      -4.031   7.896   2.638  0.00  0.00    -0.297 OA
BRANCH  25  26
HETATM   26  C   UNK     0      -4.486   8.290   3.938  0.00  0.00     0.152 C 
HETATM   27  C   UNK     0      -3.296   8.365   4.909  0.00  0.00     0.035 C 
ENDBRANCH  25  26
ENDBRANCH  23  25
ENDBRANCH  20  23
ENDBRANCH  17  18
ENDBRANCH   2  17
TORSDOF 6
ENDMDL
MODEL 9
REMARK VINA RESULT:      -7.1      2.313      8.521
REMARK  6 active torsions:
REMARK  status: ('A' for Active; 'I' for Inactive)
REMARK    1  A    between atoms: C_9  and  N_13 
REMARK       I    between atoms: N_13  and  C_14 
REMARK    2  A    between atoms: C_14  and  C_17 
REMARK    3  A    between atoms: C_17  and  N_18 
REMARK    4  A    between atoms: C_20  and  C_23 
REMARK    5  A    between atoms: C_23  and  O_24 
REMARK    6  A    between atoms: O_24  and  C_26 
ROOT
HETATM    1  N   UNK     0      -6.836   7.708  -2.877  0.00  0.00    -0.205 NA
HETATM    2  C   UNK     0      -6.119   8.027  -1.757  0.00  0.00     0.281 C 
HETATM    3  O   UNK     0      -5.613   7.143  -1.023  0.00  0.00    -0.268 OA
ENDROOT
BRANCH   1   4
HETATM    4  C   UNK     0      -7.009   6.470  -3.359  0.00  0.00     0.146 C 
HETATM    5  C   UNK     0      -8.082   5.740  -2.968  0.00  0.00     0.162 C 
HETATM    6  C   UNK     0      -8.249   4.415  -3.399  0.00  0.00     0.217 C 
HETATM    7  N   UNK     0      -8.980   6.264  -2.144  0.00  0.00    -0.143 N 
HETATM    8  C   UNK     0      -7.232   3.779  -4.179  0.00  0.00     0.044 A 
HETATM    9  O   UNK     0      -9.288   3.784  -3.087  0.00  0.00    -0.285 OA
HETATM   10  C   UNK     0      -7.288   2.406  -4.522  0.00  0.00     0.003 A 
HETATM   11  C   UNK     0      -6.125   4.558  -4.619  0.00  0.00     0.044 A 
HETATM   12  C   UNK     0      -6.259   1.812  -5.273  0.00  0.00     0.000 A 
HETATM   13  C   UNK     0      -5.165   2.582  -5.700  0.00  0.00     0.000 A 
HETATM   14  C   UNK     0      -5.101   3.947  -5.381  0.00  0.00     0.003 A 
HETATM   15  C   UNK     0      -6.087   5.939  -4.274  0.00  0.00     0.215 C 
HETATM   16  O   UNK     0      -5.247   6.697  -4.820  0.00  0.00    -0.285 OA
ENDBRANCH   1   4
BRANCH   2  17
HETATM   17  C   UNK     0      -5.931   9.447  -1.406  0.00  0.00     0.219 C 
BRANCH  17  18
HETATM   18  N   UNK     0      -4.888   9.615  -0.443  0.00  0.00    -0.221 N 
HETATM   19  C   UNK     0      -5.023   9.648   0.892  0.00  0.00     0.124 A 
HETATM   20  C   UNK     0      -3.750   9.856   1.404  0.00  0.00     0.186 A 
HETATM   21  N   UNK     0      -2.931   9.929   0.344  0.00  0.00    -0.123 NA
HETATM   22  N   UNK     0      -3.634   9.779  -0.735  0.00  0.00    -0.063 NA
BRANCH  20  23
HETATM   23  C   UNK     0      -3.352   9.966   2.746  0.00  0.00     0.317 C 
HETATM   24  O   UNK     0      -3.302  11.102   3.272  0.00  0.00    -0.257 OA
BRANCH  23  25
HETATM   25  O   UNK     0      -3.016   8.853   3.460  0.00  0.00    -0.297 OA
BRANCH  25  26
HETATM   26  C   UNK     0      -3.648   8.413   4.669  0.00  0.00     0.152 C 
HETATM   27  C   UNK     0      -5.162   8.263   4.445  0.00  0.00     0.035 C 
ENDBRANCH  25  26
ENDBRANCH  23  25
ENDBRANCH  20  23
ENDBRANCH  17  18
ENDBRANCH   2  17
TORSDOF 6
ENDMDL
