MODEL 1
REMARK VINA RESULT:      -7.6      0.000      0.000
REMARK  4 active torsions:
REMARK  status: ('A' for Active; 'I' for Inactive)
REMARK    1  A    between atoms: C_9  and  N_13 
REMARK       I    between atoms: N_13  and  C_14 
REMARK    2  A    between atoms: C_14  and  C_17 
REMARK    3  A    between atoms: C_17  and  N_18 
REMARK    4  A    between atoms: C_20  and  C_23 
ROOT
HETATM    1  C   UNK     0       8.398   7.099   3.335  0.00  0.00     0.003 A 
HETATM    2  C   UNK     0       8.941   7.838   2.271  0.00  0.00     0.000 A 
HETATM    3  C   UNK     0      10.329   7.856   2.066  0.00  0.00     0.000 A 
HETATM    4  C   UNK     0      11.176   7.133   2.924  0.00  0.00     0.003 A 
HETATM    5  C   UNK     0      10.648   6.393   4.009  0.00  0.00     0.044 A 
HETATM    6  C   UNK     0       9.239   6.374   4.213  0.00  0.00     0.044 A 
HETATM    7  C   UNK     0      11.480   5.667   4.920  0.00  0.00     0.217 C 
HETATM    8  C   UNK     0      10.926   5.065   6.060  0.00  0.00     0.162 C 
HETATM    9  C   UNK     0       9.588   5.075   6.271  0.00  0.00     0.146 C 
HETATM   10  C   UNK     0       8.725   5.621   5.308  0.00  0.00     0.215 C 
HETATM   11  O   UNK     0       7.491   5.404   5.390  0.00  0.00    -0.285 OA
HETATM   12  O   UNK     0      12.712   5.572   4.699  0.00  0.00    -0.285 OA
HETATM   13  N   UNK     0      11.739   4.498   6.944  0.00  0.00    -0.143 N 
ENDROOT
BRANCH   9  14
HETATM   14  N   UNK     0       9.086   4.550   7.399  0.00  0.00    -0.205 NA
HETATM   15  C   UNK     0       8.760   3.234   7.589  0.00  0.00     0.281 C 
HETATM   16  O   UNK     0       8.821   2.400   6.652  0.00  0.00    -0.268 OA
BRANCH  15  17
HETATM   17  C   UNK     0       8.329   2.778   8.925  0.00  0.00     0.219 C 
BRANCH  17  18
HETATM   18  N   UNK     0       7.057   2.130   8.863  0.00  0.00    -0.221 N 
HETATM   19  C   UNK     0       6.745   0.932   9.377  0.00  0.00     0.114 A 
HETATM   20  C   UNK     0       5.420   0.706   9.044  0.00  0.00     0.101 A 
HETATM   21  N   UNK     0       5.009   1.786   8.363  0.00  0.00    -0.133 NA
HETATM   22  N   UNK     0       6.004   2.615   8.276  0.00  0.00    -0.064 NA
BRANCH  20  23
HETATM   23  C   UNK     0       4.596  -0.462   9.396  0.00  0.00     0.044 A 
HETATM   24  C   UNK     0       4.412  -0.802  10.887  0.00  0.00     0.006 A 
HETATM   25  C   UNK     0       3.249  -0.201  10.091  0.00  0.00     0.006 A 
ENDBRANCH  20  23
ENDBRANCH  17  18
ENDBRANCH  15  17
ENDBRANCH   9  14
TORSDOF 4
ENDMDL
MODEL 2
REMARK VINA RESULT:      -7.4     16.902     18.919
REMARK  4 active torsions:
REMARK  status: ('A' for Active; 'I' for Inactive)
REMARK    1  A    between atoms: C_9  and  N_13 
REMARK       I    between atoms: N_13  and  C_14 
REMARK    2  A    between atoms: C_14  and  C_17 
REMARK    3  A    between atoms: C_17  and  N_18 
REMARK    4  A    between atoms: C_20  and  C_23 
ROOT
HETATM    1  C   UNK     0      -9.721   3.005  -3.361  0.00  0.00     0.003 A 
HETATM    2  C   UNK     0     -10.433   1.960  -3.972  0.00  0.00     0.000 A 
HETATM    3  C   UNK     0      -9.881   1.284  -5.071  0.00  0.00     0.000 A 
HETATM    4  C   UNK     0      -8.615   1.651  -5.560  0.00  0.00     0.003 A 
HETATM    5  C   UNK     0      -7.888   2.710  -4.965  0.00  0.00     0.044 A 
HETATM    6  C   UNK     0      -8.448   3.392  -3.848  0.00  0.00     0.044 A 
HETATM    7  C   UNK     0      -6.609   3.130  -5.450  0.00  0.00     0.217 C 
HETATM    8  C   UNK     0      -5.990   4.272  -4.919  0.00  0.00     0.162 C 
HETATM    9  C   UNK     0      -6.540   4.941  -3.878  0.00  0.00     0.146 C 
HETATM   10  C   UNK     0      -7.702   4.453  -3.259  0.00  0.00     0.215 C 
HETATM   11  O   UNK     0      -8.059   4.928  -2.153  0.00  0.00    -0.285 OA
HETATM   12  O   UNK     0      -6.040   2.476  -6.357  0.00  0.00    -0.285 OA
HETATM   13  N   UNK     0      -4.859   4.702  -5.469  0.00  0.00    -0.143 N 
ENDROOT
BRANCH   9  14
HETATM   14  N   UNK     0      -5.964   6.066  -3.428  0.00  0.00    -0.205 NA
HETATM   15  C   UNK     0      -6.452   7.334  -3.597  0.00  0.00     0.281 C 
HETATM   16  O   UNK     0      -7.471   7.558  -4.295  0.00  0.00    -0.268 OA
BRANCH  15  17
HETATM   17  C   UNK     0      -5.771   8.468  -2.941  0.00  0.00     0.219 C 
BRANCH  17  18
HETATM   18  N   UNK     0      -5.798   8.333  -1.519  0.00  0.00    -0.221 N 
HETATM   19  C   UNK     0      -4.749   8.420  -0.689  0.00  0.00     0.114 A 
HETATM   20  C   UNK     0      -5.249   8.191   0.583  0.00  0.00     0.101 A 
HETATM   21  N   UNK     0      -6.567   7.994   0.444  0.00  0.00    -0.133 NA
HETATM   22  N   UNK     0      -6.862   8.089  -0.817  0.00  0.00    -0.064 NA
BRANCH  20  23
HETATM   23  C   UNK     0      -4.502   8.200   1.852  0.00  0.00     0.044 A 
HETATM   24  C   UNK     0      -4.475   9.503   2.672  0.00  0.00     0.006 A 
HETATM   25  C   UNK     0      -5.312   8.314   3.154  0.00  0.00     0.006 A 
ENDBRANCH  20  23
ENDBRANCH  17  18
ENDBRANCH  15  17
ENDBRANCH   9  14
TORSDOF 4
ENDMDL
MODEL 3
REMARK VINA RESULT:      -7.4      2.159      8.545
REMARK  4 active torsions:
REMARK  status: ('A' for Active; 'I' for Inactive)
REMARK    1  A    between atoms: C_9  and  N_13 
REMARK       I    between atoms: N_13  and  C_14 
REMARK    2  A    between atoms: C_14  and  C_17 
REMARK    3  A    between atoms: C_17  and  N_18 
REMARK    4  A    between atoms: C_20  and  C_23 
ROOT
HETATM    1  C   UNK     0       3.924   0.288   9.654  0.00  0.00     0.003 A 
HETATM    2  C   UNK     0       3.060  -0.005  10.722  0.00  0.00     0.000 A 
HETATM    3  C   UNK     0       3.236   0.630  11.961  0.00  0.00     0.000 A 
HETATM    4  C   UNK     0       4.276   1.560  12.134  0.00  0.00     0.003 A 
HETATM    5  C   UNK     0       5.165   1.859  11.073  0.00  0.00     0.044 A 
HETATM    6  C   UNK     0       4.982   1.216   9.816  0.00  0.00     0.044 A 
HETATM    7  C   UNK     0       6.250   2.780  11.217  0.00  0.00     0.217 C 
HETATM    8  C   UNK     0       7.187   2.939  10.185  0.00  0.00     0.162 C 
HETATM    9  C   UNK     0       7.032   2.300   9.001  0.00  0.00     0.146 C 
HETATM   10  C   UNK     0       5.883   1.531   8.758  0.00  0.00     0.215 C 
HETATM   11  O   UNK     0       5.627   1.155   7.588  0.00  0.00    -0.285 OA
HETATM   12  O   UNK     0       6.367   3.446  12.275  0.00  0.00    -0.285 OA
HETATM   13  N   UNK     0       8.247   3.713  10.395  0.00  0.00    -0.143 N 
ENDROOT
BRANCH   9  14
HETATM   14  N   UNK     0       7.973   2.416   8.051  0.00  0.00    -0.205 NA
HETATM   15  C   UNK     0       8.008   3.377   7.077  0.00  0.00     0.281 C 
HETATM   16  O   UNK     0       7.073   4.202   6.934  0.00  0.00    -0.268 OA
BRANCH  15  17
HETATM   17  C   UNK     0       9.172   3.451   6.171  0.00  0.00     0.219 C 
BRANCH  17  18
HETATM   18  N   UNK     0       9.426   4.797   5.768  0.00  0.00    -0.221 N 
HETATM   19  C   UNK     0       8.971   5.397   4.657  0.00  0.00     0.114 A 
HETATM   20  C   UNK     0       9.497   6.678   4.673  0.00  0.00     0.101 A 
HETATM   21  N   UNK     0      10.223   6.779   5.795  0.00  0.00    -0.133 NA
HETATM   22  N   UNK     0      10.157   5.645   6.425  0.00  0.00    -0.064 NA
BRANCH  20  23
HETATM   23  C   UNK     0       9.279   7.746   3.683  0.00  0.00     0.044 A 
HETATM   24  C   UNK     0       9.827   7.542   2.258  0.00  0.00     0.006 A 
HETATM   25  C   UNK     0       8.320   7.451   2.517  0.00  0.00     0.006 A 
ENDBRANCH  20  23
ENDBRANCH  17  18
ENDBRANCH  15  17
ENDBRANCH   9  14
TORSDOF 4
ENDMDL
MODEL 4
REMARK VINA RESULT:      -7.3     14.857     16.667
REMARK  4 active torsions:
REMARK  status: ('A' for Active; 'I' for Inactive)
REMARK    1  A    between atoms: C_9  and  N_13 
REMARK       I    between atoms: N_13  and  C_14 
REMARK    2  A    between atoms: C_14  and  C_17 
REMARK    3  A    between atoms: C_17  and  N_18 
REMARK    4  A    between atoms: C_20  and  C_23 
ROOT
HETATM    1  C   UNK     0      -2.426  10.654  -2.334  0.00  0.00     0.003 A 
HETATM    2  C   UNK     0      -1.665  11.811  -2.100  0.00  0.00     0.000 A 
HETATM    3  C   UNK     0      -1.537  12.314  -0.796  0.00  0.00     0.000 A 
HETATM    4  C   UNK     0      -2.170  11.661   0.276  0.00  0.00     0.003 A 
HETATM    5  C   UNK     0      -2.952  10.501   0.058  0.00  0.00     0.044 A 
HETATM    6  C   UNK     0      -3.077   9.990  -1.265  0.00  0.00     0.044 A 
HETATM    7  C   UNK     0      -3.632   9.823   1.118  0.00  0.00     0.217 C 
HETATM    8  C   UNK     0      -4.508   8.763   0.836  0.00  0.00     0.162 C 
HETATM    9  C   UNK     0      -4.652   8.299  -0.428  0.00  0.00     0.146 C 
HETATM   10  C   UNK     0      -3.865   8.820  -1.467  0.00  0.00     0.215 C 
HETATM   11  O   UNK     0      -3.822   8.222  -2.570  0.00  0.00    -0.285 OA
HETATM   12  O   UNK     0      -3.449  10.182   2.307  0.00  0.00    -0.285 OA
HETATM   13  N   UNK     0      -5.212   8.232   1.830  0.00  0.00    -0.143 N 
ENDROOT
BRANCH   9  14
HETATM   14  N   UNK     0      -5.542   7.328  -0.685  0.00  0.00    -0.205 NA
HETATM   15  C   UNK     0      -6.786   7.509  -1.226  0.00  0.00     0.281 C 
HETATM   16  O   UNK     0      -7.246   8.656  -1.447  0.00  0.00    -0.268 OA
BRANCH  15  17
HETATM   17  C   UNK     0      -7.609   6.330  -1.563  0.00  0.00     0.219 C 
BRANCH  17  18
HETATM   18  N   UNK     0      -6.990   5.544  -2.583  0.00  0.00    -0.221 N 
HETATM   19  C   UNK     0      -7.103   4.218  -2.747  0.00  0.00     0.114 A 
HETATM   20  C   UNK     0      -6.307   3.900  -3.835  0.00  0.00     0.101 A 
HETATM   21  N   UNK     0      -5.775   5.051  -4.269  0.00  0.00    -0.133 NA
HETATM   22  N   UNK     0      -6.204   6.010  -3.506  0.00  0.00    -0.064 NA
BRANCH  20  23
HETATM   23  C   UNK     0      -6.106   2.571  -4.437  0.00  0.00     0.044 A 
HETATM   24  C   UNK     0      -7.121   2.086  -5.489  0.00  0.00     0.006 A 
HETATM   25  C   UNK     0      -5.716   2.514  -5.924  0.00  0.00     0.006 A 
ENDBRANCH  20  23
ENDBRANCH  17  18
ENDBRANCH  15  17
ENDBRANCH   9  14
TORSDOF 4
ENDMDL
MODEL 5
REMARK VINA RESULT:      -7.2     15.044     16.966
REMARK  4 active torsions:
REMARK  status: ('A' for Active; 'I' for Inactive)
REMARK    1  A    between atoms: C_9  and  N_13 
REMARK       I    between atoms: N_13  and  C_14 
REMARK    2  A    between atoms: C_14  and  C_17 
REMARK    3  A    between atoms: C_17  and  N_18 
REMARK    4  A    between atoms: C_20  and  C_23 
ROOT
HETATM    1  C   UNK     0      -5.395   8.286   2.954  0.00  0.00     0.003 A 
HETATM    2  C   UNK     0      -4.879   8.754   4.173  0.00  0.00     0.000 A 
HETATM    3  C   UNK     0      -3.831   9.688   4.179  0.00  0.00     0.000 A 
HETATM    4  C   UNK     0      -3.299  10.155   2.965  0.00  0.00     0.003 A 
HETATM    5  C   UNK     0      -3.797   9.684   1.726  0.00  0.00     0.044 A 
HETATM    6  C   UNK     0      -4.863   8.740   1.723  0.00  0.00     0.044 A 
HETATM    7  C   UNK     0      -3.265  10.116   0.470  0.00  0.00     0.217 C 
HETATM    8  C   UNK     0      -3.694   9.519  -0.725  0.00  0.00     0.162 C 
HETATM    9  C   UNK     0      -4.684   8.596  -0.724  0.00  0.00     0.146 C 
HETATM   10  C   UNK     0      -5.355   8.280   0.468  0.00  0.00     0.215 C 
HETATM   11  O   UNK     0      -6.423   7.622   0.420  0.00  0.00    -0.285 OA
HETATM   12  O   UNK     0      -2.406  11.031   0.438  0.00  0.00    -0.285 OA
HETATM   13  N   UNK     0      -3.097   9.860  -1.862  0.00  0.00    -0.143 N 
ENDROOT
BRANCH   9  14
HETATM   14  N   UNK     0      -5.035   7.991  -1.870  0.00  0.00    -0.205 NA
HETATM   15  C   UNK     0      -6.027   8.403  -2.717  0.00  0.00     0.281 C 
HETATM   16  O   UNK     0      -6.780   9.366  -2.429  0.00  0.00    -0.268 OA
BRANCH  15  17
HETATM   17  C   UNK     0      -6.220   7.705  -4.004  0.00  0.00     0.219 C 
BRANCH  17  18
HETATM   18  N   UNK     0      -6.214   6.288  -3.827  0.00  0.00    -0.221 N 
HETATM   19  C   UNK     0      -5.742   5.377  -4.690  0.00  0.00     0.114 A 
HETATM   20  C   UNK     0      -5.979   4.142  -4.109  0.00  0.00     0.101 A 
HETATM   21  N   UNK     0      -6.564   4.382  -2.927  0.00  0.00    -0.133 NA
HETATM   22  N   UNK     0      -6.686   5.667  -2.788  0.00  0.00    -0.064 NA
BRANCH  20  23
HETATM   23  C   UNK     0      -5.625   2.818  -4.648  0.00  0.00     0.044 A 
HETATM   24  C   UNK     0      -6.603   2.147  -5.631  0.00  0.00     0.006 A 
HETATM   25  C   UNK     0      -5.281   2.727  -6.145  0.00  0.00     0.006 A 
ENDBRANCH  20  23
ENDBRANCH  17  18
ENDBRANCH  15  17
ENDBRANCH   9  14
TORSDOF 4
ENDMDL
MODEL 6
REMARK VINA RESULT:      -7.1     17.015     18.951
REMARK  4 active torsions:
REMARK  status: ('A' for Active; 'I' for Inactive)
REMARK    1  A    between atoms: C_9  and  N_13 
REMARK       I    between atoms: N_13  and  C_14 
REMARK    2  A    between atoms: C_14  and  C_17 
REMARK    3  A    between atoms: C_17  and  N_18 
REMARK    4  A    between atoms: C_20  and  C_23 
ROOT
HETATM    1  C   UNK     0      -6.172   3.083  -4.493  0.00  0.00     0.003 A 
HETATM    2  C   UNK     0      -6.365   1.863  -5.162  0.00  0.00     0.000 A 
HETATM    3  C   UNK     0      -7.636   1.527  -5.653  0.00  0.00     0.000 A 
HETATM    4  C   UNK     0      -8.715   2.411  -5.477  0.00  0.00     0.003 A 
HETATM    5  C   UNK     0      -8.542   3.638  -4.794  0.00  0.00     0.044 A 
HETATM    6  C   UNK     0      -7.251   3.979  -4.300  0.00  0.00     0.044 A 
HETATM    7  C   UNK     0      -9.621   4.552  -4.572  0.00  0.00     0.217 C 
HETATM    8  C   UNK     0      -9.434   5.688  -3.770  0.00  0.00     0.162 C 
HETATM    9  C   UNK     0      -8.213   5.994  -3.272  0.00  0.00     0.146 C 
HETATM   10  C   UNK     0      -7.094   5.220  -3.618  0.00  0.00     0.215 C 
HETATM   11  O   UNK     0      -5.942   5.650  -3.362  0.00  0.00    -0.285 OA
HETATM   12  O   UNK     0     -10.741   4.333  -5.094  0.00  0.00    -0.285 OA
HETATM   13  N   UNK     0     -10.483   6.454  -3.489  0.00  0.00    -0.143 N 
ENDROOT
BRANCH   9  14
HETATM   14  N   UNK     0      -8.070   7.050  -2.456  0.00  0.00    -0.205 NA
HETATM   15  C   UNK     0      -8.170   7.021  -1.091  0.00  0.00     0.281 C 
HETATM   16  O   UNK     0      -8.511   5.980  -0.478  0.00  0.00    -0.268 OA
BRANCH  15  17
HETATM   17  C   UNK     0      -7.869   8.241  -0.315  0.00  0.00     0.219 C 
BRANCH  17  18
HETATM   18  N   UNK     0      -6.582   8.157   0.298  0.00  0.00    -0.221 N 
HETATM   19  C   UNK     0      -6.294   8.395   1.586  0.00  0.00     0.114 A 
HETATM   20  C   UNK     0      -4.925   8.222   1.709  0.00  0.00     0.101 A 
HETATM   21  N   UNK     0      -4.474   7.877   0.495  0.00  0.00    -0.133 NA
HETATM   22  N   UNK     0      -5.484   7.843  -0.320  0.00  0.00    -0.064 NA
BRANCH  20  23
HETATM   23  C   UNK     0      -4.115   8.347   2.932  0.00  0.00     0.044 A 
HETATM   24  C   UNK     0      -3.391   9.680   3.194  0.00  0.00     0.006 A 
HETATM   25  C   UNK     0      -4.620   9.301   4.027  0.00  0.00     0.006 A 
ENDBRANCH  20  23
ENDBRANCH  17  18
ENDBRANCH  15  17
ENDBRANCH   9  14
TORSDOF 4
ENDMDL
MODEL 7
REMARK VINA RESULT:      -7.1     16.108     18.764
REMARK  4 active torsions:
REMARK  status: ('A' for Active; 'I' for Inactive)
REMARK    1  A    between atoms: C_9  and  N_13 
REMARK       I    between atoms: N_13  and  C_14 
REMARK    2  A    between atoms: C_14  and  C_17 
REMARK    3  A    between atoms: C_17  and  N_18 
REMARK    4  A    between atoms: C_20  and  C_23 
ROOT
HETATM    1  C   UNK     0      -5.061   3.670  -5.392  0.00  0.00     0.003 A 
HETATM    2  C   UNK     0      -5.180   2.290  -5.629  0.00  0.00     0.000 A 
HETATM    3  C   UNK     0      -6.317   1.598  -5.184  0.00  0.00     0.000 A 
HETATM    4  C   UNK     0      -7.337   2.284  -4.503  0.00  0.00     0.003 A 
HETATM    5  C   UNK     0      -7.229   3.671  -4.243  0.00  0.00     0.044 A 
HETATM    6  C   UNK     0      -6.076   4.372  -4.698  0.00  0.00     0.044 A 
HETATM    7  C   UNK     0      -8.234   4.400  -3.530  0.00  0.00     0.217 C 
HETATM    8  C   UNK     0      -8.019   5.740  -3.174  0.00  0.00     0.162 C 
HETATM    9  C   UNK     0      -6.907   6.397  -3.579  0.00  0.00     0.146 C 
HETATM   10  C   UNK     0      -5.985   5.769  -4.432  0.00  0.00     0.215 C 
HETATM   11  O   UNK     0      -5.100   6.456  -4.998  0.00  0.00    -0.285 OA
HETATM   12  O   UNK     0      -9.310   3.835  -3.218  0.00  0.00    -0.285 OA
HETATM   13  N   UNK     0      -8.920   6.353  -2.414  0.00  0.00    -0.143 N 
ENDROOT
BRANCH   9  14
HETATM   14  N   UNK     0      -6.692   7.658  -3.174  0.00  0.00    -0.205 NA
HETATM   15  C   UNK     0      -5.993   8.029  -2.057  0.00  0.00     0.281 C 
HETATM   16  O   UNK     0      -5.560   7.179  -1.240  0.00  0.00    -0.268 OA
BRANCH  15  17
HETATM   17  C   UNK     0      -5.736   9.461  -1.803  0.00  0.00     0.219 C 
BRANCH  17  18
HETATM   18  N   UNK     0      -4.370   9.792  -2.058  0.00  0.00    -0.221 N 
HETATM   19  C   UNK     0      -3.747   9.751  -3.244  0.00  0.00     0.114 A 
HETATM   20  C   UNK     0      -2.435  10.121  -2.999  0.00  0.00     0.101 A 
HETATM   21  N   UNK     0      -2.350  10.377  -1.687  0.00  0.00    -0.133 NA
HETATM   22  N   UNK     0      -3.517  10.176  -1.156  0.00  0.00    -0.064 NA
BRANCH  20  23
HETATM   23  C   UNK     0      -1.346  10.255  -3.982  0.00  0.00     0.044 A 
HETATM   24  C   UNK     0      -0.577   8.986  -4.394  0.00  0.00     0.006 A 
HETATM   25  C   UNK     0      -1.561   9.635  -5.373  0.00  0.00     0.006 A 
ENDBRANCH  20  23
ENDBRANCH  17  18
ENDBRANCH  15  17
ENDBRANCH   9  14
TORSDOF 4
ENDMDL
MODEL 8
REMARK VINA RESULT:      -7.1     17.246     18.990
REMARK  4 active torsions:
REMARK  status: ('A' for Active; 'I' for Inactive)
REMARK    1  A    between atoms: C_9  and  N_13 
REMARK       I    between atoms: N_13  and  C_14 
REMARK    2  A    between atoms: C_14  and  C_17 
REMARK    3  A    between atoms: C_17  and  N_18 
REMARK    4  A    between atoms: C_20  and  C_23 
ROOT
HETATM    1  C   UNK     0      -6.295   9.419   0.786  0.00  0.00     0.003 A 
HETATM    2  C   UNK     0      -6.987  10.223   1.706  0.00  0.00     0.000 A 
HETATM    3  C   UNK     0      -8.323   9.931   2.027  0.00  0.00     0.000 A 
HETATM    4  C   UNK     0      -8.967   8.835   1.429  0.00  0.00     0.003 A 
HETATM    5  C   UNK     0      -8.289   8.021   0.489  0.00  0.00     0.044 A 
HETATM    6  C   UNK     0      -6.934   8.316   0.169  0.00  0.00     0.044 A 
HETATM    7  C   UNK     0      -8.918   6.912  -0.161  0.00  0.00     0.217 C 
HETATM    8  C   UNK     0      -8.254   6.221  -1.186  0.00  0.00     0.162 C 
HETATM    9  C   UNK     0      -6.976   6.525  -1.514  0.00  0.00     0.146 C 
HETATM   10  C   UNK     0      -6.266   7.485  -0.776  0.00  0.00     0.215 C 
HETATM   11  O   UNK     0      -5.022   7.579  -0.920  0.00  0.00    -0.285 OA
HETATM   12  O   UNK     0     -10.072   6.559   0.185  0.00  0.00    -0.285 OA
HETATM   13  N   UNK     0      -8.908   5.273  -1.848  0.00  0.00    -0.143 N 
ENDROOT
BRANCH   9  14
HETATM   14  N   UNK     0      -6.382   5.895  -2.540  0.00  0.00    -0.205 NA
HETATM   15  C   UNK     0      -6.256   6.386  -3.811  0.00  0.00     0.281 C 
HETATM   16  O   UNK     0      -6.791   7.469  -4.154  0.00  0.00    -0.268 OA
BRANCH  15  17
HETATM   17  C   UNK     0      -5.471   5.630  -4.807  0.00  0.00     0.219 C 
BRANCH  17  18
HETATM   18  N   UNK     0      -5.855   4.254  -4.828  0.00  0.00    -0.221 N 
HETATM   19  C   UNK     0      -7.046   3.763  -5.201  0.00  0.00     0.114 A 
HETATM   20  C   UNK     0      -6.965   2.391  -5.026  0.00  0.00     0.101 A 
HETATM   21  N   UNK     0      -5.729   2.137  -4.573  0.00  0.00    -0.133 NA
HETATM   22  N   UNK     0      -5.094   3.265  -4.470  0.00  0.00    -0.064 NA
BRANCH  20  23
HETATM   23  C   UNK     0      -8.006   1.391  -5.315  0.00  0.00     0.044 A 
HETATM   24  C   UNK     0      -9.284   1.400  -4.456  0.00  0.00     0.006 A 
HETATM   25  C   UNK     0      -9.334   1.894  -5.905  0.00  0.00     0.006 A 
ENDBRANCH  20  23
ENDBRANCH  17  18
ENDBRANCH  15  17
ENDBRANCH   9  14
TORSDOF 4
ENDMDL
MODEL 9
REMARK VINA RESULT:      -7.1      2.117      8.868
REMARK  4 active torsions:
REMARK  status: ('A' for Active; 'I' for Inactive)
REMARK    1  A    between atoms: C_9  and  N_13 
REMARK       I    between atoms: N_13  and  C_14 
REMARK    2  A    between atoms: C_14  and  C_17 
REMARK    3  A    between atoms: C_17  and  N_18 
REMARK    4  A    between atoms: C_20  and  C_23 
ROOT
HETATM    1  C   UNK     0       7.434  -0.867  12.332  0.00  0.00     0.003 A 
HETATM    2  C   UNK     0       6.686  -1.967  12.782  0.00  0.00     0.000 A 
HETATM    3  C   UNK     0       5.524  -2.352  12.095  0.00  0.00     0.000 A 
HETATM    4  C   UNK     0       5.109  -1.638  10.957  0.00  0.00     0.003 A 
HETATM    5  C   UNK     0       5.844  -0.518  10.497  0.00  0.00     0.044 A 
HETATM    6  C   UNK     0       7.024  -0.132  11.193  0.00  0.00     0.044 A 
HETATM    7  C   UNK     0       5.440   0.250   9.359  0.00  0.00     0.217 C 
HETATM    8  C   UNK     0       6.118   1.432   9.025  0.00  0.00     0.162 C 
HETATM    9  C   UNK     0       7.222   1.817   9.708  0.00  0.00     0.146 C 
HETATM   10  C   UNK     0       7.753   0.995  10.715  0.00  0.00     0.215 C 
HETATM   11  O   UNK     0       8.901   1.232  11.164  0.00  0.00    -0.285 OA
HETATM   12  O   UNK     0       4.471  -0.134   8.660  0.00  0.00    -0.285 OA
HETATM   13  N   UNK     0       5.648   2.182   8.034  0.00  0.00    -0.143 N 
ENDROOT
BRANCH   9  14
HETATM   14  N   UNK     0       7.817   2.983   9.413  0.00  0.00    -0.205 NA
HETATM   15  C   UNK     0       8.758   3.173   8.436  0.00  0.00     0.281 C 
HETATM   16  O   UNK     0       9.223   2.211   7.777  0.00  0.00    -0.268 OA
BRANCH  15  17
HETATM   17  C   UNK     0       9.237   4.539   8.146  0.00  0.00     0.219 C 
BRANCH  17  18
HETATM   18  N   UNK     0       8.896   4.932   6.816  0.00  0.00    -0.221 N 
HETATM   19  C   UNK     0       9.708   5.516   5.922  0.00  0.00     0.114 A 
HETATM   20  C   UNK     0       8.936   5.739   4.794  0.00  0.00     0.101 A 
HETATM   21  N   UNK     0       7.713   5.265   5.069  0.00  0.00    -0.133 NA
HETATM   22  N   UNK     0       7.723   4.789   6.277  0.00  0.00    -0.064 NA
BRANCH  20  23
HETATM   23  C   UNK     0       9.368   6.338   3.520  0.00  0.00     0.044 A 
HETATM   24  C   UNK     0       8.461   7.400   2.870  0.00  0.00     0.006 A 
HETATM   25  C   UNK     0       9.776   7.821   3.533  0.00  0.00     0.006 A 
ENDBRANCH  20  23
ENDBRANCH  17  18
ENDBRANCH  15  17
ENDBRANCH   9  14
TORSDOF 4
ENDMDL
