MODEL 1
REMARK VINA RESULT:      -8.2      0.000      0.000
REMARK  5 active torsions:
REMARK  status: ('A' for Active; 'I' for Inactive)
REMARK    1  A    between atoms: C_9  and  N_13 
REMARK       I    between atoms: N_13  and  C_14 
REMARK    2  A    between atoms: C_14  and  C_17 
REMARK    3  A    between atoms: C_17  and  N_18 
REMARK    4  A    between atoms: C_20  and  C_23 
REMARK    5  A    between atoms: C_23  and  C_24 
ROOT
HETATM    1  N   UNK     0       8.220   3.357  10.391  0.00  0.00    -0.205 NA
HETATM    2  C   UNK     0       9.283   3.760   9.636  0.00  0.00     0.281 C 
HETATM    3  O   UNK     0       9.954   4.708  10.105  0.00  0.00    -0.268 OA
ENDROOT
BRANCH   2   4
HETATM    4  C   UNK     0       9.739   3.161   8.355  0.00  0.00     0.219 C 
BRANCH   4   5
HETATM    5  N   UNK     0       9.060   3.746   7.239  0.00  0.00    -0.221 N 
HETATM    6  C   UNK     0       9.052   5.043   6.881  0.00  0.00     0.114 A 
HETATM    7  C   UNK     0       8.293   5.120   5.721  0.00  0.00     0.101 A 
HETATM    8  N   UNK     0       7.874   3.871   5.466  0.00  0.00    -0.133 NA
HETATM    9  N   UNK     0       8.349   3.081   6.380  0.00  0.00    -0.064 NA
BRANCH   7  10
HETATM   10  C   UNK     0       7.994   6.312   4.894  0.00  0.00     0.049 C 
BRANCH  10  11
HETATM   11  C   UNK     0       9.122   6.704   3.881  0.00  0.00     0.006 C 
HETATM   12  C   UNK     0      10.229   7.560   4.581  0.00  0.00     0.000 C 
HETATM   13  C   UNK     0      11.348   8.024   3.607  0.00  0.00     0.000 C 
HETATM   14  C   UNK     0      10.769   8.771   2.379  0.00  0.00     0.000 C 
HETATM   15  C   UNK     0       9.691   7.923   1.659  0.00  0.00     0.000 C 
HETATM   16  C   UNK     0       8.571   7.471   2.634  0.00  0.00     0.000 C 
ENDBRANCH  10  11
ENDBRANCH   7  10
ENDBRANCH   4   5
ENDBRANCH   2   4
BRANCH   1  17
HETATM   17  C   UNK     0       7.381   2.350  10.118  0.00  0.00     0.146 C 
HETATM   18  C   UNK     0       6.261   2.607   9.398  0.00  0.00     0.162 C 
HETATM   19  C   UNK     0       5.334   1.596   9.118  0.00  0.00     0.217 C 
HETATM   20  N   UNK     0       5.994   3.832   8.962  0.00  0.00    -0.143 N 
HETATM   21  C   UNK     0       5.464   0.319   9.741  0.00  0.00     0.044 A 
HETATM   22  O   UNK     0       4.384   1.817   8.327  0.00  0.00    -0.285 OA
HETATM   23  C   UNK     0       4.430  -0.648   9.685  0.00  0.00     0.003 A 
HETATM   24  C   UNK     0       6.661   0.028  10.456  0.00  0.00     0.044 A 
HETATM   25  C   UNK     0       4.587  -1.894  10.317  0.00  0.00     0.000 A 
HETATM   26  C   UNK     0       5.781  -2.193  10.993  0.00  0.00     0.000 A 
HETATM   27  C   UNK     0       6.816  -1.244  11.057  0.00  0.00     0.003 A 
HETATM   28  C   UNK     0       7.659   1.046  10.562  0.00  0.00     0.215 C 
HETATM   29  O   UNK     0       8.779   0.787  11.065  0.00  0.00    -0.285 OA
ENDBRANCH   1  17
TORSDOF 5
ENDMDL
MODEL 2
REMARK VINA RESULT:      -7.7      1.904      2.757
REMARK  5 active torsions:
REMARK  status: ('A' for Active; 'I' for Inactive)
REMARK    1  A    between atoms: C_9  and  N_13 
REMARK       I    between atoms: N_13  and  C_14 
REMARK    2  A    between atoms: C_14  and  C_17 
REMARK    3  A    between atoms: C_17  and  N_18 
REMARK    4  A    between atoms: C_20  and  C_23 
REMARK    5  A    between atoms: C_23  and  C_24 
ROOT
HETATM    1  N   UNK     0       8.721   1.712   7.955  0.00  0.00    -0.205 NA
HETATM    2  C   UNK     0       9.297   2.827   7.418  0.00  0.00     0.281 C 
HETATM    3  O   UNK     0      10.103   2.625   6.482  0.00  0.00    -0.268 OA
ENDROOT
BRANCH   2   4
HETATM    4  C   UNK     0       9.029   4.237   7.804  0.00  0.00     0.219 C 
BRANCH   4   5
HETATM    5  N   UNK     0       8.659   5.024   6.667  0.00  0.00    -0.221 N 
HETATM    6  C   UNK     0       9.329   6.069   6.149  0.00  0.00     0.114 A 
HETATM    7  C   UNK     0       8.605   6.481   5.038  0.00  0.00     0.101 A 
HETATM    8  N   UNK     0       7.534   5.675   4.972  0.00  0.00    -0.133 NA
HETATM    9  N   UNK     0       7.599   4.820   5.946  0.00  0.00    -0.064 NA
BRANCH   7  10
HETATM   10  C   UNK     0       8.919   7.572   4.087  0.00  0.00     0.049 C 
BRANCH  10  11
HETATM   11  C   UNK     0       9.731   7.123   2.825  0.00  0.00     0.006 C 
HETATM   12  C   UNK     0      11.051   6.392   3.240  0.00  0.00     0.000 C 
HETATM   13  C   UNK     0      11.924   5.973   2.024  0.00  0.00     0.000 C 
HETATM   14  C   UNK     0      12.230   7.175   1.094  0.00  0.00     0.000 C 
HETATM   15  C   UNK     0      10.930   7.893   0.652  0.00  0.00     0.000 C 
HETATM   16  C   UNK     0      10.066   8.317   1.871  0.00  0.00     0.000 C 
ENDBRANCH  10  11
ENDBRANCH   7  10
ENDBRANCH   4   5
ENDBRANCH   2   4
BRANCH   1  17
HETATM   17  C   UNK     0       7.810   1.676   8.936  0.00  0.00     0.146 C 
HETATM   18  C   UNK     0       8.230   1.746  10.223  0.00  0.00     0.162 C 
HETATM   19  C   UNK     0       7.319   1.676  11.284  0.00  0.00     0.217 C 
HETATM   20  N   UNK     0       9.519   1.855  10.518  0.00  0.00    -0.143 N 
HETATM   21  C   UNK     0       5.955   1.344  11.031  0.00  0.00     0.044 A 
HETATM   22  O   UNK     0       7.706   1.892  12.459  0.00  0.00    -0.285 OA
HETATM   23  C   UNK     0       5.057   1.021  12.078  0.00  0.00     0.003 A 
HETATM   24  C   UNK     0       5.499   1.318   9.682  0.00  0.00     0.044 A 
HETATM   25  C   UNK     0       3.721   0.692  11.794  0.00  0.00     0.000 A 
HETATM   26  C   UNK     0       3.263   0.699  10.465  0.00  0.00     0.000 A 
HETATM   27  C   UNK     0       4.142   1.017   9.415  0.00  0.00     0.003 A 
HETATM   28  C   UNK     0       6.441   1.574   8.637  0.00  0.00     0.215 C 
HETATM   29  O   UNK     0       6.054   1.693   7.449  0.00  0.00    -0.285 OA
ENDBRANCH   1  17
TORSDOF 5
ENDMDL
MODEL 3
REMARK VINA RESULT:      -7.5     16.494     18.682
REMARK  5 active torsions:
REMARK  status: ('A' for Active; 'I' for Inactive)
REMARK    1  A    between atoms: C_9  and  N_13 
REMARK       I    between atoms: N_13  and  C_14 
REMARK    2  A    between atoms: C_14  and  C_17 
REMARK    3  A    between atoms: C_17  and  N_18 
REMARK    4  A    between atoms: C_20  and  C_23 
REMARK    5  A    between atoms: C_23  and  C_24 
ROOT
HETATM    1  N   UNK     0      -8.129   7.236  -3.443  0.00  0.00    -0.205 NA
HETATM    2  C   UNK     0      -8.015   7.773  -2.193  0.00  0.00     0.281 C 
HETATM    3  O   UNK     0      -8.257   8.998  -2.104  0.00  0.00    -0.268 OA
ENDROOT
BRANCH   2   4
HETATM    4  C   UNK     0      -7.679   7.044  -0.943  0.00  0.00     0.219 C 
BRANCH   4   5
HETATM    5  N   UNK     0      -6.498   7.575  -0.334  0.00  0.00    -0.221 N 
HETATM    6  C   UNK     0      -6.416   8.257   0.823  0.00  0.00     0.114 A 
HETATM    7  C   UNK     0      -5.068   8.529   1.018  0.00  0.00     0.101 A 
HETATM    8  N   UNK     0      -4.427   8.015  -0.043  0.00  0.00    -0.133 NA
HETATM    9  N   UNK     0      -5.301   7.452  -0.821  0.00  0.00    -0.064 NA
BRANCH   7  10
HETATM   10  C   UNK     0      -4.425   9.227   2.155  0.00  0.00     0.049 C 
BRANCH  10  11
HETATM   11  C   UNK     0      -4.382   8.404   3.486  0.00  0.00     0.006 C 
HETATM   12  C   UNK     0      -5.747   8.498   4.246  0.00  0.00     0.000 C 
HETATM   13  C   UNK     0      -5.742   7.743   5.605  0.00  0.00     0.000 C 
HETATM   14  C   UNK     0      -4.573   8.202   6.514  0.00  0.00     0.000 C 
HETATM   15  C   UNK     0      -3.211   8.088   5.784  0.00  0.00     0.000 C 
HETATM   16  C   UNK     0      -3.219   8.852   4.432  0.00  0.00     0.000 C 
ENDBRANCH  10  11
ENDBRANCH   7  10
ENDBRANCH   4   5
ENDBRANCH   2   4
BRANCH   1  17
HETATM   17  C   UNK     0      -7.954   5.953  -3.781  0.00  0.00     0.146 C 
HETATM   18  C   UNK     0      -6.723   5.540  -4.171  0.00  0.00     0.162 C 
HETATM   19  C   UNK     0      -6.497   4.216  -4.569  0.00  0.00     0.217 C 
HETATM   20  N   UNK     0      -5.699   6.384  -4.215  0.00  0.00    -0.143 N 
HETATM   21  C   UNK     0      -7.600   3.329  -4.746  0.00  0.00     0.044 A 
HETATM   22  O   UNK     0      -5.326   3.816  -4.782  0.00  0.00    -0.285 OA
HETATM   23  C   UNK     0      -7.452   2.069  -5.377  0.00  0.00     0.003 A 
HETATM   24  C   UNK     0      -8.886   3.740  -4.293  0.00  0.00     0.044 A 
HETATM   25  C   UNK     0      -8.560   1.221  -5.543  0.00  0.00     0.000 A 
HETATM   26  C   UNK     0      -9.822   1.613  -5.065  0.00  0.00     0.000 A 
HETATM   27  C   UNK     0      -9.985   2.860  -4.437  0.00  0.00     0.003 A 
HETATM   28  C   UNK     0      -9.026   5.046  -3.727  0.00  0.00     0.215 C 
HETATM   29  O   UNK     0     -10.108   5.394  -3.195  0.00  0.00    -0.285 OA
ENDBRANCH   1  17
TORSDOF 5
ENDMDL
MODEL 4
REMARK VINA RESULT:      -7.5      2.554      9.290
REMARK  5 active torsions:
REMARK  status: ('A' for Active; 'I' for Inactive)
REMARK    1  A    between atoms: C_9  and  N_13 
REMARK       I    between atoms: N_13  and  C_14 
REMARK    2  A    between atoms: C_14  and  C_17 
REMARK    3  A    between atoms: C_17  and  N_18 
REMARK    4  A    between atoms: C_20  and  C_23 
REMARK    5  A    between atoms: C_23  and  C_24 
ROOT
HETATM    1  N   UNK     0      10.380   6.603   6.428  0.00  0.00    -0.205 NA
HETATM    2  C   UNK     0      10.246   5.321   6.875  0.00  0.00     0.281 C 
HETATM    3  O   UNK     0      10.244   5.175   8.118  0.00  0.00    -0.268 OA
ENDROOT
BRANCH   2   4
HETATM    4  C   UNK     0      10.058   4.106   6.039  0.00  0.00     0.219 C 
BRANCH   4   5
HETATM    5  N   UNK     0       8.887   3.382   6.432  0.00  0.00    -0.221 N 
HETATM    6  C   UNK     0       8.839   2.183   7.040  0.00  0.00     0.114 A 
HETATM    7  C   UNK     0       7.495   1.909   7.251  0.00  0.00     0.101 A 
HETATM    8  N   UNK     0       6.818   2.948   6.737  0.00  0.00    -0.133 NA
HETATM    9  N   UNK     0       7.672   3.805   6.265  0.00  0.00    -0.064 NA
BRANCH   7  10
HETATM   10  C   UNK     0       6.888   0.732   7.914  0.00  0.00     0.049 C 
BRANCH  10  11
HETATM   11  C   UNK     0       5.710   1.069   8.890  0.00  0.00     0.006 C 
HETATM   12  C   UNK     0       6.248   1.682  10.226  0.00  0.00     0.000 C 
HETATM   13  C   UNK     0       5.123   1.984  11.255  0.00  0.00     0.000 C 
HETATM   14  C   UNK     0       4.249   0.735  11.536  0.00  0.00     0.000 C 
HETATM   15  C   UNK     0       3.686   0.133  10.224  0.00  0.00     0.000 C 
HETATM   16  C   UNK     0       4.815  -0.176   9.203  0.00  0.00     0.000 C 
ENDBRANCH  10  11
ENDBRANCH   7  10
ENDBRANCH   4   5
ENDBRANCH   2   4
BRANCH   1  17
HETATM   17  C   UNK     0      10.377   7.011   5.153  0.00  0.00     0.146 C 
HETATM   18  C   UNK     0       9.194   7.108   4.498  0.00  0.00     0.162 C 
HETATM   19  C   UNK     0       9.143   7.494   3.153  0.00  0.00     0.217 C 
HETATM   20  N   UNK     0       8.051   6.812   5.104  0.00  0.00    -0.143 N 
HETATM   21  C   UNK     0      10.348   7.613   2.400  0.00  0.00     0.044 A 
HETATM   22  O   UNK     0       8.035   7.723   2.608  0.00  0.00    -0.285 OA
HETATM   23  C   UNK     0      10.337   7.758   0.991  0.00  0.00     0.003 A 
HETATM   24  C   UNK     0      11.592   7.560   3.091  0.00  0.00     0.044 A 
HETATM   25  C   UNK     0      11.544   7.865   0.278  0.00  0.00     0.000 A 
HETATM   26  C   UNK     0      12.769   7.848   0.964  0.00  0.00     0.000 A 
HETATM   27  C   UNK     0      12.796   7.704   2.362  0.00  0.00     0.003 A 
HETATM   28  C   UNK     0      11.580   7.339   4.504  0.00  0.00     0.215 C 
HETATM   29  O   UNK     0      12.642   7.420   5.168  0.00  0.00    -0.285 OA
ENDBRANCH   1  17
TORSDOF 5
ENDMDL
MODEL 5
REMARK VINA RESULT:      -7.4     15.877     18.236
REMARK  5 active torsions:
REMARK  status: ('A' for Active; 'I' for Inactive)
REMARK    1  A    between atoms: C_9  and  N_13 
REMARK       I    between atoms: N_13  and  C_14 
REMARK    2  A    between atoms: C_14  and  C_17 
REMARK    3  A    between atoms: C_17  and  N_18 
REMARK    4  A    between atoms: C_20  and  C_23 
REMARK    5  A    between atoms: C_23  and  C_24 
ROOT
HETATM    1  N   UNK     0      -7.228   7.635  -3.440  0.00  0.00    -0.205 NA
HETATM    2  C   UNK     0      -6.965   8.026  -2.159  0.00  0.00     0.281 C 
HETATM    3  O   UNK     0      -6.974   9.262  -1.956  0.00  0.00    -0.268 OA
ENDROOT
BRANCH   2   4
HETATM    4  C   UNK     0      -6.719   7.138  -0.994  0.00  0.00     0.219 C 
BRANCH   4   5
HETATM    5  N   UNK     0      -5.892   7.781  -0.018  0.00  0.00    -0.221 N 
HETATM    6  C   UNK     0      -6.279   8.297   1.163  0.00  0.00     0.114 A 
HETATM    7  C   UNK     0      -5.128   8.775   1.773  0.00  0.00     0.101 A 
HETATM    8  N   UNK     0      -4.124   8.538   0.913  0.00  0.00    -0.133 NA
HETATM    9  N   UNK     0      -4.610   7.943  -0.134  0.00  0.00    -0.064 NA
BRANCH   7  10
HETATM   10  C   UNK     0      -4.987   9.410   3.104  0.00  0.00     0.049 C 
BRANCH  10  11
HETATM   11  C   UNK     0      -4.585   8.429   4.256  0.00  0.00     0.006 C 
HETATM   12  C   UNK     0      -5.780   8.205   5.243  0.00  0.00     0.000 C 
HETATM   13  C   UNK     0      -5.418   7.280   6.439  0.00  0.00     0.000 C 
HETATM   14  C   UNK     0      -4.164   7.786   7.198  0.00  0.00     0.000 C 
HETATM   15  C   UNK     0      -2.965   7.985   6.238  0.00  0.00     0.000 C 
HETATM   16  C   UNK     0      -3.328   8.917   5.050  0.00  0.00     0.000 C 
ENDBRANCH  10  11
ENDBRANCH   7  10
ENDBRANCH   4   5
ENDBRANCH   2   4
BRANCH   1  17
HETATM   17  C   UNK     0      -7.306   6.377  -3.892  0.00  0.00     0.146 C 
HETATM   18  C   UNK     0      -8.469   5.696  -3.740  0.00  0.00     0.162 C 
HETATM   19  C   UNK     0      -8.588   4.367  -4.163  0.00  0.00     0.217 C 
HETATM   20  N   UNK     0      -9.521   6.260  -3.159  0.00  0.00    -0.143 N 
HETATM   21  C   UNK     0      -7.432   3.650  -4.593  0.00  0.00     0.044 A 
HETATM   22  O   UNK     0      -9.710   3.803  -4.151  0.00  0.00    -0.285 OA
HETATM   23  C   UNK     0      -7.453   2.248  -4.794  0.00  0.00     0.003 A 
HETATM   24  C   UNK     0      -6.221   4.371  -4.801  0.00  0.00     0.044 A 
HETATM   25  C   UNK     0      -6.294   1.571  -5.211  0.00  0.00     0.000 A 
HETATM   26  C   UNK     0      -5.110   2.288  -5.449  0.00  0.00     0.000 A 
HETATM   27  C   UNK     0      -5.072   3.679  -5.254  0.00  0.00     0.003 A 
HETATM   28  C   UNK     0      -6.204   5.773  -4.520  0.00  0.00     0.215 C 
HETATM   29  O   UNK     0      -5.200   6.467  -4.817  0.00  0.00    -0.285 OA
ENDBRANCH   1  17
TORSDOF 5
ENDMDL
MODEL 6
REMARK VINA RESULT:      -7.3     14.203     15.942
REMARK  5 active torsions:
REMARK  status: ('A' for Active; 'I' for Inactive)
REMARK    1  A    between atoms: C_9  and  N_13 
REMARK       I    between atoms: N_13  and  C_14 
REMARK    2  A    between atoms: C_14  and  C_17 
REMARK    3  A    between atoms: C_17  and  N_18 
REMARK    4  A    between atoms: C_20  and  C_23 
REMARK    5  A    between atoms: C_23  and  C_24 
ROOT
HETATM    1  N   UNK     0      -4.824  10.079   3.011  0.00  0.00    -0.205 NA
HETATM    2  C   UNK     0      -4.729   9.615   1.731  0.00  0.00     0.281 C 
HETATM    3  O   UNK     0      -4.618  10.491   0.843  0.00  0.00    -0.268 OA
ENDROOT
BRANCH   2   4
HETATM    4  C   UNK     0      -4.699   8.192   1.304  0.00  0.00     0.219 C 
BRANCH   4   5
HETATM    5  N   UNK     0      -5.001   8.063  -0.089  0.00  0.00    -0.221 N 
HETATM    6  C   UNK     0      -6.205   7.829  -0.642  0.00  0.00     0.114 A 
HETATM    7  C   UNK     0      -6.007   7.824  -2.016  0.00  0.00     0.101 A 
HETATM    8  N   UNK     0      -4.694   8.030  -2.203  0.00  0.00    -0.133 NA
HETATM    9  N   UNK     0      -4.128   8.174  -1.044  0.00  0.00    -0.064 NA
BRANCH   7  10
HETATM   10  C   UNK     0      -7.010   7.643  -3.090  0.00  0.00     0.049 C 
BRANCH  10  11
HETATM   11  C   UNK     0      -7.013   6.222  -3.748  0.00  0.00     0.006 C 
HETATM   12  C   UNK     0      -7.202   5.106  -2.667  0.00  0.00     0.000 C 
HETATM   13  C   UNK     0      -7.156   3.669  -3.260  0.00  0.00     0.000 C 
HETATM   14  C   UNK     0      -5.864   3.427  -4.082  0.00  0.00     0.000 C 
HETATM   15  C   UNK     0      -5.679   4.509  -5.175  0.00  0.00     0.000 C 
HETATM   16  C   UNK     0      -5.715   5.941  -4.577  0.00  0.00     0.000 C 
ENDBRANCH  10  11
ENDBRANCH   7  10
ENDBRANCH   4   5
ENDBRANCH   2   4
BRANCH   1  17
HETATM   17  C   UNK     0      -4.916   9.341   4.125  0.00  0.00     0.146 C 
HETATM   18  C   UNK     0      -6.145   9.049   4.618  0.00  0.00     0.162 C 
HETATM   19  C   UNK     0      -6.293   8.312   5.799  0.00  0.00     0.217 C 
HETATM   20  N   UNK     0      -7.245   9.478   4.012  0.00  0.00    -0.143 N 
HETATM   21  C   UNK     0      -5.150   8.015   6.600  0.00  0.00     0.044 A 
HETATM   22  O   UNK     0      -7.432   7.924   6.159  0.00  0.00    -0.285 OA
HETATM   23  C   UNK     0      -5.272   7.493   7.911  0.00  0.00     0.003 A 
HETATM   24  C   UNK     0      -3.856   8.275   6.065  0.00  0.00     0.044 A 
HETATM   25  C   UNK     0      -4.126   7.217   8.677  0.00  0.00     0.000 A 
HETATM   26  C   UNK     0      -2.849   7.442   8.136  0.00  0.00     0.000 A 
HETATM   27  C   UNK     0      -2.712   7.959   6.836  0.00  0.00     0.003 A 
HETATM   28  C   UNK     0      -3.760   8.870   4.769  0.00  0.00     0.215 C 
HETATM   29  O   UNK     0      -2.643   8.991   4.207  0.00  0.00    -0.285 OA
ENDBRANCH   1  17
TORSDOF 5
ENDMDL
MODEL 7
REMARK VINA RESULT:      -7.3     14.769     17.510
REMARK  5 active torsions:
REMARK  status: ('A' for Active; 'I' for Inactive)
REMARK    1  A    between atoms: C_9  and  N_13 
REMARK       I    between atoms: N_13  and  C_14 
REMARK    2  A    between atoms: C_14  and  C_17 
REMARK    3  A    between atoms: C_17  and  N_18 
REMARK    4  A    between atoms: C_20  and  C_23 
REMARK    5  A    between atoms: C_23  and  C_24 
ROOT
HETATM    1  N   UNK     0      -6.316   9.092  -1.320  0.00  0.00    -0.205 NA
HETATM    2  C   UNK     0      -5.397   9.266  -0.326  0.00  0.00     0.281 C 
HETATM    3  O   UNK     0      -5.300  10.429   0.127  0.00  0.00    -0.268 OA
ENDROOT
BRANCH   2   4
HETATM    4  C   UNK     0      -4.547   8.214   0.290  0.00  0.00     0.219 C 
BRANCH   4   5
HETATM    5  N   UNK     0      -4.510   8.346   1.715  0.00  0.00    -0.221 N 
HETATM    6  C   UNK     0      -5.540   8.213   2.571  0.00  0.00     0.114 A 
HETATM    7  C   UNK     0      -5.012   8.391   3.842  0.00  0.00     0.101 A 
HETATM    8  N   UNK     0      -3.705   8.642   3.671  0.00  0.00    -0.133 NA
HETATM    9  N   UNK     0      -3.439   8.603   2.401  0.00  0.00    -0.064 NA
BRANCH   7  10
HETATM   10  C   UNK     0      -5.709   8.315   5.147  0.00  0.00     0.049 C 
BRANCH  10  11
HETATM   11  C   UNK     0      -4.990   7.429   6.220  0.00  0.00     0.006 C 
HETATM   12  C   UNK     0      -6.030   6.638   7.081  0.00  0.00     0.000 C 
HETATM   13  C   UNK     0      -5.371   5.783   8.200  0.00  0.00     0.000 C 
HETATM   14  C   UNK     0      -4.443   6.635   9.103  0.00  0.00     0.000 C 
HETATM   15  C   UNK     0      -3.389   7.402   8.266  0.00  0.00     0.000 C 
HETATM   16  C   UNK     0      -4.052   8.261   7.156  0.00  0.00     0.000 C 
ENDBRANCH  10  11
ENDBRANCH   7  10
ENDBRANCH   4   5
ENDBRANCH   2   4
BRANCH   1  17
HETATM   17  C   UNK     0      -6.621   7.943  -1.935  0.00  0.00     0.146 C 
HETATM   18  C   UNK     0      -7.517   7.106  -1.355  0.00  0.00     0.162 C 
HETATM   19  C   UNK     0      -7.841   5.877  -1.941  0.00  0.00     0.217 C 
HETATM   20  N   UNK     0      -8.092   7.415  -0.200  0.00  0.00    -0.143 N 
HETATM   21  C   UNK     0      -7.096   5.404  -3.062  0.00  0.00     0.044 A 
HETATM   22  O   UNK     0      -8.779   5.186  -1.472  0.00  0.00    -0.285 OA
HETATM   23  C   UNK     0      -7.219   4.074  -3.533  0.00  0.00     0.003 A 
HETATM   24  C   UNK     0      -6.190   6.296  -3.704  0.00  0.00     0.044 A 
HETATM   25  C   UNK     0      -6.465   3.637  -4.636  0.00  0.00     0.000 A 
HETATM   26  C   UNK     0      -5.597   4.527  -5.290  0.00  0.00     0.000 A 
HETATM   27  C   UNK     0      -5.464   5.850  -4.834  0.00  0.00     0.003 A 
HETATM   28  C   UNK     0      -6.028   7.610  -3.165  0.00  0.00     0.215 C 
HETATM   29  O   UNK     0      -5.345   8.467  -3.777  0.00  0.00    -0.285 OA
ENDBRANCH   1  17
TORSDOF 5
ENDMDL
MODEL 8
REMARK VINA RESULT:      -7.3     15.087     17.010
REMARK  5 active torsions:
REMARK  status: ('A' for Active; 'I' for Inactive)
REMARK    1  A    between atoms: C_9  and  N_13 
REMARK       I    between atoms: N_13  and  C_14 
REMARK    2  A    between atoms: C_14  and  C_17 
REMARK    3  A    between atoms: C_17  and  N_18 
REMARK    4  A    between atoms: C_20  and  C_23 
REMARK    5  A    between atoms: C_23  and  C_24 
ROOT
HETATM    1  N   UNK     0      -6.548  10.249   1.731  0.00  0.00    -0.205 NA
HETATM    2  C   UNK     0      -7.007   9.509   0.680  0.00  0.00     0.281 C 
HETATM    3  O   UNK     0      -7.523  10.158  -0.258  0.00  0.00    -0.268 OA
ENDROOT
BRANCH   2   4
HETATM    4  C   UNK     0      -6.911   8.034   0.526  0.00  0.00     0.219 C 
BRANCH   4   5
HETATM    5  N   UNK     0      -6.411   7.678  -0.767  0.00  0.00    -0.221 N 
HETATM    6  C   UNK     0      -7.073   7.033  -1.745  0.00  0.00     0.114 A 
HETATM    7  C   UNK     0      -6.195   6.950  -2.818  0.00  0.00     0.101 A 
HETATM    8  N   UNK     0      -5.054   7.528  -2.411  0.00  0.00    -0.133 NA
HETATM    9  N   UNK     0      -5.218   7.954  -1.195  0.00  0.00    -0.064 NA
BRANCH   7  10
HETATM   10  C   UNK     0      -6.431   6.364  -4.158  0.00  0.00     0.049 C 
BRANCH  10  11
HETATM   11  C   UNK     0      -6.053   4.850  -4.283  0.00  0.00     0.006 C 
HETATM   12  C   UNK     0      -5.306   4.569  -5.629  0.00  0.00     0.000 C 
HETATM   13  C   UNK     0      -4.955   3.068  -5.831  0.00  0.00     0.000 C 
HETATM   14  C   UNK     0      -6.206   2.163  -5.697  0.00  0.00     0.000 C 
HETATM   15  C   UNK     0      -6.941   2.409  -4.355  0.00  0.00     0.000 C 
HETATM   16  C   UNK     0      -7.297   3.908  -4.163  0.00  0.00     0.000 C 
ENDBRANCH  10  11
ENDBRANCH   7  10
ENDBRANCH   4   5
ENDBRANCH   2   4
BRANCH   1  17
HETATM   17  C   UNK     0      -5.933   9.787   2.826  0.00  0.00     0.146 C 
HETATM   18  C   UNK     0      -4.578   9.736   2.845  0.00  0.00     0.162 C 
HETATM   19  C   UNK     0      -3.889   9.227   3.953  0.00  0.00     0.217 C 
HETATM   20  N   UNK     0      -3.863  10.139   1.801  0.00  0.00    -0.143 N 
HETATM   21  C   UNK     0      -4.609   8.585   5.004  0.00  0.00     0.044 A 
HETATM   22  O   UNK     0      -2.639   9.325   4.014  0.00  0.00    -0.285 OA
HETATM   23  C   UNK     0      -3.950   7.844   6.016  0.00  0.00     0.003 A 
HETATM   24  C   UNK     0      -6.030   8.679   5.014  0.00  0.00     0.044 A 
HETATM   25  C   UNK     0      -4.689   7.218   7.034  0.00  0.00     0.000 A 
HETATM   26  C   UNK     0      -6.088   7.339   7.063  0.00  0.00     0.000 A 
HETATM   27  C   UNK     0      -6.756   8.071   6.066  0.00  0.00     0.003 A 
HETATM   28  C   UNK     0      -6.677   9.369   3.942  0.00  0.00     0.215 C 
HETATM   29  O   UNK     0      -7.912   9.590   3.984  0.00  0.00    -0.285 OA
ENDBRANCH   1  17
TORSDOF 5
ENDMDL
MODEL 9
REMARK VINA RESULT:      -7.3     15.867     18.160
REMARK  5 active torsions:
REMARK  status: ('A' for Active; 'I' for Inactive)
REMARK    1  A    between atoms: C_9  and  N_13 
REMARK       I    between atoms: N_13  and  C_14 
REMARK    2  A    between atoms: C_14  and  C_17 
REMARK    3  A    between atoms: C_17  and  N_18 
REMARK    4  A    between atoms: C_20  and  C_23 
REMARK    5  A    between atoms: C_23  and  C_24 
ROOT
HETATM    1  N   UNK     0      -8.716   7.228  -3.031  0.00  0.00    -0.205 NA
HETATM    2  C   UNK     0      -8.797   7.672  -1.743  0.00  0.00     0.281 C 
HETATM    3  O   UNK     0      -9.745   8.450  -1.494  0.00  0.00    -0.268 OA
ENDROOT
BRANCH   2   4
HETATM    4  C   UNK     0      -7.906   7.289  -0.616  0.00  0.00     0.219 C 
BRANCH   4   5
HETATM    5  N   UNK     0      -6.622   7.908  -0.737  0.00  0.00    -0.221 N 
HETATM    6  C   UNK     0      -6.347   9.225  -0.690  0.00  0.00     0.114 A 
HETATM    7  C   UNK     0      -4.969   9.337  -0.814  0.00  0.00     0.101 A 
HETATM    8  N   UNK     0      -4.503   8.086  -0.952  0.00  0.00    -0.133 NA
HETATM    9  N   UNK     0      -5.506   7.264  -0.896  0.00  0.00    -0.064 NA
BRANCH   7  10
HETATM   10  C   UNK     0      -4.139  10.565  -0.792  0.00  0.00     0.049 C 
BRANCH  10  11
HETATM   11  C   UNK     0      -2.666  10.365  -1.285  0.00  0.00     0.006 C 
HETATM   12  C   UNK     0      -1.695  11.357  -0.562  0.00  0.00     0.000 C 
HETATM   13  C   UNK     0      -0.226  11.240  -1.055  0.00  0.00     0.000 C 
HETATM   14  C   UNK     0      -0.121  11.391  -2.594  0.00  0.00     0.000 C 
HETATM   15  C   UNK     0      -1.057  10.396  -3.324  0.00  0.00     0.000 C 
HETATM   16  C   UNK     0      -2.525  10.523  -2.835  0.00  0.00     0.000 C 
ENDBRANCH  10  11
ENDBRANCH   7  10
ENDBRANCH   4   5
ENDBRANCH   2   4
BRANCH   1  17
HETATM   17  C   UNK     0      -7.816   6.370  -3.527  0.00  0.00     0.146 C 
HETATM   18  C   UNK     0      -6.691   6.860  -4.103  0.00  0.00     0.162 C 
HETATM   19  C   UNK     0      -5.737   6.005  -4.669  0.00  0.00     0.217 C 
HETATM   20  N   UNK     0      -6.472   8.167  -4.175  0.00  0.00    -0.143 N 
HETATM   21  C   UNK     0      -6.024   4.614  -4.810  0.00  0.00     0.044 A 
HETATM   22  O   UNK     0      -4.637   6.464  -5.061  0.00  0.00    -0.285 OA
HETATM   23  C   UNK     0      -5.206   3.759  -5.589  0.00  0.00     0.003 A 
HETATM   24  C   UNK     0      -7.179   4.087  -4.165  0.00  0.00     0.044 A 
HETATM   25  C   UNK     0      -5.520   2.395  -5.714  0.00  0.00     0.000 A 
HETATM   26  C   UNK     0      -6.641   1.868  -5.050  0.00  0.00     0.000 A 
HETATM   27  C   UNK     0      -7.462   2.704  -4.273  0.00  0.00     0.003 A 
HETATM   28  C   UNK     0      -8.029   4.984  -3.447  0.00  0.00     0.215 C 
HETATM   29  O   UNK     0      -8.979   4.540  -2.755  0.00  0.00    -0.285 OA
ENDBRANCH   1  17
TORSDOF 5
ENDMDL
