MODEL 1
REMARK VINA RESULT:      -7.0      0.000      0.000
REMARK  6 active torsions:
REMARK  status: ('A' for Active; 'I' for Inactive)
REMARK    1  A    between atoms: C_9  and  N_13 
REMARK       I    between atoms: N_13  and  C_14 
REMARK    2  A    between atoms: C_14  and  C_17 
REMARK    3  A    between atoms: C_17  and  N_18 
REMARK    4  A    between atoms: C_20  and  C_23 
REMARK    5  A    between atoms: C_23  and  C_25 
REMARK    6  A    between atoms: C_25  and  C_26 
ROOT
HETATM    1  N   UNK     0      -8.516   8.311  -2.167  0.00  0.00    -0.205 NA
HETATM    2  C   UNK     0      -9.304   7.196  -2.201  0.00  0.00     0.281 C 
HETATM    3  O   UNK     0     -10.262   7.227  -3.007  0.00  0.00    -0.268 OA
ENDROOT
BRANCH   1   4
HETATM    4  C   UNK     0      -7.449   8.486  -1.380  0.00  0.00     0.146 C 
HETATM    5  C   UNK     0      -6.210   8.254  -1.875  0.00  0.00     0.162 C 
HETATM    6  C   UNK     0      -5.088   8.306  -1.032  0.00  0.00     0.217 C 
HETATM    7  N   UNK     0      -6.051   7.934  -3.159  0.00  0.00    -0.143 N 
HETATM    8  C   UNK     0      -5.264   8.414   0.387  0.00  0.00     0.044 A 
HETATM    9  O   UNK     0      -3.935   8.202  -1.517  0.00  0.00    -0.285 OA
HETATM   10  C   UNK     0      -4.197   8.225   1.302  0.00  0.00     0.003 A 
HETATM   11  C   UNK     0      -6.567   8.689   0.890  0.00  0.00     0.044 A 
HETATM   12  C   UNK     0      -4.430   8.262   2.688  0.00  0.00     0.000 A 
HETATM   13  C   UNK     0      -5.723   8.507   3.180  0.00  0.00     0.000 A 
HETATM   14  C   UNK     0      -6.786   8.730   2.288  0.00  0.00     0.003 A 
HETATM   15  C   UNK     0      -7.626   8.878  -0.044  0.00  0.00     0.215 C 
HETATM   16  O   UNK     0      -8.720   9.372   0.320  0.00  0.00    -0.285 OA
ENDBRANCH   1   4
BRANCH   2  17
HETATM   17  C   UNK     0      -9.121   5.955  -1.404  0.00  0.00     0.219 C 
BRANCH  17  18
HETATM   18  N   UNK     0      -8.314   5.003  -2.097  0.00  0.00    -0.221 N 
HETATM   19  C   UNK     0      -8.741   4.072  -2.969  0.00  0.00     0.114 A 
HETATM   20  C   UNK     0      -7.614   3.375  -3.378  0.00  0.00     0.101 A 
HETATM   21  N   UNK     0      -6.577   3.944  -2.741  0.00  0.00    -0.133 NA
HETATM   22  N   UNK     0      -7.024   4.906  -1.994  0.00  0.00    -0.064 NA
BRANCH  20  23
HETATM   23  C   UNK     0      -7.550   2.210  -4.300  0.00  0.00     0.044 C 
HETATM   24  C   UNK     0      -8.492   2.431  -5.515  0.00  0.00     0.006 C 
BRANCH  23  25
HETATM   25  C   UNK     0      -6.088   1.915  -4.764  0.00  0.00     0.006 C 
BRANCH  25  26
HETATM   26  C   UNK     0      -5.741   2.534  -6.149  0.00  0.00     0.000 C 
HETATM   27  C   UNK     0      -5.119   3.943  -6.051  0.00  0.00     0.000 C 
ENDBRANCH  25  26
ENDBRANCH  23  25
ENDBRANCH  20  23
ENDBRANCH  17  18
ENDBRANCH   2  17
TORSDOF 6
ENDMDL
MODEL 2
REMARK VINA RESULT:      -6.9     16.932     18.993
REMARK  6 active torsions:
REMARK  status: ('A' for Active; 'I' for Inactive)
REMARK    1  A    between atoms: C_9  and  N_13 
REMARK       I    between atoms: N_13  and  C_14 
REMARK    2  A    between atoms: C_14  and  C_17 
REMARK    3  A    between atoms: C_17  and  N_18 
REMARK    4  A    between atoms: C_20  and  C_23 
REMARK    5  A    between atoms: C_23  and  C_25 
REMARK    6  A    between atoms: C_25  and  C_26 
ROOT
HETATM    1  N   UNK     0       8.048   3.519  10.231  0.00  0.00    -0.205 NA
HETATM    2  C   UNK     0       8.955   4.049   9.358  0.00  0.00     0.281 C 
HETATM    3  O   UNK     0       9.549   5.081   9.744  0.00  0.00    -0.268 OA
ENDROOT
BRANCH   1   4
HETATM    4  C   UNK     0       7.306   2.429  10.015  0.00  0.00     0.146 C 
HETATM    5  C   UNK     0       6.077   2.558   9.460  0.00  0.00     0.162 C 
HETATM    6  C   UNK     0       5.231   1.443   9.344  0.00  0.00     0.217 C 
HETATM    7  N   UNK     0       5.647   3.752   9.056  0.00  0.00    -0.143 N 
HETATM    8  C   UNK     0       5.582   0.208   9.985  0.00  0.00     0.044 A 
HETATM    9  O   UNK     0       4.141   1.545   8.728  0.00  0.00    -0.285 OA
HETATM   10  C   UNK     0       4.667  -0.867  10.115  0.00  0.00     0.003 A 
HETATM   11  C   UNK     0       6.887   0.078  10.537  0.00  0.00     0.044 A 
HETATM   12  C   UNK     0       5.026  -2.030  10.819  0.00  0.00     0.000 A 
HETATM   13  C   UNK     0       6.308  -2.144  11.385  0.00  0.00     0.000 A 
HETATM   14  C   UNK     0       7.239  -1.101  11.237  0.00  0.00     0.003 A 
HETATM   15  C   UNK     0       7.793   1.168  10.394  0.00  0.00     0.215 C 
HETATM   16  O   UNK     0       9.017   1.017  10.623  0.00  0.00    -0.285 OA
ENDBRANCH   1   4
BRANCH   2  17
HETATM   17  C   UNK     0       9.321   3.510   8.022  0.00  0.00     0.219 C 
BRANCH  17  18
HETATM   18  N   UNK     0       9.003   4.434   6.980  0.00  0.00    -0.221 N 
HETATM   19  C   UNK     0       9.856   5.264   6.356  0.00  0.00     0.114 A 
HETATM   20  C   UNK     0       9.105   5.973   5.430  0.00  0.00     0.101 A 
HETATM   21  N   UNK     0       7.849   5.509   5.544  0.00  0.00    -0.133 NA
HETATM   22  N   UNK     0       7.823   4.598   6.466  0.00  0.00    -0.064 NA
BRANCH  20  23
HETATM   23  C   UNK     0       9.566   7.054   4.521  0.00  0.00     0.044 C 
HETATM   24  C   UNK     0      10.937   7.611   4.996  0.00  0.00     0.006 C 
BRANCH  23  25
HETATM   25  C   UNK     0       9.635   6.576   3.036  0.00  0.00     0.006 C 
BRANCH  25  26
HETATM   26  C   UNK     0       9.177   7.656   2.015  0.00  0.00     0.000 C 
HETATM   27  C   UNK     0      10.350   8.425   1.370  0.00  0.00     0.000 C 
ENDBRANCH  25  26
ENDBRANCH  23  25
ENDBRANCH  20  23
ENDBRANCH  17  18
ENDBRANCH   2  17
TORSDOF 6
ENDMDL
MODEL 3
REMARK VINA RESULT:      -6.9     16.796     18.594
REMARK  6 active torsions:
REMARK  status: ('A' for Active; 'I' for Inactive)
REMARK    1  A    between atoms: C_9  and  N_13 
REMARK       I    between atoms: N_13  and  C_14 
REMARK    2  A    between atoms: C_14  and  C_17 
REMARK    3  A    between atoms: C_17  and  N_18 
REMARK    4  A    between atoms: C_20  and  C_23 
REMARK    5  A    between atoms: C_23  and  C_25 
REMARK    6  A    between atoms: C_25  and  C_26 
ROOT
HETATM    1  N   UNK     0       8.315   1.852   7.941  0.00  0.00    -0.205 NA
HETATM    2  C   UNK     0       8.847   2.953   7.334  0.00  0.00     0.281 C 
HETATM    3  O   UNK     0       9.654   2.729   6.403  0.00  0.00    -0.268 OA
ENDROOT
BRANCH   1   4
HETATM    4  C   UNK     0       7.442   1.867   8.953  0.00  0.00     0.146 C 
HETATM    5  C   UNK     0       7.895   1.999  10.223  0.00  0.00     0.162 C 
HETATM    6  C   UNK     0       7.010   1.887  11.308  0.00  0.00     0.217 C 
HETATM    7  N   UNK     0       9.193   2.195  10.454  0.00  0.00    -0.143 N 
HETATM    8  C   UNK     0       5.663   1.444  11.089  0.00  0.00     0.044 A 
HETATM    9  O   UNK     0       7.414   2.122  12.473  0.00  0.00    -0.285 OA
HETATM   10  C   UNK     0       4.802   1.076  12.154  0.00  0.00     0.003 A 
HETATM   11  C   UNK     0       5.192   1.339   9.750  0.00  0.00     0.044 A 
HETATM   12  C   UNK     0       3.517   0.572  11.892  0.00  0.00     0.000 A 
HETATM   13  C   UNK     0       3.065   0.446  10.567  0.00  0.00     0.000 A 
HETATM   14  C   UNK     0       3.893   0.836   9.500  0.00  0.00     0.003 A 
HETATM   15  C   UNK     0       6.071   1.715   8.694  0.00  0.00     0.215 C 
HETATM   16  O   UNK     0       5.635   1.892   7.531  0.00  0.00    -0.285 OA
ENDBRANCH   1   4
BRANCH   2  17
HETATM   17  C   UNK     0       8.543   4.374   7.648  0.00  0.00     0.219 C 
BRANCH  17  18
HETATM   18  N   UNK     0       8.518   5.177   6.467  0.00  0.00    -0.221 N 
HETATM   19  C   UNK     0       9.488   6.001   6.037  0.00  0.00     0.114 A 
HETATM   20  C   UNK     0       9.022   6.573   4.862  0.00  0.00     0.101 A 
HETATM   21  N   UNK     0       7.808   6.039   4.650  0.00  0.00    -0.133 NA
HETATM   22  N   UNK     0       7.540   5.215   5.615  0.00  0.00    -0.064 NA
BRANCH  20  23
HETATM   23  C   UNK     0       9.695   7.596   4.019  0.00  0.00     0.044 C 
HETATM   24  C   UNK     0      11.154   7.819   4.502  0.00  0.00     0.006 C 
BRANCH  23  25
HETATM   25  C   UNK     0       9.653   7.220   2.503  0.00  0.00     0.006 C 
BRANCH  25  26
HETATM   26  C   UNK     0      10.149   8.359   1.569  0.00  0.00     0.000 C 
HETATM   27  C   UNK     0      11.533   8.080   0.944  0.00  0.00     0.000 C 
ENDBRANCH  25  26
ENDBRANCH  23  25
ENDBRANCH  20  23
ENDBRANCH  17  18
ENDBRANCH   2  17
TORSDOF 6
ENDMDL
MODEL 4
REMARK VINA RESULT:      -6.7      2.125      7.488
REMARK  6 active torsions:
REMARK  status: ('A' for Active; 'I' for Inactive)
REMARK    1  A    between atoms: C_9  and  N_13 
REMARK       I    between atoms: N_13  and  C_14 
REMARK    2  A    between atoms: C_14  and  C_17 
REMARK    3  A    between atoms: C_17  and  N_18 
REMARK    4  A    between atoms: C_20  and  C_23 
REMARK    5  A    between atoms: C_23  and  C_25 
REMARK    6  A    between atoms: C_25  and  C_26 
ROOT
HETATM    1  N   UNK     0      -8.093   7.194  -3.552  0.00  0.00    -0.205 NA
HETATM    2  C   UNK     0      -7.999   7.779  -2.322  0.00  0.00     0.281 C 
HETATM    3  O   UNK     0      -8.199   9.014  -2.286  0.00  0.00    -0.268 OA
ENDROOT
BRANCH   1   4
HETATM    4  C   UNK     0      -7.914   5.895  -3.812  0.00  0.00     0.146 C 
HETATM    5  C   UNK     0      -6.699   5.458  -4.220  0.00  0.00     0.162 C 
HETATM    6  C   UNK     0      -6.523   4.123  -4.623  0.00  0.00     0.217 C 
HETATM    7  N   UNK     0      -5.670   6.302  -4.284  0.00  0.00    -0.143 N 
HETATM    8  C   UNK     0      -7.664   3.269  -4.786  0.00  0.00     0.044 A 
HETATM    9  O   UNK     0      -5.374   3.697  -4.892  0.00  0.00    -0.285 OA
HETATM   10  C   UNK     0      -7.581   2.003  -5.419  0.00  0.00     0.003 A 
HETATM   11  C   UNK     0      -8.929   3.730  -4.323  0.00  0.00     0.044 A 
HETATM   12  C   UNK     0      -8.737   1.232  -5.628  0.00  0.00     0.000 A 
HETATM   13  C   UNK     0      -9.988   1.703  -5.193  0.00  0.00     0.000 A 
HETATM   14  C   UNK     0     -10.085   2.941  -4.534  0.00  0.00     0.003 A 
HETATM   15  C   UNK     0      -8.991   5.004  -3.688  0.00  0.00     0.215 C 
HETATM   16  O   UNK     0     -10.008   5.345  -3.037  0.00  0.00    -0.285 OA
ENDBRANCH   1   4
BRANCH   2  17
HETATM   17  C   UNK     0      -7.717   7.095  -1.032  0.00  0.00     0.219 C 
BRANCH  17  18
HETATM   18  N   UNK     0      -6.463   7.505  -0.486  0.00  0.00    -0.221 N 
HETATM   19  C   UNK     0      -6.238   7.948   0.763  0.00  0.00     0.114 A 
HETATM   20  C   UNK     0      -4.884   8.237   0.838  0.00  0.00     0.101 A 
HETATM   21  N   UNK     0      -4.376   7.929  -0.367  0.00  0.00    -0.133 NA
HETATM   22  N   UNK     0      -5.334   7.496  -1.127  0.00  0.00    -0.064 NA
BRANCH  20  23
HETATM   23  C   UNK     0      -4.137   8.806   1.990  0.00  0.00     0.044 C 
HETATM   24  C   UNK     0      -3.308  10.040   1.539  0.00  0.00     0.006 C 
BRANCH  23  25
HETATM   25  C   UNK     0      -5.085   9.166   3.178  0.00  0.00     0.006 C 
BRANCH  25  26
HETATM   26  C   UNK     0      -4.895   8.251   4.421  0.00  0.00     0.000 C 
HETATM   27  C   UNK     0      -3.452   8.254   4.968  0.00  0.00     0.000 C 
ENDBRANCH  25  26
ENDBRANCH  23  25
ENDBRANCH  20  23
ENDBRANCH  17  18
ENDBRANCH   2  17
TORSDOF 6
ENDMDL
MODEL 5
REMARK VINA RESULT:      -6.7      1.219      2.471
REMARK  6 active torsions:
REMARK  status: ('A' for Active; 'I' for Inactive)
REMARK    1  A    between atoms: C_9  and  N_13 
REMARK       I    between atoms: N_13  and  C_14 
REMARK    2  A    between atoms: C_14  and  C_17 
REMARK    3  A    between atoms: C_17  and  N_18 
REMARK    4  A    between atoms: C_20  and  C_23 
REMARK    5  A    between atoms: C_23  and  C_25 
REMARK    6  A    between atoms: C_25  and  C_26 
ROOT
HETATM    1  N   UNK     0      -7.423   8.773  -1.676  0.00  0.00    -0.205 NA
HETATM    2  C   UNK     0      -8.103   7.881  -2.454  0.00  0.00     0.281 C 
HETATM    3  O   UNK     0      -8.148   8.144  -3.677  0.00  0.00    -0.268 OA
ENDROOT
BRANCH   1   4
HETATM    4  C   UNK     0      -7.259   8.684  -0.352  0.00  0.00     0.146 C 
HETATM    5  C   UNK     0      -8.232   9.140   0.472  0.00  0.00     0.162 C 
HETATM    6  C   UNK     0      -8.026   9.176   1.862  0.00  0.00     0.217 C 
HETATM    7  N   UNK     0      -9.377   9.598  -0.032  0.00  0.00    -0.143 N 
HETATM    8  C   UNK     0      -6.722   8.912   2.399  0.00  0.00     0.044 A 
HETATM    9  O   UNK     0      -8.970   9.492   2.627  0.00  0.00    -0.285 OA
HETATM   10  C   UNK     0      -6.392   9.171   3.753  0.00  0.00     0.003 A 
HETATM   11  C   UNK     0      -5.719   8.404   1.526  0.00  0.00     0.044 A 
HETATM   12  C   UNK     0      -5.080   8.972   4.219  0.00  0.00     0.000 A 
HETATM   13  C   UNK     0      -4.086   8.495   3.347  0.00  0.00     0.000 A 
HETATM   14  C   UNK     0      -4.404   8.202   2.009  0.00  0.00     0.003 A 
HETATM   15  C   UNK     0      -6.071   8.149   0.169  0.00  0.00     0.215 C 
HETATM   16  O   UNK     0      -5.319   7.468  -0.569  0.00  0.00    -0.285 OA
ENDBRANCH   1   4
BRANCH   2  17
HETATM   17  C   UNK     0      -8.764   6.629  -2.000  0.00  0.00     0.219 C 
BRANCH  17  18
HETATM   18  N   UNK     0      -8.072   5.472  -2.471  0.00  0.00    -0.221 N 
HETATM   19  C   UNK     0      -8.596   4.459  -3.181  0.00  0.00     0.114 A 
HETATM   20  C   UNK     0      -7.561   3.562  -3.404  0.00  0.00     0.101 A 
HETATM   21  N   UNK     0      -6.475   4.105  -2.829  0.00  0.00    -0.133 NA
HETATM   22  N   UNK     0      -6.809   5.236  -2.289  0.00  0.00    -0.064 NA
BRANCH  20  23
HETATM   23  C   UNK     0      -7.627   2.249  -4.097  0.00  0.00     0.044 C 
HETATM   24  C   UNK     0      -9.030   1.609  -3.907  0.00  0.00     0.006 C 
BRANCH  23  25
HETATM   25  C   UNK     0      -7.263   2.371  -5.611  0.00  0.00     0.006 C 
BRANCH  25  26
HETATM   26  C   UNK     0      -5.733   2.324  -5.885  0.00  0.00     0.000 C 
HETATM   27  C   UNK     0      -5.146   3.685  -6.317  0.00  0.00     0.000 C 
ENDBRANCH  25  26
ENDBRANCH  23  25
ENDBRANCH  20  23
ENDBRANCH  17  18
ENDBRANCH   2  17
TORSDOF 6
ENDMDL
MODEL 6
REMARK VINA RESULT:      -6.6     11.601     14.442
REMARK  6 active torsions:
REMARK  status: ('A' for Active; 'I' for Inactive)
REMARK    1  A    between atoms: C_9  and  N_13 
REMARK       I    between atoms: N_13  and  C_14 
REMARK    2  A    between atoms: C_14  and  C_17 
REMARK    3  A    between atoms: C_17  and  N_18 
REMARK    4  A    between atoms: C_20  and  C_23 
REMARK    5  A    between atoms: C_23  and  C_25 
REMARK    6  A    between atoms: C_25  and  C_26 
ROOT
HETATM    1  N   UNK     0       7.757   6.933  -7.047  0.00  0.00    -0.205 NA
HETATM    2  C   UNK     0       7.523   7.972  -6.193  0.00  0.00     0.281 C 
HETATM    3  O   UNK     0       7.902   9.099  -6.585  0.00  0.00    -0.268 OA
ENDROOT
BRANCH   1   4
HETATM    4  C   UNK     0       7.436   5.654  -6.824  0.00  0.00     0.146 C 
HETATM    5  C   UNK     0       6.338   5.129  -7.418  0.00  0.00     0.162 C 
HETATM    6  C   UNK     0       5.911   3.830  -7.096  0.00  0.00     0.217 C 
HETATM    7  N   UNK     0       5.631   5.856  -8.282  0.00  0.00    -0.143 N 
HETATM    8  C   UNK     0       6.517   3.128  -6.001  0.00  0.00     0.044 A 
HETATM    9  O   UNK     0       4.962   3.308  -7.730  0.00  0.00    -0.285 OA
HETATM   10  C   UNK     0       5.973   1.930  -5.473  0.00  0.00     0.003 A 
HETATM   11  C   UNK     0       7.688   3.678  -5.408  0.00  0.00     0.044 A 
HETATM   12  C   UNK     0       6.554   1.316  -4.349  0.00  0.00     0.000 A 
HETATM   13  C   UNK     0       7.694   1.877  -3.750  0.00  0.00     0.000 A 
HETATM   14  C   UNK     0       8.267   3.046  -4.281  0.00  0.00     0.003 A 
HETATM   15  C   UNK     0       8.220   4.881  -5.954  0.00  0.00     0.215 C 
HETATM   16  O   UNK     0       9.375   5.265  -5.650  0.00  0.00    -0.285 OA
ENDBRANCH   1   4
BRANCH   2  17
HETATM   17  C   UNK     0       6.843   7.901  -4.873  0.00  0.00     0.219 C 
BRANCH  17  18
HETATM   18  N   UNK     0       5.475   7.516  -5.009  0.00  0.00    -0.221 N 
HETATM   19  C   UNK     0       4.516   8.185  -5.671  0.00  0.00     0.114 A 
HETATM   20  C   UNK     0       3.352   7.444  -5.526  0.00  0.00     0.101 A 
HETATM   21  N   UNK     0       3.691   6.365  -4.801  0.00  0.00    -0.133 NA
HETATM   22  N   UNK     0       4.954   6.436  -4.513  0.00  0.00    -0.064 NA
BRANCH  20  23
HETATM   23  C   UNK     0       1.992   7.778  -6.026  0.00  0.00     0.044 C 
HETATM   24  C   UNK     0       1.058   8.154  -4.843  0.00  0.00     0.006 C 
BRANCH  23  25
HETATM   25  C   UNK     0       2.030   8.912  -7.099  0.00  0.00     0.006 C 
BRANCH  25  26
HETATM   26  C   UNK     0       1.534   8.455  -8.501  0.00  0.00     0.000 C 
HETATM   27  C   UNK     0       1.820   6.968  -8.796  0.00  0.00     0.000 C 
ENDBRANCH  25  26
ENDBRANCH  23  25
ENDBRANCH  20  23
ENDBRANCH  17  18
ENDBRANCH   2  17
TORSDOF 6
ENDMDL
MODEL 7
REMARK VINA RESULT:      -6.5      1.684      2.215
REMARK  6 active torsions:
REMARK  status: ('A' for Active; 'I' for Inactive)
REMARK    1  A    between atoms: C_9  and  N_13 
REMARK       I    between atoms: N_13  and  C_14 
REMARK    2  A    between atoms: C_14  and  C_17 
REMARK    3  A    between atoms: C_17  and  N_18 
REMARK    4  A    between atoms: C_20  and  C_23 
REMARK    5  A    between atoms: C_23  and  C_25 
REMARK    6  A    between atoms: C_25  and  C_26 
ROOT
HETATM    1  N   UNK     0      -6.913   9.302  -0.758  0.00  0.00    -0.205 NA
HETATM    2  C   UNK     0      -7.661   8.362  -1.407  0.00  0.00     0.281 C 
HETATM    3  O   UNK     0      -7.987   8.639  -2.584  0.00  0.00    -0.268 OA
ENDROOT
BRANCH   1   4
HETATM    4  C   UNK     0      -6.464   9.208   0.498  0.00  0.00     0.146 C 
HETATM    5  C   UNK     0      -5.281   8.595   0.738  0.00  0.00     0.162 C 
HETATM    6  C   UNK     0      -4.853   8.370   2.057  0.00  0.00     0.217 C 
HETATM    7  N   UNK     0      -4.532   8.163  -0.276  0.00  0.00    -0.143 N 
HETATM    8  C   UNK     0      -5.749   8.612   3.151  0.00  0.00     0.044 A 
HETATM    9  O   UNK     0      -3.707   7.904   2.273  0.00  0.00    -0.285 OA
HETATM   10  C   UNK     0      -5.471   8.177   4.471  0.00  0.00     0.003 A 
HETATM   11  C   UNK     0      -6.975   9.285   2.887  0.00  0.00     0.044 A 
HETATM   12  C   UNK     0      -6.411   8.366   5.499  0.00  0.00     0.000 A 
HETATM   13  C   UNK     0      -7.632   9.008   5.228  0.00  0.00     0.000 A 
HETATM   14  C   UNK     0      -7.911   9.475   3.932  0.00  0.00     0.003 A 
HETATM   15  C   UNK     0      -7.236   9.716   1.554  0.00  0.00     0.215 C 
HETATM   16  O   UNK     0      -8.160  10.529   1.314  0.00  0.00    -0.285 OA
ENDBRANCH   1   4
BRANCH   2  17
HETATM   17  C   UNK     0      -8.094   7.045  -0.870  0.00  0.00     0.219 C 
BRANCH  17  18
HETATM   18  N   UNK     0      -7.692   5.974  -1.725  0.00  0.00    -0.221 N 
HETATM   19  C   UNK     0      -8.482   5.011  -2.230  0.00  0.00     0.114 A 
HETATM   20  C   UNK     0      -7.662   4.190  -2.989  0.00  0.00     0.101 A 
HETATM   21  N   UNK     0      -6.432   4.725  -2.908  0.00  0.00    -0.133 NA
HETATM   22  N   UNK     0      -6.484   5.780  -2.156  0.00  0.00    -0.064 NA
BRANCH  20  23
HETATM   23  C   UNK     0      -8.038   2.950  -3.717  0.00  0.00     0.044 C 
HETATM   24  C   UNK     0      -9.102   3.264  -4.805  0.00  0.00     0.006 C 
BRANCH  23  25
HETATM   25  C   UNK     0      -6.793   2.236  -4.333  0.00  0.00     0.006 C 
BRANCH  25  26
HETATM   26  C   UNK     0      -6.577   2.557  -5.840  0.00  0.00     0.000 C 
HETATM   27  C   UNK     0      -5.276   3.339  -6.119  0.00  0.00     0.000 C 
ENDBRANCH  25  26
ENDBRANCH  23  25
ENDBRANCH  20  23
ENDBRANCH  17  18
ENDBRANCH   2  17
TORSDOF 6
ENDMDL
MODEL 8
REMARK VINA RESULT:      -6.5      3.443      7.545
REMARK  6 active torsions:
REMARK  status: ('A' for Active; 'I' for Inactive)
REMARK    1  A    between atoms: C_9  and  N_13 
REMARK       I    between atoms: N_13  and  C_14 
REMARK    2  A    between atoms: C_14  and  C_17 
REMARK    3  A    between atoms: C_17  and  N_18 
REMARK    4  A    between atoms: C_20  and  C_23 
REMARK    5  A    between atoms: C_23  and  C_25 
REMARK    6  A    between atoms: C_25  and  C_26 
ROOT
HETATM    1  N   UNK     0      -7.247   2.894  -3.928  0.00  0.00    -0.205 NA
HETATM    2  C   UNK     0      -6.058   3.507  -4.203  0.00  0.00     0.281 C 
HETATM    3  O   UNK     0      -5.054   3.043  -3.616  0.00  0.00    -0.268 OA
ENDROOT
BRANCH   1   4
HETATM    4  C   UNK     0      -8.433   3.232  -4.442  0.00  0.00     0.146 C 
HETATM    5  C   UNK     0      -8.941   2.517  -5.474  0.00  0.00     0.162 C 
HETATM    6  C   UNK     0     -10.121   2.932  -6.113  0.00  0.00     0.217 C 
HETATM    7  N   UNK     0      -8.301   1.435  -5.918  0.00  0.00    -0.143 N 
HETATM    8  C   UNK     0     -10.688   4.213  -5.806  0.00  0.00     0.044 A 
HETATM    9  O   UNK     0     -10.646   2.206  -6.992  0.00  0.00    -0.285 OA
HETATM   10  C   UNK     0     -11.724   4.792  -6.582  0.00  0.00     0.003 A 
HETATM   11  C   UNK     0     -10.164   4.939  -4.699  0.00  0.00     0.044 A 
HETATM   12  C   UNK     0     -12.197   6.084  -6.293  0.00  0.00     0.000 A 
HETATM   13  C   UNK     0     -11.658   6.808  -5.216  0.00  0.00     0.000 A 
HETATM   14  C   UNK     0     -10.653   6.237  -4.415  0.00  0.00     0.003 A 
HETATM   15  C   UNK     0      -9.125   4.341  -3.930  0.00  0.00     0.215 C 
HETATM   16  O   UNK     0      -8.809   4.807  -2.809  0.00  0.00    -0.285 OA
ENDBRANCH   1   4
BRANCH   2  17
HETATM   17  C   UNK     0      -5.838   4.638  -5.142  0.00  0.00     0.219 C 
BRANCH  17  18
HETATM   18  N   UNK     0      -5.552   5.850  -4.443  0.00  0.00    -0.221 N 
HETATM   19  C   UNK     0      -4.785   6.865  -4.878  0.00  0.00     0.114 A 
HETATM   20  C   UNK     0      -4.787   7.816  -3.869  0.00  0.00     0.101 A 
HETATM   21  N   UNK     0      -5.572   7.320  -2.898  0.00  0.00    -0.133 NA
HETATM   22  N   UNK     0      -6.012   6.158  -3.269  0.00  0.00    -0.064 NA
BRANCH  20  23
HETATM   23  C   UNK     0      -4.049   9.106  -3.832  0.00  0.00     0.044 C 
HETATM   24  C   UNK     0      -3.560   9.407  -2.389  0.00  0.00     0.006 C 
BRANCH  23  25
HETATM   25  C   UNK     0      -2.861   9.125  -4.846  0.00  0.00     0.006 C 
BRANCH  25  26
HETATM   26  C   UNK     0      -1.536   8.564  -4.259  0.00  0.00     0.000 C 
HETATM   27  C   UNK     0      -0.289   9.368  -4.684  0.00  0.00     0.000 C 
ENDBRANCH  25  26
ENDBRANCH  23  25
ENDBRANCH  20  23
ENDBRANCH  17  18
ENDBRANCH   2  17
TORSDOF 6
ENDMDL
MODEL 9
REMARK VINA RESULT:      -6.5      2.356      6.486
REMARK  6 active torsions:
REMARK  status: ('A' for Active; 'I' for Inactive)
REMARK    1  A    between atoms: C_9  and  N_13 
REMARK       I    between atoms: N_13  and  C_14 
REMARK    2  A    between atoms: C_14  and  C_17 
REMARK    3  A    between atoms: C_17  and  N_18 
REMARK    4  A    between atoms: C_20  and  C_23 
REMARK    5  A    between atoms: C_23  and  C_25 
REMARK    6  A    between atoms: C_25  and  C_26 
ROOT
HETATM    1  N   UNK     0      -8.563   7.347  -2.907  0.00  0.00    -0.205 NA
HETATM    2  C   UNK     0      -8.588   7.860  -1.642  0.00  0.00     0.281 C 
HETATM    3  O   UNK     0      -9.497   8.687  -1.404  0.00  0.00    -0.268 OA
ENDROOT
BRANCH   1   4
HETATM    4  C   UNK     0      -7.679   6.457  -3.369  0.00  0.00     0.146 C 
HETATM    5  C   UNK     0      -6.585   6.890  -4.039  0.00  0.00     0.162 C 
HETATM    6  C   UNK     0      -5.713   5.970  -4.644  0.00  0.00     0.217 C 
HETATM    7  N   UNK     0      -6.350   8.196  -4.165  0.00  0.00    -0.143 N 
HETATM    8  C   UNK     0      -6.076   4.584  -4.721  0.00  0.00     0.044 A 
HETATM    9  O   UNK     0      -4.644   6.370  -5.165  0.00  0.00    -0.285 OA
HETATM   10  C   UNK     0      -5.367   3.656  -5.525  0.00  0.00     0.003 A 
HETATM   11  C   UNK     0      -7.210   4.138  -3.985  0.00  0.00     0.044 A 
HETATM   12  C   UNK     0      -5.803   2.325  -5.633  0.00  0.00     0.000 A 
HETATM   13  C   UNK     0      -6.939   1.895  -4.926  0.00  0.00     0.000 A 
HETATM   14  C   UNK     0      -7.636   2.793  -4.098  0.00  0.00     0.003 A 
HETATM   15  C   UNK     0      -7.909   5.085  -3.182  0.00  0.00     0.215 C 
HETATM   16  O   UNK     0      -8.741   4.704  -2.323  0.00  0.00    -0.285 OA
ENDBRANCH   1   4
BRANCH   2  17
HETATM   17  C   UNK     0      -7.670   7.514  -0.525  0.00  0.00     0.219 C 
BRANCH  17  18
HETATM   18  N   UNK     0      -6.371   8.073  -0.723  0.00  0.00    -0.221 N 
HETATM   19  C   UNK     0      -6.074   9.373  -0.890  0.00  0.00     0.114 A 
HETATM   20  C   UNK     0      -4.699   9.442  -1.055  0.00  0.00     0.101 A 
HETATM   21  N   UNK     0      -4.254   8.178  -0.957  0.00  0.00    -0.133 NA
HETATM   22  N   UNK     0      -5.267   7.393  -0.758  0.00  0.00    -0.064 NA
BRANCH  20  23
HETATM   23  C   UNK     0      -3.874  10.648  -1.325  0.00  0.00     0.044 C 
HETATM   24  C   UNK     0      -2.600  10.642  -0.436  0.00  0.00     0.006 C 
BRANCH  23  25
HETATM   25  C   UNK     0      -3.506  10.775  -2.838  0.00  0.00     0.006 C 
BRANCH  25  26
HETATM   26  C   UNK     0      -2.141  10.124  -3.200  0.00  0.00     0.000 C 
HETATM   27  C   UNK     0      -2.283   8.807  -3.992  0.00  0.00     0.000 C 
ENDBRANCH  25  26
ENDBRANCH  23  25
ENDBRANCH  20  23
ENDBRANCH  17  18
ENDBRANCH   2  17
TORSDOF 6
ENDMDL
