MODEL 1
REMARK VINA RESULT:      -8.1      0.000      0.000
REMARK  4 active torsions:
REMARK  status: ('A' for Active; 'I' for Inactive)
REMARK    1  A    between atoms: C_9  and  N_13 
REMARK       I    between atoms: N_13  and  C_14 
REMARK    2  A    between atoms: C_14  and  C_17 
REMARK    3  A    between atoms: C_17  and  N_18 
REMARK    4  A    between atoms: C_20  and  C_23 
ROOT
HETATM    1  N   UNK     0       8.046   3.557  10.232  0.00  0.00    -0.205 NA
HETATM    2  C   UNK     0       8.940   4.101   9.353  0.00  0.00     0.281 C 
HETATM    3  O   UNK     0       9.584   5.090   9.772  0.00  0.00    -0.268 OA
ENDROOT
BRANCH   1   4
HETATM    4  C   UNK     0       7.281   2.478  10.030  0.00  0.00     0.146 C 
HETATM    5  C   UNK     0       6.060   2.627   9.461  0.00  0.00     0.162 C 
HETATM    6  C   UNK     0       5.197   1.534   9.312  0.00  0.00     0.217 C 
HETATM    7  N   UNK     0       5.632   3.817   9.061  0.00  0.00    -0.143 N 
HETATM    8  C   UNK     0       5.516   0.284   9.925  0.00  0.00     0.044 A 
HETATM    9  O   UNK     0       4.135   1.658   8.655  0.00  0.00    -0.285 OA
HETATM   10  C   UNK     0       4.570  -0.761  10.036  0.00  0.00     0.003 A 
HETATM   11  C   UNK     0       6.820   0.107  10.467  0.00  0.00     0.044 A 
HETATM   12  C   UNK     0       4.911  -1.968  10.674  0.00  0.00     0.000 A 
HETATM   13  C   UNK     0       6.207  -2.153  11.182  0.00  0.00     0.000 A 
HETATM   14  C   UNK     0       7.160  -1.127  11.072  0.00  0.00     0.003 A 
HETATM   15  C   UNK     0       7.734   1.203  10.410  0.00  0.00     0.215 C 
HETATM   16  O   UNK     0       8.941   1.036  10.714  0.00  0.00    -0.285 OA
ENDBRANCH   1   4
BRANCH   2  17
HETATM   17  C   UNK     0       9.248   3.621   7.981  0.00  0.00     0.219 C 
BRANCH  17  18
HETATM   18  N   UNK     0       8.798   4.539   6.980  0.00  0.00    -0.221 N 
HETATM   19  C   UNK     0       9.495   5.561   6.458  0.00  0.00     0.114 A 
HETATM   20  C   UNK     0       8.692   6.125   5.480  0.00  0.00     0.101 A 
HETATM   21  N   UNK     0       7.550   5.417   5.486  0.00  0.00    -0.133 NA
HETATM   22  N   UNK     0       7.643   4.489   6.388  0.00  0.00    -0.064 NA
BRANCH  20  23
HETATM   23  C   UNK     0       9.038   7.261   4.590  0.00  0.00     0.044 C 
HETATM   24  C   UNK     0       8.670   7.043   3.104  0.00  0.00     0.006 C 
HETATM   25  C   UNK     0       9.534   8.063   2.340  0.00  0.00     0.000 C 
HETATM   26  C   UNK     0      10.814   8.253   3.184  0.00  0.00     0.000 C 
HETATM   27  C   UNK     0      10.549   7.594   4.558  0.00  0.00     0.006 C 
ENDBRANCH  20  23
ENDBRANCH  17  18
ENDBRANCH   2  17
TORSDOF 4
ENDMDL
MODEL 2
REMARK VINA RESULT:      -8.0      1.895      2.628
REMARK  4 active torsions:
REMARK  status: ('A' for Active; 'I' for Inactive)
REMARK    1  A    between atoms: C_9  and  N_13 
REMARK       I    between atoms: N_13  and  C_14 
REMARK    2  A    between atoms: C_14  and  C_17 
REMARK    3  A    between atoms: C_17  and  N_18 
REMARK    4  A    between atoms: C_20  and  C_23 
ROOT
HETATM    1  N   UNK     0       8.427   1.874   7.832  0.00  0.00    -0.205 NA
HETATM    2  C   UNK     0       8.951   2.990   7.242  0.00  0.00     0.281 C 
HETATM    3  O   UNK     0       9.708   2.785   6.265  0.00  0.00    -0.268 OA
ENDROOT
BRANCH   1   4
HETATM    4  C   UNK     0       7.566   1.841   8.855  0.00  0.00     0.146 C 
HETATM    5  C   UNK     0       8.036   1.938  10.122  0.00  0.00     0.162 C 
HETATM    6  C   UNK     0       7.175   1.820  11.221  0.00  0.00     0.217 C 
HETATM    7  N   UNK     0       9.330   2.110  10.361  0.00  0.00    -0.143 N 
HETATM    8  C   UNK     0       5.821   1.412  11.026  0.00  0.00     0.044 A 
HETATM    9  O   UNK     0       7.599   2.056  12.379  0.00  0.00    -0.285 OA
HETATM   10  C   UNK     0       4.991   1.021  12.102  0.00  0.00     0.003 A 
HETATM   11  C   UNK     0       5.309   1.372   9.699  0.00  0.00     0.044 A 
HETATM   12  C   UNK     0       3.670   0.596  11.867  0.00  0.00     0.000 A 
HETATM   13  C   UNK     0       3.157   0.584  10.561  0.00  0.00     0.000 A 
HETATM   14  C   UNK     0       3.966   0.978   9.482  0.00  0.00     0.003 A 
HETATM   15  C   UNK     0       6.187   1.700   8.621  0.00  0.00     0.215 C 
HETATM   16  O   UNK     0       5.734   1.846   7.458  0.00  0.00    -0.285 OA
ENDBRANCH   1   4
BRANCH   2  17
HETATM   17  C   UNK     0       8.690   4.404   7.615  0.00  0.00     0.219 C 
BRANCH  17  18
HETATM   18  N   UNK     0       8.534   5.240   6.465  0.00  0.00    -0.221 N 
HETATM   19  C   UNK     0       9.434   6.109   5.977  0.00  0.00     0.114 A 
HETATM   20  C   UNK     0       8.883   6.639   4.822  0.00  0.00     0.101 A 
HETATM   21  N   UNK     0       7.674   6.067   4.694  0.00  0.00    -0.133 NA
HETATM   22  N   UNK     0       7.496   5.248   5.684  0.00  0.00    -0.064 NA
BRANCH  20  23
HETATM   23  C   UNK     0       9.515   7.616   3.901  0.00  0.00     0.044 C 
HETATM   24  C   UNK     0       8.972   7.573   2.454  0.00  0.00     0.006 C 
HETATM   25  C   UNK     0      10.062   8.264   1.614  0.00  0.00     0.000 C 
HETATM   26  C   UNK     0      11.397   7.993   2.342  0.00  0.00     0.000 C 
HETATM   27  C   UNK     0      11.042   7.424   3.736  0.00  0.00     0.006 C 
ENDBRANCH  20  23
ENDBRANCH  17  18
ENDBRANCH   2  17
TORSDOF 4
ENDMDL
MODEL 3
REMARK VINA RESULT:      -7.9      2.107      8.684
REMARK  4 active torsions:
REMARK  status: ('A' for Active; 'I' for Inactive)
REMARK    1  A    between atoms: C_9  and  N_13 
REMARK       I    between atoms: N_13  and  C_14 
REMARK    2  A    between atoms: C_14  and  C_17 
REMARK    3  A    between atoms: C_17  and  N_18 
REMARK    4  A    between atoms: C_20  and  C_23 
ROOT
HETATM    1  N   UNK     0       9.494   5.336   7.733  0.00  0.00    -0.205 NA
HETATM    2  C   UNK     0       9.126   4.132   8.265  0.00  0.00     0.281 C 
HETATM    3  O   UNK     0       8.803   4.146   9.475  0.00  0.00    -0.268 OA
ENDROOT
BRANCH   1   4
HETATM    4  C   UNK     0       9.835   5.578   6.462  0.00  0.00     0.146 C 
HETATM    5  C   UNK     0      11.143   5.548   6.109  0.00  0.00     0.162 C 
HETATM    6  C   UNK     0      11.546   5.880   4.810  0.00  0.00     0.217 C 
HETATM    7  N   UNK     0      12.084   5.238   6.992  0.00  0.00    -0.143 N 
HETATM    8  C   UNK     0      10.605   6.434   3.890  0.00  0.00     0.044 A 
HETATM    9  O   UNK     0      12.739   5.708   4.458  0.00  0.00    -0.285 OA
HETATM   10  C   UNK     0      11.005   7.031   2.672  0.00  0.00     0.003 A 
HETATM   11  C   UNK     0       9.224   6.409   4.235  0.00  0.00     0.044 A 
HETATM   12  C   UNK     0      10.050   7.594   1.806  0.00  0.00     0.000 A 
HETATM   13  C   UNK     0       8.686   7.542   2.132  0.00  0.00     0.000 A 
HETATM   14  C   UNK     0       8.272   6.945   3.335  0.00  0.00     0.003 A 
HETATM   15  C   UNK     0       8.850   5.869   5.503  0.00  0.00     0.215 C 
HETATM   16  O   UNK     0       7.639   5.667   5.772  0.00  0.00    -0.285 OA
ENDBRANCH   1   4
BRANCH   2  17
HETATM   17  C   UNK     0       9.039   2.831   7.553  0.00  0.00     0.219 C 
BRANCH  17  18
HETATM   18  N   UNK     0       7.740   2.244   7.668  0.00  0.00    -0.221 N 
HETATM   19  C   UNK     0       7.338   1.360   8.595  0.00  0.00     0.114 A 
HETATM   20  C   UNK     0       5.992   1.128   8.360  0.00  0.00     0.101 A 
HETATM   21  N   UNK     0       5.670   1.877   7.292  0.00  0.00    -0.133 NA
HETATM   22  N   UNK     0       6.727   2.521   6.904  0.00  0.00    -0.064 NA
BRANCH  20  23
HETATM   23  C   UNK     0       5.089   0.254   9.148  0.00  0.00     0.044 C 
HETATM   24  C   UNK     0       3.921   0.997   9.837  0.00  0.00     0.006 C 
HETATM   25  C   UNK     0       3.451   0.035  10.944  0.00  0.00     0.000 C 
HETATM   26  C   UNK     0       4.701  -0.770  11.366  0.00  0.00     0.000 C 
HETATM   27  C   UNK     0       5.793  -0.494  10.306  0.00  0.00     0.006 C 
ENDBRANCH  20  23
ENDBRANCH  17  18
ENDBRANCH   2  17
TORSDOF 4
ENDMDL
MODEL 4
REMARK VINA RESULT:      -7.5     16.825     18.787
REMARK  4 active torsions:
REMARK  status: ('A' for Active; 'I' for Inactive)
REMARK    1  A    between atoms: C_9  and  N_13 
REMARK       I    between atoms: N_13  and  C_14 
REMARK    2  A    between atoms: C_14  and  C_17 
REMARK    3  A    between atoms: C_17  and  N_18 
REMARK    4  A    between atoms: C_20  and  C_23 
ROOT
HETATM    1  N   UNK     0      -8.112   7.260  -3.524  0.00  0.00    -0.205 NA
HETATM    2  C   UNK     0      -8.044   7.856  -2.296  0.00  0.00     0.281 C 
HETATM    3  O   UNK     0      -8.307   9.080  -2.269  0.00  0.00    -0.268 OA
ENDROOT
BRANCH   1   4
HETATM    4  C   UNK     0      -7.919   5.965  -3.796  0.00  0.00     0.146 C 
HETATM    5  C   UNK     0      -6.700   5.551  -4.222  0.00  0.00     0.162 C 
HETATM    6  C   UNK     0      -6.484   4.219  -4.598  0.00  0.00     0.217 C 
HETATM    7  N   UNK     0      -5.687   6.401  -4.330  0.00  0.00    -0.143 N 
HETATM    8  C   UNK     0      -7.588   3.322  -4.715  0.00  0.00     0.044 A 
HETATM    9  O   UNK     0      -5.321   3.819  -4.851  0.00  0.00    -0.285 OA
HETATM   10  C   UNK     0      -7.468   2.059  -5.342  0.00  0.00     0.003 A 
HETATM   11  C   UNK     0      -8.853   3.733  -4.211  0.00  0.00     0.044 A 
HETATM   12  C   UNK     0      -8.586   1.215  -5.466  0.00  0.00     0.000 A 
HETATM   13  C   UNK     0      -9.827   1.609  -4.941  0.00  0.00     0.000 A 
HETATM   14  C   UNK     0      -9.960   2.856  -4.308  0.00  0.00     0.003 A 
HETATM   15  C   UNK     0      -8.968   5.042  -3.649  0.00  0.00     0.215 C 
HETATM   16  O   UNK     0     -10.013   5.378  -3.038  0.00  0.00    -0.285 OA
ENDBRANCH   1   4
BRANCH   2  17
HETATM   17  C   UNK     0      -7.729   7.199  -1.001  0.00  0.00     0.219 C 
BRANCH  17  18
HETATM   18  N   UNK     0      -6.454   7.603  -0.493  0.00  0.00    -0.221 N 
HETATM   19  C   UNK     0      -6.193   8.070   0.739  0.00  0.00     0.114 A 
HETATM   20  C   UNK     0      -4.823   8.263   0.804  0.00  0.00     0.101 A 
HETATM   21  N   UNK     0      -4.344   7.915  -0.402  0.00  0.00    -0.133 NA
HETATM   22  N   UNK     0      -5.335   7.534  -1.147  0.00  0.00    -0.064 NA
BRANCH  20  23
HETATM   23  C   UNK     0      -4.045   8.729   1.978  0.00  0.00     0.044 C 
HETATM   24  C   UNK     0      -4.608   8.269   3.342  0.00  0.00     0.006 C 
HETATM   25  C   UNK     0      -3.982   9.236   4.364  0.00  0.00     0.000 C 
HETATM   26  C   UNK     0      -3.759  10.566   3.609  0.00  0.00     0.000 C 
HETATM   27  C   UNK     0      -3.964  10.269   2.105  0.00  0.00     0.006 C 
ENDBRANCH  20  23
ENDBRANCH  17  18
ENDBRANCH   2  17
TORSDOF 4
ENDMDL
MODEL 5
REMARK VINA RESULT:      -7.4     16.732     18.923
REMARK  4 active torsions:
REMARK  status: ('A' for Active; 'I' for Inactive)
REMARK    1  A    between atoms: C_9  and  N_13 
REMARK       I    between atoms: N_13  and  C_14 
REMARK    2  A    between atoms: C_14  and  C_17 
REMARK    3  A    between atoms: C_17  and  N_18 
REMARK    4  A    between atoms: C_20  and  C_23 
ROOT
HETATM    1  N   UNK     0      -8.766   8.763  -2.164  0.00  0.00    -0.205 NA
HETATM    2  C   UNK     0      -9.659   7.737  -2.309  0.00  0.00     0.281 C 
HETATM    3  O   UNK     0     -10.582   7.931  -3.133  0.00  0.00    -0.268 OA
ENDROOT
BRANCH   1   4
HETATM    4  C   UNK     0      -7.680   8.773  -1.383  0.00  0.00     0.146 C 
HETATM    5  C   UNK     0      -6.484   8.406  -1.904  0.00  0.00     0.162 C 
HETATM    6  C   UNK     0      -5.343   8.321  -1.097  0.00  0.00     0.217 C 
HETATM    7  N   UNK     0      -6.366   8.082  -3.185  0.00  0.00    -0.143 N 
HETATM    8  C   UNK     0      -5.461   8.439   0.321  0.00  0.00     0.044 A 
HETATM    9  O   UNK     0      -4.218   8.122  -1.618  0.00  0.00    -0.285 OA
HETATM   10  C   UNK     0      -4.402   8.098   1.195  0.00  0.00     0.003 A 
HETATM   11  C   UNK     0      -6.698   8.885   0.865  0.00  0.00     0.044 A 
HETATM   12  C   UNK     0      -4.566   8.199   2.589  0.00  0.00     0.000 A 
HETATM   13  C   UNK     0      -5.777   8.667   3.122  0.00  0.00     0.000 A 
HETATM   14  C   UNK     0      -6.835   9.017   2.267  0.00  0.00     0.003 A 
HETATM   15  C   UNK     0      -7.777   9.152  -0.033  0.00  0.00     0.215 C 
HETATM   16  O   UNK     0      -8.822   9.710   0.384  0.00  0.00    -0.285 OA
ENDBRANCH   1   4
BRANCH   2  17
HETATM   17  C   UNK     0      -9.625   6.421  -1.622  0.00  0.00     0.219 C 
BRANCH  17  18
HETATM   18  N   UNK     0      -8.620   5.560  -2.165  0.00  0.00    -0.221 N 
HETATM   19  C   UNK     0      -8.549   5.106  -3.426  0.00  0.00     0.114 A 
HETATM   20  C   UNK     0      -7.379   4.369  -3.514  0.00  0.00     0.101 A 
HETATM   21  N   UNK     0      -6.824   4.411  -2.291  0.00  0.00    -0.133 NA
HETATM   22  N   UNK     0      -7.585   5.119  -1.515  0.00  0.00    -0.064 NA
BRANCH  20  23
HETATM   23  C   UNK     0      -6.837   3.699  -4.722  0.00  0.00     0.044 C 
HETATM   24  C   UNK     0      -6.427   2.224  -4.504  0.00  0.00     0.006 C 
HETATM   25  C   UNK     0      -5.476   1.913  -5.675  0.00  0.00     0.000 C 
HETATM   26  C   UNK     0      -4.789   3.249  -6.033  0.00  0.00     0.000 C 
HETATM   27  C   UNK     0      -5.561   4.365  -5.290  0.00  0.00     0.006 C 
ENDBRANCH  20  23
ENDBRANCH  17  18
ENDBRANCH   2  17
TORSDOF 4
ENDMDL
MODEL 6
REMARK VINA RESULT:      -7.4     13.011     15.072
REMARK  4 active torsions:
REMARK  status: ('A' for Active; 'I' for Inactive)
REMARK    1  A    between atoms: C_9  and  N_13 
REMARK       I    between atoms: N_13  and  C_14 
REMARK    2  A    between atoms: C_14  and  C_17 
REMARK    3  A    between atoms: C_17  and  N_18 
REMARK    4  A    between atoms: C_20  and  C_23 
ROOT
HETATM    1  N   UNK     0       7.791   6.932  -6.984  0.00  0.00    -0.205 NA
HETATM    2  C   UNK     0       7.543   8.011  -6.183  0.00  0.00     0.281 C 
HETATM    3  O   UNK     0       7.895   9.123  -6.642  0.00  0.00    -0.268 OA
ENDROOT
BRANCH   1   4
HETATM    4  C   UNK     0       7.468   5.658  -6.731  0.00  0.00     0.146 C 
HETATM    5  C   UNK     0       6.395   5.110  -7.351  0.00  0.00     0.162 C 
HETATM    6  C   UNK     0       5.975   3.809  -7.047  0.00  0.00     0.217 C 
HETATM    7  N   UNK     0       5.689   5.801  -8.237  0.00  0.00    -0.143 N 
HETATM    8  C   UNK     0       6.557   3.109  -5.947  0.00  0.00     0.044 A 
HETATM    9  O   UNK     0       5.073   3.264  -7.730  0.00  0.00    -0.285 OA
HETATM   10  C   UNK     0       5.996   1.918  -5.431  0.00  0.00     0.003 A 
HETATM   11  C   UNK     0       7.722   3.654  -5.336  0.00  0.00     0.044 A 
HETATM   12  C   UNK     0       6.582   1.273  -4.326  0.00  0.00     0.000 A 
HETATM   13  C   UNK     0       7.748   1.795  -3.744  0.00  0.00     0.000 A 
HETATM   14  C   UNK     0       8.321   2.973  -4.249  0.00  0.00     0.003 A 
HETATM   15  C   UNK     0       8.228   4.897  -5.826  0.00  0.00     0.215 C 
HETATM   16  O   UNK     0       9.344   5.323  -5.437  0.00  0.00    -0.285 OA
ENDBRANCH   1   4
BRANCH   2  17
HETATM   17  C   UNK     0       6.876   8.004  -4.856  0.00  0.00     0.219 C 
BRANCH  17  18
HETATM   18  N   UNK     0       5.499   7.629  -4.951  0.00  0.00    -0.221 N 
HETATM   19  C   UNK     0       4.510   8.343  -5.511  0.00  0.00     0.114 A 
HETATM   20  C   UNK     0       3.369   7.560  -5.438  0.00  0.00     0.101 A 
HETATM   21  N   UNK     0       3.740   6.426  -4.820  0.00  0.00    -0.133 NA
HETATM   22  N   UNK     0       5.005   6.500  -4.541  0.00  0.00    -0.064 NA
BRANCH  20  23
HETATM   23  C   UNK     0       2.023   7.898  -5.962  0.00  0.00     0.044 C 
HETATM   24  C   UNK     0       2.018   8.995  -7.051  0.00  0.00     0.006 C 
HETATM   25  C   UNK     0       0.567   9.511  -7.071  0.00  0.00     0.000 C 
HETATM   26  C   UNK     0       0.030   9.324  -5.635  0.00  0.00     0.000 C 
HETATM   27  C   UNK     0       1.047   8.431  -4.886  0.00  0.00     0.006 C 
ENDBRANCH  20  23
ENDBRANCH  17  18
ENDBRANCH   2  17
TORSDOF 4
ENDMDL
MODEL 7
REMARK VINA RESULT:      -7.3     19.103     21.087
REMARK  4 active torsions:
REMARK  status: ('A' for Active; 'I' for Inactive)
REMARK    1  A    between atoms: C_9  and  N_13 
REMARK       I    between atoms: N_13  and  C_14 
REMARK    2  A    between atoms: C_14  and  C_17 
REMARK    3  A    between atoms: C_17  and  N_18 
REMARK    4  A    between atoms: C_20  and  C_23 
ROOT
HETATM    1  N   UNK     0      -6.807   6.872  -2.336  0.00  0.00    -0.205 NA
HETATM    2  C   UNK     0      -7.575   7.978  -2.571  0.00  0.00     0.281 C 
HETATM    3  O   UNK     0      -7.410   8.934  -1.779  0.00  0.00    -0.268 OA
ENDROOT
BRANCH   1   4
HETATM    4  C   UNK     0      -6.774   5.752  -3.067  0.00  0.00     0.146 C 
HETATM    5  C   UNK     0      -5.980   5.698  -4.164  0.00  0.00     0.162 C 
HETATM    6  C   UNK     0      -5.984   4.575  -5.001  0.00  0.00     0.217 C 
HETATM    7  N   UNK     0      -5.202   6.721  -4.497  0.00  0.00    -0.143 N 
HETATM    8  C   UNK     0      -6.960   3.550  -4.816  0.00  0.00     0.044 A 
HETATM    9  O   UNK     0      -5.142   4.479  -5.927  0.00  0.00    -0.285 OA
HETATM   10  C   UNK     0      -7.182   2.540  -5.780  0.00  0.00     0.003 A 
HETATM   11  C   UNK     0      -7.750   3.572  -3.632  0.00  0.00     0.044 A 
HETATM   12  C   UNK     0      -8.174   1.564  -5.575  0.00  0.00     0.000 A 
HETATM   13  C   UNK     0      -8.933   1.569  -4.395  0.00  0.00     0.000 A 
HETATM   14  C   UNK     0      -8.718   2.560  -3.423  0.00  0.00     0.003 A 
HETATM   15  C   UNK     0      -7.560   4.644  -2.707  0.00  0.00     0.215 C 
HETATM   16  O   UNK     0      -8.106   4.608  -1.577  0.00  0.00    -0.285 OA
ENDBRANCH   1   4
BRANCH   2  17
HETATM   17  C   UNK     0      -8.547   8.171  -3.678  0.00  0.00     0.219 C 
BRANCH  17  18
HETATM   18  N   UNK     0      -9.645   7.257  -3.590  0.00  0.00    -0.221 N 
HETATM   19  C   UNK     0     -10.117   6.475  -4.574  0.00  0.00     0.114 A 
HETATM   20  C   UNK     0     -11.132   5.712  -4.017  0.00  0.00     0.101 A 
HETATM   21  N   UNK     0     -11.218   6.096  -2.733  0.00  0.00    -0.133 NA
HETATM   22  N   UNK     0     -10.328   7.015  -2.514  0.00  0.00    -0.064 NA
BRANCH  20  23
HETATM   23  C   UNK     0     -11.934   4.666  -4.697  0.00  0.00     0.044 C 
HETATM   24  C   UNK     0     -12.234   3.424  -3.826  0.00  0.00     0.006 C 
HETATM   25  C   UNK     0     -12.607   2.325  -4.838  0.00  0.00     0.000 C 
HETATM   26  C   UNK     0     -11.825   2.653  -6.129  0.00  0.00     0.000 C 
HETATM   27  C   UNK     0     -11.261   4.083  -5.963  0.00  0.00     0.006 C 
ENDBRANCH  20  23
ENDBRANCH  17  18
ENDBRANCH   2  17
TORSDOF 4
ENDMDL
MODEL 8
REMARK VINA RESULT:      -7.3     17.207     19.019
REMARK  4 active torsions:
REMARK  status: ('A' for Active; 'I' for Inactive)
REMARK    1  A    between atoms: C_9  and  N_13 
REMARK       I    between atoms: N_13  and  C_14 
REMARK    2  A    between atoms: C_14  and  C_17 
REMARK    3  A    between atoms: C_17  and  N_18 
REMARK    4  A    between atoms: C_20  and  C_23 
ROOT
HETATM    1  N   UNK     0      -8.507   5.870  -1.149  0.00  0.00    -0.205 NA
HETATM    2  C   UNK     0      -8.145   7.176  -0.970  0.00  0.00     0.281 C 
HETATM    3  O   UNK     0      -8.070   7.562   0.219  0.00  0.00    -0.268 OA
ENDROOT
BRANCH   1   4
HETATM    4  C   UNK     0      -8.611   5.221  -2.315  0.00  0.00     0.146 C 
HETATM    5  C   UNK     0      -9.764   5.309  -3.022  0.00  0.00     0.162 C 
HETATM    6  C   UNK     0      -9.942   4.576  -4.202  0.00  0.00     0.217 C 
HETATM    7  N   UNK     0     -10.771   6.063  -2.600  0.00  0.00    -0.143 N 
HETATM    8  C   UNK     0      -8.986   3.585  -4.578  0.00  0.00     0.044 A 
HETATM    9  O   UNK     0     -10.952   4.778  -4.921  0.00  0.00    -0.285 OA
HETATM   10  C   UNK     0      -9.243   2.641  -5.599  0.00  0.00     0.003 A 
HETATM   11  C   UNK     0      -7.749   3.534  -3.875  0.00  0.00     0.044 A 
HETATM   12  C   UNK     0      -8.287   1.659  -5.920  0.00  0.00     0.000 A 
HETATM   13  C   UNK     0      -7.056   1.629  -5.247  0.00  0.00     0.000 A 
HETATM   14  C   UNK     0      -6.782   2.565  -4.236  0.00  0.00     0.003 A 
HETATM   15  C   UNK     0      -7.541   4.450  -2.799  0.00  0.00     0.215 C 
HETATM   16  O   UNK     0      -6.407   4.558  -2.270  0.00  0.00    -0.285 OA
ENDBRANCH   1   4
BRANCH   2  17
HETATM   17  C   UNK     0      -7.802   8.160  -2.029  0.00  0.00     0.219 C 
BRANCH  17  18
HETATM   18  N   UNK     0      -6.425   8.082  -2.406  0.00  0.00    -0.221 N 
HETATM   19  C   UNK     0      -5.907   8.359  -3.613  0.00  0.00     0.114 A 
HETATM   20  C   UNK     0      -4.534   8.215  -3.495  0.00  0.00     0.101 A 
HETATM   21  N   UNK     0      -4.311   7.842  -2.224  0.00  0.00    -0.133 NA
HETATM   22  N   UNK     0      -5.450   7.768  -1.608  0.00  0.00    -0.064 NA
BRANCH  20  23
HETATM   23  C   UNK     0      -3.520   8.455  -4.551  0.00  0.00     0.044 C 
HETATM   24  C   UNK     0      -2.069   8.569  -4.029  0.00  0.00     0.006 C 
HETATM   25  C   UNK     0      -1.308   9.285  -5.159  0.00  0.00     0.000 C 
HETATM   26  C   UNK     0      -2.344  10.191  -5.862  0.00  0.00     0.000 C 
HETATM   27  C   UNK     0      -3.737   9.766  -5.343  0.00  0.00     0.006 C 
ENDBRANCH  20  23
ENDBRANCH  17  18
ENDBRANCH   2  17
TORSDOF 4
ENDMDL
MODEL 9
REMARK VINA RESULT:      -7.3     16.705     18.674
REMARK  4 active torsions:
REMARK  status: ('A' for Active; 'I' for Inactive)
REMARK    1  A    between atoms: C_9  and  N_13 
REMARK       I    between atoms: N_13  and  C_14 
REMARK    2  A    between atoms: C_14  and  C_17 
REMARK    3  A    between atoms: C_17  and  N_18 
REMARK    4  A    between atoms: C_20  and  C_23 
ROOT
HETATM    1  N   UNK     0      -8.699   7.545  -3.163  0.00  0.00    -0.205 NA
HETATM    2  C   UNK     0      -8.483   7.983  -1.886  0.00  0.00     0.281 C 
HETATM    3  O   UNK     0      -8.800   9.173  -1.658  0.00  0.00    -0.268 OA
ENDROOT
BRANCH   1   4
HETATM    4  C   UNK     0      -8.483   6.310  -3.631  0.00  0.00     0.146 C 
HETATM    5  C   UNK     0      -9.494   5.407  -3.614  0.00  0.00     0.162 C 
HETATM    6  C   UNK     0      -9.283   4.082  -4.014  0.00  0.00     0.217 C 
HETATM    7  N   UNK     0     -10.704   5.742  -3.183  0.00  0.00    -0.143 N 
HETATM    8  C   UNK     0      -7.958   3.616  -4.270  0.00  0.00     0.044 A 
HETATM    9  O   UNK     0     -10.257   3.298  -4.131  0.00  0.00    -0.285 OA
HETATM   10  C   UNK     0      -7.658   2.241  -4.413  0.00  0.00     0.003 A 
HETATM   11  C   UNK     0      -6.906   4.572  -4.351  0.00  0.00     0.044 A 
HETATM   12  C   UNK     0      -6.335   1.818  -4.634  0.00  0.00     0.000 A 
HETATM   13  C   UNK     0      -5.303   2.764  -4.743  0.00  0.00     0.000 A 
HETATM   14  C   UNK     0      -5.586   4.133  -4.611  0.00  0.00     0.003 A 
HETATM   15  C   UNK     0      -7.220   5.948  -4.129  0.00  0.00     0.215 C 
HETATM   16  O   UNK     0      -6.363   6.837  -4.361  0.00  0.00    -0.285 OA
ENDBRANCH   1   4
BRANCH   2  17
HETATM   17  C   UNK     0      -7.951   7.191  -0.748  0.00  0.00     0.219 C 
BRANCH  17  18
HETATM   18  N   UNK     0      -6.633   7.604  -0.379  0.00  0.00    -0.221 N 
HETATM   19  C   UNK     0      -6.263   8.158   0.788  0.00  0.00     0.114 A 
HETATM   20  C   UNK     0      -4.889   8.325   0.726  0.00  0.00     0.101 A 
HETATM   21  N   UNK     0      -4.518   7.875  -0.484  0.00  0.00    -0.133 NA
HETATM   22  N   UNK     0      -5.573   7.460  -1.114  0.00  0.00    -0.064 NA
BRANCH  20  23
HETATM   23  C   UNK     0      -4.009   8.862   1.793  0.00  0.00     0.044 C 
HETATM   24  C   UNK     0      -4.253   8.250   3.191  0.00  0.00     0.006 C 
HETATM   25  C   UNK     0      -3.627   9.262   4.169  0.00  0.00     0.000 C 
HETATM   26  C   UNK     0      -3.751  10.643   3.488  0.00  0.00     0.000 C 
HETATM   27  C   UNK     0      -4.156  10.386   2.018  0.00  0.00     0.006 C 
ENDBRANCH  20  23
ENDBRANCH  17  18
ENDBRANCH   2  17
TORSDOF 4
ENDMDL
