MODEL 1
REMARK VINA RESULT:      -8.3      0.000      0.000
REMARK  3 active torsions:
REMARK  status: ('A' for Active; 'I' for Inactive)
REMARK    1  A    between atoms: C_9  and  N_13 
REMARK       I    between atoms: N_13  and  C_14 
REMARK    2  A    between atoms: C_14  and  C_17 
REMARK    3  A    between atoms: C_17  and  N_18 
ROOT
HETATM    1  N   UNK     0      -6.297   5.774  -3.006  0.00  0.00    -0.205 NA
HETATM    2  C   UNK     0      -6.552   7.096  -3.236  0.00  0.00     0.281 C 
HETATM    3  O   UNK     0      -7.370   7.469  -4.112  0.00  0.00    -0.268 OA
ENDROOT
BRANCH   1   4
HETATM    4  C   UNK     0      -6.886   4.734  -3.620  0.00  0.00     0.146 A 
HETATM    5  C   UNK     0      -6.246   4.130  -4.652  0.00  0.00     0.162 A 
HETATM    6  C   UNK     0      -6.825   3.051  -5.336  0.00  0.00     0.217 A 
HETATM    7  N   UNK     0      -5.056   4.559  -5.053  0.00  0.00    -0.143 N 
HETATM    8  C   UNK     0      -8.145   2.618  -5.012  0.00  0.00     0.044 A 
HETATM    9  O   UNK     0      -6.178   2.465  -6.239  0.00  0.00    -0.285 OA
HETATM   10  C   UNK     0      -8.809   1.614  -5.760  0.00  0.00     0.003 A 
HETATM   11  C   UNK     0      -8.809   3.220  -3.907  0.00  0.00     0.044 A 
HETATM   12  C   UNK     0     -10.107   1.204  -5.412  0.00  0.00     0.000 A 
HETATM   13  C   UNK     0     -10.754   1.782  -4.309  0.00  0.00     0.000 A 
HETATM   14  C   UNK     0     -10.110   2.779  -3.557  0.00  0.00     0.003 A 
HETATM   15  C   UNK     0      -8.136   4.254  -3.185  0.00  0.00     0.215 A 
HETATM   16  O   UNK     0      -8.651   4.714  -2.137  0.00  0.00    -0.285 OA
ENDBRANCH   1   4
BRANCH   2  17
HETATM   17  C   UNK     0      -5.863   8.127  -2.434  0.00  0.00     0.219 C 
BRANCH  17  18
HETATM   18  N   UNK     0      -6.143   8.068  -1.031  0.00  0.00    -0.221 N 
HETATM   19  C   UNK     0      -5.287   8.275  -0.016  0.00  0.00     0.118 A 
HETATM   20  C   UNK     0      -6.046   8.249   1.148  0.00  0.00     0.123 A 
HETATM   21  N   UNK     0      -7.303   7.983   0.758  0.00  0.00    -0.129 NA
HETATM   22  C   UNK     0      -5.627   8.492   2.479  0.00  0.00     0.021 A 
HETATM   23  N   UNK     0      -7.326   7.875  -0.532  0.00  0.00    -0.063 NA
HETATM   24  C   UNK     0      -6.494   9.144   3.391  0.00  0.00     0.002 A 
HETATM   25  C   UNK     0      -4.343   8.103   2.929  0.00  0.00     0.002 A 
HETATM   26  C   UNK     0      -6.086   9.405   4.713  0.00  0.00     0.000 A 
HETATM   27  C   UNK     0      -4.811   9.003   5.147  0.00  0.00     0.000 A 
HETATM   28  C   UNK     0      -3.940   8.353   4.254  0.00  0.00     0.000 A 
ENDBRANCH  17  18
ENDBRANCH   2  17
TORSDOF 3
ENDMDL
MODEL 2
REMARK VINA RESULT:      -8.2     16.652     18.824
REMARK  3 active torsions:
REMARK  status: ('A' for Active; 'I' for Inactive)
REMARK    1  A    between atoms: C_9  and  N_13 
REMARK       I    between atoms: N_13  and  C_14 
REMARK    2  A    between atoms: C_14  and  C_17 
REMARK    3  A    between atoms: C_17  and  N_18 
ROOT
HETATM    1  N   UNK     0       9.459   6.024   6.405  0.00  0.00    -0.205 NA
HETATM    2  C   UNK     0       9.734   4.703   6.614  0.00  0.00     0.281 C 
HETATM    3  O   UNK     0      10.230   3.981   5.715  0.00  0.00    -0.268 OA
ENDROOT
BRANCH   1   4
HETATM    4  C   UNK     0       9.706   6.718   5.281  0.00  0.00     0.146 A 
HETATM    5  C   UNK     0       8.734   6.817   4.340  0.00  0.00     0.162 A 
HETATM    6  C   UNK     0       8.947   7.516   3.143  0.00  0.00     0.217 A 
HETATM    7  N   UNK     0       7.554   6.237   4.525  0.00  0.00    -0.143 N 
HETATM    8  C   UNK     0      10.228   8.070   2.852  0.00  0.00     0.044 A 
HETATM    9  O   UNK     0       8.005   7.653   2.325  0.00  0.00    -0.285 OA
HETATM   10  C   UNK     0      10.517   8.675   1.604  0.00  0.00     0.003 A 
HETATM   11  C   UNK     0      11.244   8.004   3.847  0.00  0.00     0.044 A 
HETATM   12  C   UNK     0      11.787   9.218   1.349  0.00  0.00     0.000 A 
HETATM   13  C   UNK     0      12.782   9.173   2.337  0.00  0.00     0.000 A 
HETATM   14  C   UNK     0      12.513   8.575   3.580  0.00  0.00     0.003 A 
HETATM   15  C   UNK     0      10.944   7.360   5.087  0.00  0.00     0.215 A 
HETATM   16  O   UNK     0      11.781   7.396   6.022  0.00  0.00    -0.285 OA
ENDBRANCH   1   4
BRANCH   2  17
HETATM   17  C   UNK     0       9.457   4.095   7.931  0.00  0.00     0.219 C 
BRANCH  17  18
HETATM   18  N   UNK     0       8.273   3.292   7.973  0.00  0.00    -0.221 N 
HETATM   19  C   UNK     0       7.932   2.384   8.904  0.00  0.00     0.118 A 
HETATM   20  C   UNK     0       6.642   1.972   8.595  0.00  0.00     0.123 A 
HETATM   21  N   UNK     0       6.309   2.626   7.469  0.00  0.00    -0.129 NA
HETATM   22  C   UNK     0       5.803   1.084   9.313  0.00  0.00     0.021 A 
HETATM   23  N   UNK     0       7.295   3.392   7.125  0.00  0.00    -0.063 NA
HETATM   24  C   UNK     0       4.404   1.303   9.355  0.00  0.00     0.002 A 
HETATM   25  C   UNK     0       6.335  -0.029  10.008  0.00  0.00     0.002 A 
HETATM   26  C   UNK     0       3.561   0.437  10.077  0.00  0.00     0.000 A 
HETATM   27  C   UNK     0       4.103  -0.670  10.754  0.00  0.00     0.000 A 
HETATM   28  C   UNK     0       5.490  -0.901  10.720  0.00  0.00     0.000 A 
ENDBRANCH  17  18
ENDBRANCH   2  17
TORSDOF 3
ENDMDL
MODEL 3
REMARK VINA RESULT:      -8.0     16.910     18.798
REMARK  3 active torsions:
REMARK  status: ('A' for Active; 'I' for Inactive)
REMARK    1  A    between atoms: C_9  and  N_13 
REMARK       I    between atoms: N_13  and  C_14 
REMARK    2  A    between atoms: C_14  and  C_17 
REMARK    3  A    between atoms: C_17  and  N_18 
ROOT
HETATM    1  N   UNK     0       7.856   1.753   8.128  0.00  0.00    -0.205 NA
HETATM    2  C   UNK     0       8.223   2.990   7.681  0.00  0.00     0.281 C 
HETATM    3  O   UNK     0       7.834   4.040   8.248  0.00  0.00    -0.268 OA
ENDROOT
BRANCH   1   4
HETATM    4  C   UNK     0       7.102   1.492   9.210  0.00  0.00     0.146 A 
HETATM    5  C   UNK     0       7.701   1.393  10.423  0.00  0.00     0.162 A 
HETATM    6  C   UNK     0       6.961   1.107  11.579  0.00  0.00     0.217 A 
HETATM    7  N   UNK     0       9.014   1.550  10.543  0.00  0.00    -0.143 N 
HETATM    8  C   UNK     0       5.565   0.830  11.490  0.00  0.00     0.044 A 
HETATM    9  O   UNK     0       7.531   1.094  12.698  0.00  0.00    -0.285 OA
HETATM   10  C   UNK     0       4.809   0.419  12.616  0.00  0.00     0.003 A 
HETATM   11  C   UNK     0       4.920   0.968  10.229  0.00  0.00     0.044 A 
HETATM   12  C   UNK     0       3.433   0.159  12.497  0.00  0.00     0.000 A 
HETATM   13  C   UNK     0       2.792   0.317  11.259  0.00  0.00     0.000 A 
HETATM   14  C   UNK     0       3.528   0.723  10.132  0.00  0.00     0.003 A 
HETATM   15  C   UNK     0       5.706   1.352   9.098  0.00  0.00     0.215 A 
HETATM   16  O   UNK     0       5.139   1.598   8.005  0.00  0.00    -0.285 OA
ENDBRANCH   1   4
BRANCH   2  17
HETATM   17  C   UNK     0       9.108   3.113   6.506  0.00  0.00     0.219 C 
BRANCH  17  18
HETATM   18  N   UNK     0       8.960   4.338   5.780  0.00  0.00    -0.221 N 
HETATM   19  C   UNK     0       9.927   5.201   5.424  0.00  0.00     0.118 A 
HETATM   20  C   UNK     0       9.321   6.158   4.619  0.00  0.00     0.123 A 
HETATM   21  N   UNK     0       8.019   5.832   4.581  0.00  0.00    -0.129 NA
HETATM   22  C   UNK     0       9.923   7.239   3.929  0.00  0.00     0.021 A 
HETATM   23  N   UNK     0       7.837   4.757   5.281  0.00  0.00    -0.063 NA
HETATM   24  C   UNK     0       9.429   7.640   2.663  0.00  0.00     0.002 A 
HETATM   25  C   UNK     0      11.028   7.936   4.475  0.00  0.00     0.002 A 
HETATM   26  C   UNK     0      10.026   8.703   1.960  0.00  0.00     0.000 A 
HETATM   27  C   UNK     0      11.116   9.392   2.520  0.00  0.00     0.000 A 
HETATM   28  C   UNK     0      11.617   9.007   3.777  0.00  0.00     0.000 A 
ENDBRANCH  17  18
ENDBRANCH   2  17
TORSDOF 3
ENDMDL
MODEL 4
REMARK VINA RESULT:      -7.9      4.077      6.126
REMARK  3 active torsions:
REMARK  status: ('A' for Active; 'I' for Inactive)
REMARK    1  A    between atoms: C_9  and  N_13 
REMARK       I    between atoms: N_13  and  C_14 
REMARK    2  A    between atoms: C_14  and  C_17 
REMARK    3  A    between atoms: C_17  and  N_18 
ROOT
HETATM    1  N   UNK     0      -6.156   7.951  -3.475  0.00  0.00    -0.205 NA
HETATM    2  C   UNK     0      -5.444   8.329  -2.374  0.00  0.00     0.281 C 
HETATM    3  O   UNK     0      -5.113   7.506  -1.485  0.00  0.00    -0.268 OA
ENDROOT
BRANCH   1   4
HETATM    4  C   UNK     0      -6.549   6.701  -3.775  0.00  0.00     0.146 A 
HETATM    5  C   UNK     0      -7.733   6.248  -3.291  0.00  0.00     0.162 A 
HETATM    6  C   UNK     0      -8.180   4.947  -3.561  0.00  0.00     0.217 A 
HETATM    7  N   UNK     0      -8.493   7.026  -2.529  0.00  0.00    -0.143 N 
HETATM    8  C   UNK     0      -7.354   4.038  -4.287  0.00  0.00     0.044 A 
HETATM    9  O   UNK     0      -9.312   4.580  -3.160  0.00  0.00    -0.285 OA
HETATM   10  C   UNK     0      -7.718   2.682  -4.475  0.00  0.00     0.003 A 
HETATM   11  C   UNK     0      -6.129   4.514  -4.832  0.00  0.00     0.044 A 
HETATM   12  C   UNK     0      -6.887   1.812  -5.201  0.00  0.00     0.000 A 
HETATM   13  C   UNK     0      -5.689   2.286  -5.757  0.00  0.00     0.000 A 
HETATM   14  C   UNK     0      -5.313   3.629  -5.579  0.00  0.00     0.003 A 
HETATM   15  C   UNK     0      -5.764   5.877  -4.604  0.00  0.00     0.215 A 
HETATM   16  O   UNK     0      -4.751   6.351  -5.174  0.00  0.00    -0.285 OA
ENDBRANCH   1   4
BRANCH   2  17
HETATM   17  C   UNK     0      -5.033   9.738  -2.214  0.00  0.00     0.219 C 
BRANCH  17  18
HETATM   18  N   UNK     0      -3.633   9.970  -2.406  0.00  0.00    -0.221 N 
HETATM   19  C   UNK     0      -2.824   9.392  -3.310  0.00  0.00     0.118 A 
HETATM   20  C   UNK     0      -1.597  10.037  -3.207  0.00  0.00     0.123 A 
HETATM   21  N   UNK     0      -1.737  10.931  -2.215  0.00  0.00    -0.129 NA
HETATM   22  C   UNK     0      -0.434   9.850  -3.994  0.00  0.00     0.021 A 
HETATM   23  N   UNK     0      -2.948  10.863  -1.759  0.00  0.00    -0.063 NA
HETATM   24  C   UNK     0       0.400  10.952  -4.305  0.00  0.00     0.002 A 
HETATM   25  C   UNK     0      -0.081   8.573  -4.493  0.00  0.00     0.002 A 
HETATM   26  C   UNK     0       1.552  10.784  -5.097  0.00  0.00     0.000 A 
HETATM   27  C   UNK     0       1.894   9.508  -5.577  0.00  0.00     0.000 A 
HETATM   28  C   UNK     0       1.077   8.403  -5.275  0.00  0.00     0.000 A 
ENDBRANCH  17  18
ENDBRANCH   2  17
TORSDOF 3
ENDMDL
MODEL 5
REMARK VINA RESULT:      -7.9      2.040      3.266
REMARK  3 active torsions:
REMARK  status: ('A' for Active; 'I' for Inactive)
REMARK    1  A    between atoms: C_9  and  N_13 
REMARK       I    between atoms: N_13  and  C_14 
REMARK    2  A    between atoms: C_14  and  C_17 
REMARK    3  A    between atoms: C_17  and  N_18 
ROOT
HETATM    1  N   UNK     0      -7.401   7.345  -2.297  0.00  0.00    -0.205 NA
HETATM    2  C   UNK     0      -6.528   7.797  -1.349  0.00  0.00     0.281 C 
HETATM    3  O   UNK     0      -5.525   7.128  -1.001  0.00  0.00    -0.268 OA
ENDROOT
BRANCH   1   4
HETATM    4  C   UNK     0      -7.295   6.198  -2.989  0.00  0.00     0.146 A 
HETATM    5  C   UNK     0      -8.125   5.168  -2.690  0.00  0.00     0.162 A 
HETATM    6  C   UNK     0      -8.045   3.946  -3.372  0.00  0.00     0.217 A 
HETATM    7  N   UNK     0      -9.029   5.288  -1.725  0.00  0.00    -0.143 N 
HETATM    8  C   UNK     0      -7.025   3.731  -4.346  0.00  0.00     0.044 A 
HETATM    9  O   UNK     0      -8.874   3.036  -3.123  0.00  0.00    -0.285 OA
HETATM   10  C   UNK     0      -6.836   2.472  -4.967  0.00  0.00     0.003 A 
HETATM   11  C   UNK     0      -6.174   4.816  -4.695  0.00  0.00     0.044 A 
HETATM   12  C   UNK     0      -5.826   2.293  -5.928  0.00  0.00     0.000 A 
HETATM   13  C   UNK     0      -5.000   3.369  -6.289  0.00  0.00     0.000 A 
HETATM   14  C   UNK     0      -5.174   4.624  -5.681  0.00  0.00     0.003 A 
HETATM   15  C   UNK     0      -6.358   6.070  -4.033  0.00  0.00     0.215 A 
HETATM   16  O   UNK     0      -5.702   7.072  -4.409  0.00  0.00    -0.285 OA
ENDBRANCH   1   4
BRANCH   2  17
HETATM   17  C   UNK     0      -6.749   9.113  -0.715  0.00  0.00     0.219 C 
BRANCH  17  18
HETATM   18  N   UNK     0      -6.036   9.304   0.511  0.00  0.00    -0.221 N 
HETATM   19  C   UNK     0      -6.226   8.664   1.678  0.00  0.00     0.118 A 
HETATM   20  C   UNK     0      -5.209   9.086   2.526  0.00  0.00     0.123 A 
HETATM   21  N   UNK     0      -4.500   9.987   1.827  0.00  0.00    -0.129 NA
HETATM   22  C   UNK     0      -4.921   8.648   3.842  0.00  0.00     0.021 A 
HETATM   23  N   UNK     0      -5.017  10.098   0.644  0.00  0.00    -0.063 NA
HETATM   24  C   UNK     0      -3.577   8.557   4.284  0.00  0.00     0.002 A 
HETATM   25  C   UNK     0      -5.954   8.286   4.740  0.00  0.00     0.002 A 
HETATM   26  C   UNK     0      -3.276   8.110   5.585  0.00  0.00     0.000 A 
HETATM   27  C   UNK     0      -4.313   7.764   6.468  0.00  0.00     0.000 A 
HETATM   28  C   UNK     0      -5.652   7.851   6.044  0.00  0.00     0.000 A 
ENDBRANCH  17  18
ENDBRANCH   2  17
TORSDOF 3
ENDMDL
MODEL 6
REMARK VINA RESULT:      -7.8      3.281      5.279
REMARK  3 active torsions:
REMARK  status: ('A' for Active; 'I' for Inactive)
REMARK    1  A    between atoms: C_9  and  N_13 
REMARK       I    between atoms: N_13  and  C_14 
REMARK    2  A    between atoms: C_14  and  C_17 
REMARK    3  A    between atoms: C_17  and  N_18 
ROOT
HETATM    1  N   UNK     0      -6.461   5.704  -2.905  0.00  0.00    -0.205 NA
HETATM    2  C   UNK     0      -6.636   7.027  -3.196  0.00  0.00     0.281 C 
HETATM    3  O   UNK     0      -7.336   7.404  -4.166  0.00  0.00    -0.268 OA
ENDROOT
BRANCH   1   4
HETATM    4  C   UNK     0      -7.020   4.669  -3.556  0.00  0.00     0.146 A 
HETATM    5  C   UNK     0      -6.333   4.075  -4.564  0.00  0.00     0.162 A 
HETATM    6  C   UNK     0      -6.878   3.003  -5.284  0.00  0.00     0.217 A 
HETATM    7  N   UNK     0      -5.127   4.511  -4.907  0.00  0.00    -0.143 N 
HETATM    8  C   UNK     0      -8.211   2.565  -5.024  0.00  0.00     0.044 A 
HETATM    9  O   UNK     0      -6.191   2.427  -6.163  0.00  0.00    -0.285 OA
HETATM   10  C   UNK     0      -8.838   1.567  -5.810  0.00  0.00     0.003 A 
HETATM   11  C   UNK     0      -8.925   3.154  -3.944  0.00  0.00     0.044 A 
HETATM   12  C   UNK     0     -10.150   1.152  -5.525  0.00  0.00     0.000 A 
HETATM   13  C   UNK     0     -10.847   1.717  -4.447  0.00  0.00     0.000 A 
HETATM   14  C   UNK     0     -10.240   2.708  -3.657  0.00  0.00     0.003 A 
HETATM   15  C   UNK     0      -8.287   4.182  -3.183  0.00  0.00     0.215 A 
HETATM   16  O   UNK     0      -8.849   4.631  -2.153  0.00  0.00    -0.285 OA
ENDBRANCH   1   4
BRANCH   2  17
HETATM   17  C   UNK     0      -5.999   8.054  -2.347  0.00  0.00     0.219 C 
BRANCH  17  18
HETATM   18  N   UNK     0      -4.953   8.787  -2.994  0.00  0.00    -0.221 N 
HETATM   19  C   UNK     0      -3.755   8.325  -3.392  0.00  0.00     0.118 A 
HETATM   20  C   UNK     0      -3.147   9.362  -4.090  0.00  0.00     0.123 A 
HETATM   21  N   UNK     0      -4.003  10.396  -4.025  0.00  0.00    -0.129 NA
HETATM   22  C   UNK     0      -1.908   9.357  -4.776  0.00  0.00     0.021 A 
HETATM   23  N   UNK     0      -5.055  10.026  -3.367  0.00  0.00    -0.063 NA
HETATM   24  C   UNK     0      -1.751  10.103  -5.970  0.00  0.00     0.002 A 
HETATM   25  C   UNK     0      -0.806   8.607  -4.298  0.00  0.00     0.002 A 
HETATM   26  C   UNK     0      -0.530  10.095  -6.670  0.00  0.00     0.000 A 
HETATM   27  C   UNK     0       0.558   9.353  -6.177  0.00  0.00     0.000 A 
HETATM   28  C   UNK     0       0.419   8.609  -4.992  0.00  0.00     0.000 A 
ENDBRANCH  17  18
ENDBRANCH   2  17
TORSDOF 3
ENDMDL
MODEL 7
REMARK VINA RESULT:      -7.8     17.069     18.890
REMARK  3 active torsions:
REMARK  status: ('A' for Active; 'I' for Inactive)
REMARK    1  A    between atoms: C_9  and  N_13 
REMARK       I    between atoms: N_13  and  C_14 
REMARK    2  A    between atoms: C_14  and  C_17 
REMARK    3  A    between atoms: C_17  and  N_18 
ROOT
HETATM    1  N   UNK     0       7.977   4.109   8.981  0.00  0.00    -0.205 NA
HETATM    2  C   UNK     0       9.319   4.046   9.223  0.00  0.00     0.281 C 
HETATM    3  O   UNK     0       9.848   3.040   9.756  0.00  0.00    -0.268 OA
ENDROOT
BRANCH   1   4
HETATM    4  C   UNK     0       7.080   3.137   9.225  0.00  0.00     0.146 A 
HETATM    5  C   UNK     0       6.762   2.269   8.233  0.00  0.00     0.162 A 
HETATM    6  C   UNK     0       5.821   1.248   8.432  0.00  0.00     0.217 A 
HETATM    7  N   UNK     0       7.325   2.377   7.035  0.00  0.00    -0.143 N 
HETATM    8  C   UNK     0       5.113   1.153   9.666  0.00  0.00     0.044 A 
HETATM    9  O   UNK     0       5.601   0.415   7.518  0.00  0.00    -0.285 OA
HETATM   10  C   UNK     0       4.071   0.213   9.862  0.00  0.00     0.003 A 
HETATM   11  C   UNK     0       5.466   2.034  10.726  0.00  0.00     0.044 A 
HETATM   12  C   UNK     0       3.396   0.140  11.092  0.00  0.00     0.000 A 
HETATM   13  C   UNK     0       3.759   0.993  12.145  0.00  0.00     0.000 A 
HETATM   14  C   UNK     0       4.790   1.932  11.967  0.00  0.00     0.003 A 
HETATM   15  C   UNK     0       6.498   2.998  10.499  0.00  0.00     0.215 A 
HETATM   16  O   UNK     0       6.909   3.702  11.454  0.00  0.00    -0.285 OA
ENDBRANCH   1   4
BRANCH   2  17
HETATM   17  C   UNK     0      10.187   5.178   8.843  0.00  0.00     0.219 C 
BRANCH  17  18
HETATM   18  N   UNK     0      10.436   5.284   7.437  0.00  0.00    -0.221 N 
HETATM   19  C   UNK     0       9.779   6.045   6.544  0.00  0.00     0.118 A 
HETATM   20  C   UNK     0      10.468   5.923   5.343  0.00  0.00     0.123 A 
HETATM   21  N   UNK     0      11.470   5.060   5.583  0.00  0.00    -0.129 NA
HETATM   22  C   UNK     0      10.225   6.586   4.116  0.00  0.00     0.021 A 
HETATM   23  N   UNK     0      11.420   4.697   6.825  0.00  0.00    -0.063 NA
HETATM   24  C   UNK     0      11.307   6.960   3.281  0.00  0.00     0.002 A 
HETATM   25  C   UNK     0       8.909   6.897   3.696  0.00  0.00     0.002 A 
HETATM   26  C   UNK     0      11.080   7.632   2.065  0.00  0.00     0.000 A 
HETATM   27  C   UNK     0       9.767   7.925   1.658  0.00  0.00     0.000 A 
HETATM   28  C   UNK     0       8.682   7.558   2.475  0.00  0.00     0.000 A 
ENDBRANCH  17  18
ENDBRANCH   2  17
TORSDOF 3
ENDMDL
MODEL 8
REMARK VINA RESULT:      -7.7      1.769      2.497
REMARK  3 active torsions:
REMARK  status: ('A' for Active; 'I' for Inactive)
REMARK    1  A    between atoms: C_9  and  N_13 
REMARK       I    between atoms: N_13  and  C_14 
REMARK    2  A    between atoms: C_14  and  C_17 
REMARK    3  A    between atoms: C_17  and  N_18 
ROOT
HETATM    1  N   UNK     0      -7.150   7.501  -2.275  0.00  0.00    -0.205 NA
HETATM    2  C   UNK     0      -6.362   7.907  -1.236  0.00  0.00     0.281 C 
HETATM    3  O   UNK     0      -5.397   7.215  -0.829  0.00  0.00    -0.268 OA
ENDROOT
BRANCH   1   4
HETATM    4  C   UNK     0      -6.989   6.382  -3.002  0.00  0.00     0.146 A 
HETATM    5  C   UNK     0      -6.086   6.377  -4.014  0.00  0.00     0.162 A 
HETATM    6  C   UNK     0      -5.892   5.241  -4.812  0.00  0.00     0.217 A 
HETATM    7  N   UNK     0      -5.371   7.463  -4.286  0.00  0.00    -0.143 N 
HETATM    8  C   UNK     0      -6.706   4.084  -4.627  0.00  0.00     0.044 A 
HETATM    9  O   UNK     0      -4.998   5.242  -5.694  0.00  0.00    -0.285 OA
HETATM   10  C   UNK     0      -6.623   2.964  -5.490  0.00  0.00     0.003 A 
HETATM   11  C   UNK     0      -7.629   4.064  -3.545  0.00  0.00     0.044 A 
HETATM   12  C   UNK     0      -7.434   1.836  -5.278  0.00  0.00     0.000 A 
HETATM   13  C   UNK     0      -8.329   1.807  -4.198  0.00  0.00     0.000 A 
HETATM   14  C   UNK     0      -8.424   2.911  -3.333  0.00  0.00     0.003 A 
HETATM   15  C   UNK     0      -7.722   5.217  -2.705  0.00  0.00     0.215 A 
HETATM   16  O   UNK     0      -8.439   5.177  -1.675  0.00  0.00    -0.285 OA
ENDBRANCH   1   4
BRANCH   2  17
HETATM   17  C   UNK     0      -6.633   9.197  -0.571  0.00  0.00     0.219 C 
BRANCH  17  18
HETATM   18  N   UNK     0      -5.933   9.382   0.664  0.00  0.00    -0.221 N 
HETATM   19  C   UNK     0      -6.104   8.702   1.811  0.00  0.00     0.118 A 
HETATM   20  C   UNK     0      -5.109   9.139   2.678  0.00  0.00     0.123 A 
HETATM   21  N   UNK     0      -4.433  10.088   2.009  0.00  0.00    -0.129 NA
HETATM   22  C   UNK     0      -4.811   8.676   3.982  0.00  0.00     0.021 A 
HETATM   23  N   UNK     0      -4.948  10.211   0.827  0.00  0.00    -0.063 NA
HETATM   24  C   UNK     0      -3.467   8.625   4.430  0.00  0.00     0.002 A 
HETATM   25  C   UNK     0      -5.833   8.247   4.863  0.00  0.00     0.002 A 
HETATM   26  C   UNK     0      -3.155   8.154   5.720  0.00  0.00     0.000 A 
HETATM   27  C   UNK     0      -4.182   7.741   6.586  0.00  0.00     0.000 A 
HETATM   28  C   UNK     0      -5.521   7.787   6.156  0.00  0.00     0.000 A 
ENDBRANCH  17  18
ENDBRANCH   2  17
TORSDOF 3
ENDMDL
MODEL 9
REMARK VINA RESULT:      -7.7     15.918     17.710
REMARK  3 active torsions:
REMARK  status: ('A' for Active; 'I' for Inactive)
REMARK    1  A    between atoms: C_9  and  N_13 
REMARK       I    between atoms: N_13  and  C_14 
REMARK    2  A    between atoms: C_14  and  C_17 
REMARK    3  A    between atoms: C_17  and  N_18 
ROOT
HETATM    1  N   UNK     0       9.338  -2.315  -1.890  0.00  0.00    -0.205 NA
HETATM    2  C   UNK     0       8.704  -1.109  -1.806  0.00  0.00     0.281 C 
HETATM    3  O   UNK     0       7.771  -0.909  -0.991  0.00  0.00    -0.268 OA
ENDROOT
BRANCH   1   4
HETATM    4  C   UNK     0       9.098  -3.393  -1.123  0.00  0.00     0.146 A 
HETATM    5  C   UNK     0       9.658  -3.462   0.110  0.00  0.00     0.162 A 
HETATM    6  C   UNK     0       9.452  -4.572   0.942  0.00  0.00     0.217 A 
HETATM    7  N   UNK     0      10.435  -2.481   0.555  0.00  0.00    -0.143 N 
HETATM    8  C   UNK     0       8.711  -5.696   0.472  0.00  0.00     0.044 A 
HETATM    9  O   UNK     0       9.923  -4.575   2.106  0.00  0.00    -0.285 OA
HETATM   10  C   UNK     0       8.584  -6.882   1.236  0.00  0.00     0.003 A 
HETATM   11  C   UNK     0       8.088  -5.618  -0.804  0.00  0.00     0.044 A 
HETATM   12  C   UNK     0       7.842  -7.971   0.749  0.00  0.00     0.000 A 
HETATM   13  C   UNK     0       7.209  -7.887  -0.501  0.00  0.00     0.000 A 
HETATM   14  C   UNK     0       7.325  -6.718  -1.272  0.00  0.00     0.003 A 
HETATM   15  C   UNK     0       8.255  -4.426  -1.575  0.00  0.00     0.215 A 
HETATM   16  O   UNK     0       7.616  -4.286  -2.647  0.00  0.00    -0.285 OA
ENDBRANCH   1   4
BRANCH   2  17
HETATM   17  C   UNK     0       9.122   0.003  -2.683  0.00  0.00     0.219 C 
BRANCH  17  18
HETATM   18  N   UNK     0       8.039   0.709  -3.297  0.00  0.00    -0.221 N 
HETATM   19  C   UNK     0       8.050   1.962  -3.784  0.00  0.00     0.118 A 
HETATM   20  C   UNK     0       6.821   2.153  -4.404  0.00  0.00     0.123 A 
HETATM   21  N   UNK     0       6.133   1.016  -4.208  0.00  0.00    -0.129 NA
HETATM   22  C   UNK     0       6.367   3.278  -5.135  0.00  0.00     0.021 A 
HETATM   23  N   UNK     0       6.877   0.187  -3.548  0.00  0.00    -0.063 NA
HETATM   24  C   UNK     0       5.521   3.103  -6.258  0.00  0.00     0.002 A 
HETATM   25  C   UNK     0       6.749   4.593  -4.774  0.00  0.00     0.002 A 
HETATM   26  C   UNK     0       5.074   4.211  -7.003  0.00  0.00     0.000 A 
HETATM   27  C   UNK     0       5.454   5.511  -6.626  0.00  0.00     0.000 A 
HETATM   28  C   UNK     0       6.292   5.701  -5.512  0.00  0.00     0.000 A 
ENDBRANCH  17  18
ENDBRANCH   2  17
TORSDOF 3
ENDMDL
