MODEL 1
REMARK VINA RESULT:      -7.1      0.000      0.000
REMARK  5 active torsions:
REMARK  status: ('A' for Active; 'I' for Inactive)
REMARK    1  A    between atoms: C_9  and  N_13 
REMARK       I    between atoms: N_13  and  C_14 
REMARK    2  A    between atoms: C_14  and  C_17 
REMARK    3  A    between atoms: C_17  and  N_18 
REMARK    4  A    between atoms: C_20  and  C_23 
REMARK    5  A    between atoms: C_23  and  C_24 
ROOT
HETATM    1  C   UNK     0       6.735  -1.193  11.119  0.00  0.00     0.003 A 
HETATM    2  C   UNK     0       5.685  -2.127  11.062  0.00  0.00     0.000 A 
HETATM    3  C   UNK     0       4.499  -1.815  10.378  0.00  0.00     0.000 A 
HETATM    4  C   UNK     0       4.364  -0.575   9.732  0.00  0.00     0.003 A 
HETATM    5  C   UNK     0       5.412   0.376   9.780  0.00  0.00     0.044 A 
HETATM    6  C   UNK     0       6.603   0.074  10.503  0.00  0.00     0.044 A 
HETATM    7  C   UNK     0       5.305   1.648   9.142  0.00  0.00     0.217 C 
HETATM    8  C   UNK     0       6.247   2.647   9.413  0.00  0.00     0.162 C 
HETATM    9  C   UNK     0       7.360   2.381  10.140  0.00  0.00     0.146 C 
HETATM   10  C   UNK     0       7.615   1.078  10.600  0.00  0.00     0.215 C 
HETATM   11  O   UNK     0       8.729   0.807  11.111  0.00  0.00    -0.285 OA
HETATM   12  O   UNK     0       4.361   1.875   8.345  0.00  0.00    -0.285 OA
HETATM   13  N   UNK     0       6.001   3.872   8.963  0.00  0.00    -0.143 N 
ENDROOT
BRANCH   9  14
HETATM   14  N   UNK     0       8.215   3.376  10.405  0.00  0.00    -0.205 NA
HETATM   15  C   UNK     0       9.287   3.755   9.648  0.00  0.00     0.281 C 
HETATM   16  O   UNK     0       9.972   4.696  10.110  0.00  0.00    -0.268 OA
BRANCH  15  17
HETATM   17  C   UNK     0       9.734   3.136   8.374  0.00  0.00     0.219 C 
BRANCH  17  18
HETATM   18  N   UNK     0       9.059   3.714   7.251  0.00  0.00    -0.221 N 
HETATM   19  C   UNK     0       9.052   5.008   6.884  0.00  0.00     0.114 A 
HETATM   20  C   UNK     0       8.297   5.077   5.721  0.00  0.00     0.102 A 
HETATM   21  N   UNK     0       7.877   3.826   5.475  0.00  0.00    -0.133 NA
HETATM   22  N   UNK     0       8.350   3.043   6.396  0.00  0.00    -0.064 NA
BRANCH  20  23
HETATM   23  C   UNK     0       8.001   6.263   4.884  0.00  0.00     0.062 C 
BRANCH  23  24
HETATM   24  C   UNK     0       9.022   6.592   3.779  0.00  0.00     0.074 C 
HETATM   25 Br   UNK     0       8.618   7.500   2.603  0.00  0.00    -0.081 Br
ENDBRANCH  23  24
ENDBRANCH  20  23
ENDBRANCH  17  18
ENDBRANCH  15  17
ENDBRANCH   9  14
TORSDOF 5
ENDMDL
MODEL 2
REMARK VINA RESULT:      -6.9      2.043      2.982
REMARK  5 active torsions:
REMARK  status: ('A' for Active; 'I' for Inactive)
REMARK    1  A    between atoms: C_9  and  N_13 
REMARK       I    between atoms: N_13  and  C_14 
REMARK    2  A    between atoms: C_14  and  C_17 
REMARK    3  A    between atoms: C_17  and  N_18 
REMARK    4  A    between atoms: C_20  and  C_23 
REMARK    5  A    between atoms: C_23  and  C_24 
ROOT
HETATM    1  C   UNK     0       4.448   1.444   9.024  0.00  0.00     0.003 A 
HETATM    2  C   UNK     0       3.545   1.056  10.029  0.00  0.00     0.000 A 
HETATM    3  C   UNK     0       3.990   0.886  11.351  0.00  0.00     0.000 A 
HETATM    4  C   UNK     0       5.336   1.120  11.675  0.00  0.00     0.003 A 
HETATM    5  C   UNK     0       6.258   1.510  10.674  0.00  0.00     0.044 A 
HETATM    6  C   UNK     0       5.814   1.650   9.326  0.00  0.00     0.044 A 
HETATM    7  C   UNK     0       7.633   1.749  10.967  0.00  0.00     0.217 C 
HETATM    8  C   UNK     0       8.556   1.890   9.925  0.00  0.00     0.162 C 
HETATM    9  C   UNK     0       8.147   1.977   8.635  0.00  0.00     0.146 C 
HETATM   10  C   UNK     0       6.777   1.973   8.321  0.00  0.00     0.215 C 
HETATM   11  O   UNK     0       6.408   2.235   7.150  0.00  0.00    -0.285 OA
HETATM   12  O   UNK     0       8.019   1.820  12.161  0.00  0.00    -0.285 OA
HETATM   13  N   UNK     0       9.847   1.907  10.234  0.00  0.00    -0.143 N 
ENDROOT
BRANCH   9  14
HETATM   14  N   UNK     0       9.067   2.076   7.667  0.00  0.00    -0.205 NA
HETATM   15  C   UNK     0       9.567   3.228   7.132  0.00  0.00     0.281 C 
HETATM   16  O   UNK     0      10.399   3.081   6.207  0.00  0.00    -0.268 OA
BRANCH  15  17
HETATM   17  C   UNK     0       9.190   4.615   7.505  0.00  0.00     0.219 C 
BRANCH  17  18
HETATM   18  N   UNK     0       8.743   5.357   6.364  0.00  0.00    -0.221 N 
HETATM   19  C   UNK     0       9.354   6.407   5.787  0.00  0.00     0.114 A 
HETATM   20  C   UNK     0       8.567   6.764   4.700  0.00  0.00     0.102 A 
HETATM   21  N   UNK     0       7.521   5.923   4.706  0.00  0.00    -0.133 NA
HETATM   22  N   UNK     0       7.658   5.100   5.700  0.00  0.00    -0.064 NA
BRANCH  20  23
HETATM   23  C   UNK     0       8.803   7.836   3.705  0.00  0.00     0.062 C 
BRANCH  23  24
HETATM   24  C   UNK     0       9.045   7.381   2.253  0.00  0.00     0.074 C 
HETATM   25 Br   UNK     0      10.221   7.965   1.449  0.00  0.00    -0.081 Br
ENDBRANCH  23  24
ENDBRANCH  20  23
ENDBRANCH  17  18
ENDBRANCH  15  17
ENDBRANCH   9  14
TORSDOF 5
ENDMDL
MODEL 3
REMARK VINA RESULT:      -6.9      3.369      8.043
REMARK  5 active torsions:
REMARK  status: ('A' for Active; 'I' for Inactive)
REMARK    1  A    between atoms: C_9  and  N_13 
REMARK       I    between atoms: N_13  and  C_14 
REMARK    2  A    between atoms: C_14  and  C_17 
REMARK    3  A    between atoms: C_17  and  N_18 
REMARK    4  A    between atoms: C_20  and  C_23 
REMARK    5  A    between atoms: C_23  and  C_24 
ROOT
HETATM    1  C   UNK     0       8.163   6.876   3.455  0.00  0.00     0.003 A 
HETATM    2  C   UNK     0       8.565   7.490   2.255  0.00  0.00     0.000 A 
HETATM    3  C   UNK     0       9.927   7.561   1.921  0.00  0.00     0.000 A 
HETATM    4  C   UNK     0      10.892   7.003   2.776  0.00  0.00     0.003 A 
HETATM    5  C   UNK     0      10.503   6.382   3.987  0.00  0.00     0.044 A 
HETATM    6  C   UNK     0       9.124   6.339   4.344  0.00  0.00     0.044 A 
HETATM    7  C   UNK     0      11.457   5.812   4.882  0.00  0.00     0.217 C 
HETATM    8  C   UNK     0      11.065   5.431   6.170  0.00  0.00     0.162 C 
HETATM    9  C   UNK     0       9.759   5.431   6.534  0.00  0.00     0.146 C 
HETATM   10  C   UNK     0       8.762   5.773   5.605  0.00  0.00     0.215 C 
HETATM   11  O   UNK     0       7.554   5.596   5.898  0.00  0.00    -0.285 OA
HETATM   12  O   UNK     0      12.650   5.663   4.518  0.00  0.00    -0.285 OA
HETATM   13  N   UNK     0      12.016   5.097   7.035  0.00  0.00    -0.143 N 
ENDROOT
BRANCH   9  14
HETATM   14  N   UNK     0       9.435   5.093   7.788  0.00  0.00    -0.205 NA
HETATM   15  C   UNK     0       8.987   3.876   8.215  0.00  0.00     0.281 C 
HETATM   16  O   UNK     0       8.710   3.796   9.434  0.00  0.00    -0.268 OA
BRANCH  15  17
HETATM   17  C   UNK     0       8.759   2.672   7.376  0.00  0.00     0.219 C 
BRANCH  17  18
HETATM   18  N   UNK     0       7.486   2.077   7.655  0.00  0.00    -0.221 N 
HETATM   19  C   UNK     0       7.234   1.049   8.485  0.00  0.00     0.114 A 
HETATM   20  C   UNK     0       5.860   0.855   8.455  0.00  0.00     0.102 A 
HETATM   21  N   UNK     0       5.375   1.761   7.592  0.00  0.00    -0.133 NA
HETATM   22  N   UNK     0       6.362   2.472   7.141  0.00  0.00    -0.064 NA
BRANCH  20  23
HETATM   23  C   UNK     0       5.052  -0.129   9.213  0.00  0.00     0.062 C 
BRANCH  23  24
HETATM   24  C   UNK     0       3.754   0.400   9.853  0.00  0.00     0.074 C 
HETATM   25 Br   UNK     0       3.703   0.689  11.365  0.00  0.00    -0.081 Br
ENDBRANCH  23  24
ENDBRANCH  20  23
ENDBRANCH  17  18
ENDBRANCH  15  17
ENDBRANCH   9  14
TORSDOF 5
ENDMDL
MODEL 4
REMARK VINA RESULT:      -6.8     16.496     18.658
REMARK  5 active torsions:
REMARK  status: ('A' for Active; 'I' for Inactive)
REMARK    1  A    between atoms: C_9  and  N_13 
REMARK       I    between atoms: N_13  and  C_14 
REMARK    2  A    between atoms: C_14  and  C_17 
REMARK    3  A    between atoms: C_17  and  N_18 
REMARK    4  A    between atoms: C_20  and  C_23 
REMARK    5  A    between atoms: C_23  and  C_24 
ROOT
HETATM    1  C   UNK     0      -6.744   8.727   2.375  0.00  0.00     0.003 A 
HETATM    2  C   UNK     0      -5.659   8.618   3.263  0.00  0.00     0.000 A 
HETATM    3  C   UNK     0      -4.367   8.366   2.772  0.00  0.00     0.000 A 
HETATM    4  C   UNK     0      -4.152   8.238   1.389  0.00  0.00     0.003 A 
HETATM    5  C   UNK     0      -5.235   8.344   0.483  0.00  0.00     0.044 A 
HETATM    6  C   UNK     0      -6.551   8.566   0.982  0.00  0.00     0.044 A 
HETATM    7  C   UNK     0      -5.054   8.211  -0.926  0.00  0.00     0.217 C 
HETATM    8  C   UNK     0      -6.166   8.077  -1.764  0.00  0.00     0.162 C 
HETATM    9  C   UNK     0      -7.425   8.241  -1.288  0.00  0.00     0.146 C 
HETATM   10  C   UNK     0      -7.637   8.596   0.054  0.00  0.00     0.215 C 
HETATM   11  O   UNK     0      -8.788   8.921   0.436  0.00  0.00    -0.285 OA
HETATM   12  O   UNK     0      -3.895   8.204  -1.414  0.00  0.00    -0.285 OA
HETATM   13  N   UNK     0      -5.952   7.754  -3.035  0.00  0.00    -0.143 N 
ENDROOT
BRANCH   9  14
HETATM   14  N   UNK     0      -8.461   8.067  -2.119  0.00  0.00    -0.205 NA
HETATM   15  C   UNK     0      -9.192   6.926  -2.283  0.00  0.00     0.281 C 
HETATM   16  O   UNK     0     -10.099   6.982  -3.146  0.00  0.00    -0.268 OA
BRANCH  15  17
HETATM   17  C   UNK     0      -8.988   5.634  -1.579  0.00  0.00     0.219 C 
BRANCH  17  18
HETATM   18  N   UNK     0      -8.130   4.765  -2.327  0.00  0.00    -0.221 N 
HETATM   19  C   UNK     0      -8.477   3.960  -3.347  0.00  0.00     0.114 A 
HETATM   20  C   UNK     0      -7.306   3.345  -3.771  0.00  0.00     0.102 A 
HETATM   21  N   UNK     0      -6.334   3.800  -2.965  0.00  0.00    -0.133 NA
HETATM   22  N   UNK     0      -6.854   4.642  -2.126  0.00  0.00    -0.064 NA
BRANCH  20  23
HETATM   23  C   UNK     0      -7.121   2.389  -4.887  0.00  0.00     0.062 C 
BRANCH  23  24
HETATM   24  C   UNK     0      -5.665   2.057  -5.268  0.00  0.00     0.074 C 
HETATM   25 Br   UNK     0      -4.893   2.976  -6.232  0.00  0.00    -0.081 Br
ENDBRANCH  23  24
ENDBRANCH  20  23
ENDBRANCH  17  18
ENDBRANCH  15  17
ENDBRANCH   9  14
TORSDOF 5
ENDMDL
MODEL 5
REMARK VINA RESULT:      -6.8     17.089     19.003
REMARK  5 active torsions:
REMARK  status: ('A' for Active; 'I' for Inactive)
REMARK    1  A    between atoms: C_9  and  N_13 
REMARK       I    between atoms: N_13  and  C_14 
REMARK    2  A    between atoms: C_14  and  C_17 
REMARK    3  A    between atoms: C_17  and  N_18 
REMARK    4  A    between atoms: C_20  and  C_23 
REMARK    5  A    between atoms: C_23  and  C_24 
ROOT
HETATM    1  C   UNK     0     -10.330   3.324  -3.709  0.00  0.00     0.003 A 
HETATM    2  C   UNK     0     -10.295   1.979  -4.120  0.00  0.00     0.000 A 
HETATM    3  C   UNK     0      -9.075   1.383  -4.477  0.00  0.00     0.000 A 
HETATM    4  C   UNK     0      -7.882   2.122  -4.409  0.00  0.00     0.003 A 
HETATM    5  C   UNK     0      -7.902   3.477  -3.998  0.00  0.00     0.044 A 
HETATM    6  C   UNK     0      -9.144   4.093  -3.667  0.00  0.00     0.044 A 
HETATM    7  C   UNK     0      -6.711   4.259  -3.924  0.00  0.00     0.217 C 
HETATM    8  C   UNK     0      -6.796   5.646  -3.754  0.00  0.00     0.162 C 
HETATM    9  C   UNK     0      -7.981   6.247  -3.485  0.00  0.00     0.146 C 
HETATM   10  C   UNK     0      -9.147   5.481  -3.326  0.00  0.00     0.215 C 
HETATM   11  O   UNK     0     -10.195   6.027  -2.901  0.00  0.00    -0.285 OA
HETATM   12  O   UNK     0      -5.587   3.706  -4.023  0.00  0.00    -0.285 OA
HETATM   13  N   UNK     0      -5.683   6.358  -3.894  0.00  0.00    -0.143 N 
ENDROOT
BRANCH   9  14
HETATM   14  N   UNK     0      -8.019   7.580  -3.366  0.00  0.00    -0.205 NA
HETATM   15  C   UNK     0      -7.991   8.296  -2.204  0.00  0.00     0.281 C 
HETATM   16  O   UNK     0      -8.073   9.540  -2.330  0.00  0.00    -0.268 OA
BRANCH  15  17
HETATM   17  C   UNK     0      -7.918   7.747  -0.826  0.00  0.00     0.219 C 
BRANCH  17  18
HETATM   18  N   UNK     0      -6.605   7.898  -0.275  0.00  0.00    -0.221 N 
HETATM   19  C   UNK     0      -6.287   8.313   0.965  0.00  0.00     0.114 A 
HETATM   20  C   UNK     0      -4.901   8.262   1.046  0.00  0.00     0.102 A 
HETATM   21  N   UNK     0      -4.473   7.844  -0.155  0.00  0.00    -0.133 NA
HETATM   22  N   UNK     0      -5.506   7.632  -0.912  0.00  0.00    -0.064 NA
BRANCH  20  23
HETATM   23  C   UNK     0      -4.034   8.582   2.204  0.00  0.00     0.062 C 
BRANCH  23  24
HETATM   24  C   UNK     0      -4.622   8.292   3.599  0.00  0.00     0.074 C 
HETATM   25 Br   UNK     0      -3.718   8.355   4.843  0.00  0.00    -0.081 Br
ENDBRANCH  23  24
ENDBRANCH  20  23
ENDBRANCH  17  18
ENDBRANCH  15  17
ENDBRANCH   9  14
TORSDOF 5
ENDMDL
MODEL 6
REMARK VINA RESULT:      -6.5     17.039     18.994
REMARK  5 active torsions:
REMARK  status: ('A' for Active; 'I' for Inactive)
REMARK    1  A    between atoms: C_9  and  N_13 
REMARK       I    between atoms: N_13  and  C_14 
REMARK    2  A    between atoms: C_14  and  C_17 
REMARK    3  A    between atoms: C_17  and  N_18 
REMARK    4  A    between atoms: C_20  and  C_23 
REMARK    5  A    between atoms: C_23  and  C_24 
ROOT
HETATM    1  C   UNK     0      -5.572   4.099  -4.742  0.00  0.00     0.003 A 
HETATM    2  C   UNK     0      -5.335   2.726  -4.928  0.00  0.00     0.000 A 
HETATM    3  C   UNK     0      -6.386   1.803  -4.795  0.00  0.00     0.000 A 
HETATM    4  C   UNK     0      -7.682   2.252  -4.494  0.00  0.00     0.003 A 
HETATM    5  C   UNK     0      -7.937   3.632  -4.303  0.00  0.00     0.044 A 
HETATM    6  C   UNK     0      -6.865   4.565  -4.405  0.00  0.00     0.044 A 
HETATM    7  C   UNK     0      -9.240   4.121  -3.989  0.00  0.00     0.217 C 
HETATM    8  C   UNK     0      -9.406   5.446  -3.570  0.00  0.00     0.162 C 
HETATM    9  C   UNK     0      -8.379   6.330  -3.618  0.00  0.00     0.146 C 
HETATM   10  C   UNK     0      -7.132   5.943  -4.136  0.00  0.00     0.215 C 
HETATM   11  O   UNK     0      -6.250   6.812  -4.343  0.00  0.00    -0.285 OA
HETATM   12  O   UNK     0     -10.236   3.361  -4.077  0.00  0.00    -0.285 OA
HETATM   13  N   UNK     0     -10.594   5.803  -3.094  0.00  0.00    -0.143 N 
ENDROOT
BRANCH   9  14
HETATM   14  N   UNK     0      -8.575   7.577  -3.173  0.00  0.00    -0.205 NA
HETATM   15  C   UNK     0      -8.397   8.025  -1.896  0.00  0.00     0.281 C 
HETATM   16  O   UNK     0      -8.675   9.230  -1.698  0.00  0.00    -0.268 OA
BRANCH  15  17
HETATM   17  C   UNK     0      -7.954   7.219  -0.728  0.00  0.00     0.219 C 
BRANCH  17  18
HETATM   18  N   UNK     0      -6.641   7.600  -0.302  0.00  0.00    -0.221 N 
HETATM   19  C   UNK     0      -6.295   8.137   0.882  0.00  0.00     0.114 A 
HETATM   20  C   UNK     0      -4.916   8.298   0.845  0.00  0.00     0.102 A 
HETATM   21  N   UNK     0      -4.524   7.873  -0.366  0.00  0.00    -0.133 NA
HETATM   22  N   UNK     0      -5.567   7.461  -1.018  0.00  0.00    -0.064 NA
BRANCH  20  23
HETATM   23  C   UNK     0      -4.021   8.818   1.905  0.00  0.00     0.062 C 
BRANCH  23  24
HETATM   24  C   UNK     0      -4.218   8.230   3.315  0.00  0.00     0.074 C 
HETATM   25 Br   UNK     0      -3.654   8.968   4.543  0.00  0.00    -0.081 Br
ENDBRANCH  23  24
ENDBRANCH  20  23
ENDBRANCH  17  18
ENDBRANCH  15  17
ENDBRANCH   9  14
TORSDOF 5
ENDMDL
MODEL 7
REMARK VINA RESULT:      -6.5     16.612     18.746
REMARK  5 active torsions:
REMARK  status: ('A' for Active; 'I' for Inactive)
REMARK    1  A    between atoms: C_9  and  N_13 
REMARK       I    between atoms: N_13  and  C_14 
REMARK    2  A    between atoms: C_14  and  C_17 
REMARK    3  A    between atoms: C_17  and  N_18 
REMARK    4  A    between atoms: C_20  and  C_23 
REMARK    5  A    between atoms: C_23  and  C_24 
ROOT
HETATM    1  C   UNK     0      -7.388   2.708  -4.216  0.00  0.00     0.003 A 
HETATM    2  C   UNK     0      -6.603   1.883  -5.042  0.00  0.00     0.000 A 
HETATM    3  C   UNK     0      -5.522   2.424  -5.758  0.00  0.00     0.000 A 
HETATM    4  C   UNK     0      -5.210   3.789  -5.637  0.00  0.00     0.003 A 
HETATM    5  C   UNK     0      -5.991   4.632  -4.810  0.00  0.00     0.044 A 
HETATM    6  C   UNK     0      -7.109   4.091  -4.110  0.00  0.00     0.044 A 
HETATM    7  C   UNK     0      -5.708   6.023  -4.671  0.00  0.00     0.217 C 
HETATM    8  C   UNK     0      -6.635   6.866  -4.049  0.00  0.00     0.162 C 
HETATM    9  C   UNK     0      -7.727   6.364  -3.420  0.00  0.00     0.146 C 
HETATM   10  C   UNK     0      -7.926   4.976  -3.341  0.00  0.00     0.215 C 
HETATM   11  O   UNK     0      -8.836   4.520  -2.606  0.00  0.00    -0.285 OA
HETATM   12  O   UNK     0      -4.631   6.493  -5.116  0.00  0.00    -0.285 OA
HETATM   13  N   UNK     0      -6.429   8.177  -4.119  0.00  0.00    -0.143 N 
ENDROOT
BRANCH   9  14
HETATM   14  N   UNK     0      -8.606   7.211  -2.870  0.00  0.00    -0.205 NA
HETATM   15  C   UNK     0      -8.658   7.596  -1.561  0.00  0.00     0.281 C 
HETATM   16  O   UNK     0      -9.592   8.375  -1.261  0.00  0.00    -0.268 OA
BRANCH  15  17
HETATM   17  C   UNK     0      -7.754   7.151  -0.470  0.00  0.00     0.219 C 
BRANCH  17  18
HETATM   18  N   UNK     0      -6.508   7.856  -0.507  0.00  0.00    -0.221 N 
HETATM   19  C   UNK     0      -6.268   9.107  -0.074  0.00  0.00     0.114 A 
HETATM   20  C   UNK     0      -4.915   9.337  -0.284  0.00  0.00     0.102 A 
HETATM   21  N   UNK     0      -4.432   8.221  -0.852  0.00  0.00    -0.133 NA
HETATM   22  N   UNK     0      -5.398   7.362  -0.964  0.00  0.00    -0.064 NA
BRANCH  20  23
HETATM   23  C   UNK     0      -4.124  10.545   0.046  0.00  0.00     0.062 C 
BRANCH  23  24
HETATM   24  C   UNK     0      -3.064  10.388   1.153  0.00  0.00     0.074 C 
HETATM   25 Br   UNK     0      -3.485   9.938   2.564  0.00  0.00    -0.081 Br
ENDBRANCH  23  24
ENDBRANCH  20  23
ENDBRANCH  17  18
ENDBRANCH  15  17
ENDBRANCH   9  14
TORSDOF 5
ENDMDL
MODEL 8
REMARK VINA RESULT:      -6.5     13.414     15.202
REMARK  5 active torsions:
REMARK  status: ('A' for Active; 'I' for Inactive)
REMARK    1  A    between atoms: C_9  and  N_13 
REMARK       I    between atoms: N_13  and  C_14 
REMARK    2  A    between atoms: C_14  and  C_17 
REMARK    3  A    between atoms: C_17  and  N_18 
REMARK    4  A    between atoms: C_20  and  C_23 
REMARK    5  A    between atoms: C_23  and  C_24 
ROOT
HETATM    1  C   UNK     0       8.277   2.974  -4.209  0.00  0.00     0.003 A 
HETATM    2  C   UNK     0       7.723   1.774  -3.730  0.00  0.00     0.000 A 
HETATM    3  C   UNK     0       6.574   1.237  -4.332  0.00  0.00     0.000 A 
HETATM    4  C   UNK     0       5.984   1.888  -5.428  0.00  0.00     0.003 A 
HETATM    5  C   UNK     0       6.529   3.098  -5.922  0.00  0.00     0.044 A 
HETATM    6  C   UNK     0       7.675   3.662  -5.290  0.00  0.00     0.044 A 
HETATM    7  C   UNK     0       5.951   3.789  -7.028  0.00  0.00     0.217 C 
HETATM    8  C   UNK     0       6.363   5.092  -7.330  0.00  0.00     0.162 C 
HETATM    9  C   UNK     0       7.424   5.655  -6.700  0.00  0.00     0.146 C 
HETATM   10  C   UNK     0       8.163   4.920  -5.759  0.00  0.00     0.215 C 
HETATM   11  O   UNK     0       9.244   5.384  -5.320  0.00  0.00    -0.285 OA
HETATM   12  O   UNK     0       5.065   3.234  -7.724  0.00  0.00    -0.285 OA
HETATM   13  N   UNK     0       5.663   5.772  -8.231  0.00  0.00    -0.143 N 
ENDROOT
BRANCH   9  14
HETATM   14  N   UNK     0       7.759   6.917  -6.995  0.00  0.00    -0.205 NA
HETATM   15  C   UNK     0       7.542   8.021  -6.222  0.00  0.00     0.281 C 
HETATM   16  O   UNK     0       7.910   9.111  -6.717  0.00  0.00    -0.268 OA
BRANCH  15  17
HETATM   17  C   UNK     0       6.880   8.055  -4.893  0.00  0.00     0.219 C 
BRANCH  17  18
HETATM   18  N   UNK     0       5.506   7.664  -4.986  0.00  0.00    -0.221 N 
HETATM   19  C   UNK     0       4.500   8.355  -5.551  0.00  0.00     0.114 A 
HETATM   20  C   UNK     0       3.368   7.560  -5.430  0.00  0.00     0.102 A 
HETATM   21  N   UNK     0       3.758   6.453  -4.779  0.00  0.00    -0.133 NA
HETATM   22  N   UNK     0       5.029   6.543  -4.536  0.00  0.00    -0.064 NA
BRANCH  20  23
HETATM   23  C   UNK     0       1.995   7.833  -5.916  0.00  0.00     0.062 C 
BRANCH  23  24
HETATM   24  C   UNK     0       0.941   8.161  -4.841  0.00  0.00     0.074 C 
HETATM   25 Br   UNK     0       0.440   9.606  -4.669  0.00  0.00    -0.081 Br
ENDBRANCH  23  24
ENDBRANCH  20  23
ENDBRANCH  17  18
ENDBRANCH  15  17
ENDBRANCH   9  14
TORSDOF 5
ENDMDL
MODEL 9
REMARK VINA RESULT:      -6.4     17.477     19.225
REMARK  5 active torsions:
REMARK  status: ('A' for Active; 'I' for Inactive)
REMARK    1  A    between atoms: C_9  and  N_13 
REMARK       I    between atoms: N_13  and  C_14 
REMARK    2  A    between atoms: C_14  and  C_17 
REMARK    3  A    between atoms: C_17  and  N_18 
REMARK    4  A    between atoms: C_20  and  C_23 
REMARK    5  A    between atoms: C_23  and  C_24 
ROOT
HETATM    1  C   UNK     0      -6.364   2.741  -3.937  0.00  0.00     0.003 A 
HETATM    2  C   UNK     0      -6.386   1.802  -4.983  0.00  0.00     0.000 A 
HETATM    3  C   UNK     0      -7.516   1.691  -5.809  0.00  0.00     0.000 A 
HETATM    4  C   UNK     0      -8.623   2.533  -5.604  0.00  0.00     0.003 A 
HETATM    5  C   UNK     0      -8.616   3.483  -4.555  0.00  0.00     0.044 A 
HETATM    6  C   UNK     0      -7.483   3.572  -3.694  0.00  0.00     0.044 A 
HETATM    7  C   UNK     0      -9.725   4.347  -4.313  0.00  0.00     0.217 C 
HETATM    8  C   UNK     0      -9.785   5.094  -3.132  0.00  0.00     0.162 C 
HETATM    9  C   UNK     0      -8.729   5.148  -2.283  0.00  0.00     0.146 C 
HETATM   10  C   UNK     0      -7.530   4.487  -2.598  0.00  0.00     0.215 C 
HETATM   11  O   UNK     0      -6.507   4.692  -1.899  0.00  0.00    -0.285 OA
HETATM   12  O   UNK     0     -10.654   4.429  -5.156  0.00  0.00    -0.285 OA
HETATM   13  N   UNK     0     -10.920   5.724  -2.851  0.00  0.00    -0.143 N 
ENDROOT
BRANCH   9  14
HETATM   14  N   UNK     0      -8.844   5.846  -1.147  0.00  0.00    -0.205 NA
HETATM   15  C   UNK     0      -8.540   7.164  -0.965  0.00  0.00     0.281 C 
HETATM   16  O   UNK     0      -8.694   7.602   0.199  0.00  0.00    -0.268 OA
BRANCH  15  17
HETATM   17  C   UNK     0      -8.009   8.100  -1.989  0.00  0.00     0.219 C 
BRANCH  17  18
HETATM   18  N   UNK     0      -6.578   8.078  -2.021  0.00  0.00    -0.221 N 
HETATM   19  C   UNK     0      -5.783   8.409  -3.054  0.00  0.00     0.114 A 
HETATM   20  C   UNK     0      -4.478   8.265  -2.601  0.00  0.00     0.102 A 
HETATM   21  N   UNK     0      -4.570   7.832  -1.334  0.00  0.00    -0.133 NA
HETATM   22  N   UNK     0      -5.825   7.737  -1.020  0.00  0.00    -0.064 NA
BRANCH  20  23
HETATM   23  C   UNK     0      -3.216   8.533  -3.329  0.00  0.00     0.062 C 
BRANCH  23  24
HETATM   24  C   UNK     0      -3.322   8.659  -4.860  0.00  0.00     0.074 C 
HETATM   25 Br   UNK     0      -2.623   9.821  -5.588  0.00  0.00    -0.081 Br
ENDBRANCH  23  24
ENDBRANCH  20  23
ENDBRANCH  17  18
ENDBRANCH  15  17
ENDBRANCH   9  14
TORSDOF 5
ENDMDL
