REMARK  4 active torsions:
REMARK  status: ('A' for Active; 'I' for Inactive)
REMARK    1  A    between atoms: C_9  and  N_13 
REMARK       I    between atoms: N_13  and  C_14 
REMARK    2  A    between atoms: C_14  and  C_17 
REMARK    3  A    between atoms: C_17  and  N_18 
REMARK    4  A    between atoms: C_20  and  C_23 
ROOT
HETATM    1  N   UNK     0      -3.110  -5.808  -0.333  0.00  0.00    -0.205 NA
HETATM    2  C   UNK     0      -3.646  -4.573  -0.097  0.00  0.00     0.281 C 
HETATM    3  O   UNK     0      -4.435  -4.498   0.873  0.00  0.00    -0.268 OA
ENDROOT
BRANCH   1   4
HETATM    4  C   UNK     0      -2.216  -6.124  -1.277  0.00  0.00     0.146 C 
HETATM    5  C   UNK     0      -0.978  -6.534  -0.908  0.00  0.00     0.162 C 
HETATM    6  C   UNK     0       0.011  -6.790  -1.866  0.00  0.00     0.217 C 
HETATM    7  N   UNK     0      -0.655  -6.670   0.372  0.00  0.00    -0.143 N 
HETATM    8  C   UNK     0      -0.213  -6.445  -3.233  0.00  0.00     0.044 A 
HETATM    9  O   UNK     0       1.102  -7.306  -1.520  0.00  0.00    -0.285 OA
HETATM   10  C   UNK     0       0.832  -6.430  -4.186  0.00  0.00     0.003 A 
HETATM   11  C   UNK     0      -1.528  -6.075  -3.633  0.00  0.00     0.044 A 
HETATM   12  C   UNK     0       0.578  -6.055  -5.518  0.00  0.00     0.000 A 
HETATM   13  C   UNK     0      -0.725  -5.719  -5.918  0.00  0.00     0.000 A 
HETATM   14  C   UNK     0      -1.775  -5.737  -4.985  0.00  0.00     0.003 A 
HETATM   15  C   UNK     0      -2.552  -6.025  -2.638  0.00  0.00     0.215 C 
HETATM   16  O   UNK     0      -3.753  -5.876  -2.974  0.00  0.00    -0.285 OA
ENDBRANCH   1   4
BRANCH   2  17
HETATM   17  C   UNK     0      -3.364  -3.320  -0.843  0.00  0.00     0.219 C 
BRANCH  17  18
HETATM   18  N   UNK     0      -2.629  -2.381  -0.053  0.00  0.00    -0.221 N 
HETATM   19  C   UNK     0      -1.364  -2.512   0.378  0.00  0.00     0.114 A 
HETATM   20  C   UNK     0      -1.050  -1.336   1.040  0.00  0.00     0.101 A 
HETATM   21  N   UNK     0      -2.155  -0.574   0.981  0.00  0.00    -0.133 NA
HETATM   22  N   UNK     0      -3.072  -1.223   0.332  0.00  0.00    -0.064 NA
BRANCH  20  23
HETATM   23  C   UNK     0       0.251  -0.983   1.659  0.00  0.00     0.044 C 
HETATM   24  C   UNK     0       0.136  -0.165   2.966  0.00  0.00     0.006 C 
HETATM   25  C   UNK     0       1.521   0.486   3.136  0.00  0.00     0.000 C 
HETATM   26  C   UNK     0       2.075   0.686   1.708  0.00  0.00     0.000 C 
HETATM   27  C   UNK     0       1.162  -0.119   0.754  0.00  0.00     0.006 C 
ENDBRANCH  20  23
ENDBRANCH  17  18
ENDBRANCH   2  17
TORSDOF 4
