REMARK  5 active torsions:
REMARK  status: ('A' for Active; 'I' for Inactive)
REMARK    1  A    between atoms: C_9  and  N_13 
REMARK       I    between atoms: N_13  and  C_14 
REMARK    2  A    between atoms: C_14  and  C_17 
REMARK    3  A    between atoms: C_17  and  N_18 
REMARK    4  A    between atoms: C_20  and  C_23 
REMARK    5  A    between atoms: C_23  and  C_24 
ROOT
HETATM    1  N   UNK     0       0.093  -1.790   1.674  0.00  0.00    -0.205 NA
HETATM    2  C   UNK     0      -1.217  -1.681   1.307  0.00  0.00     0.281 C 
HETATM    3  O   UNK     0      -2.026  -1.466   2.238  0.00  0.00    -0.268 OA
ENDROOT
BRANCH   2   4
HETATM    4  C   UNK     0      -1.759  -1.747  -0.075  0.00  0.00     0.219 C 
BRANCH   4   5
HETATM    5  N   UNK     0      -2.193  -0.459  -0.524  0.00  0.00    -0.221 N 
HETATM    6  C   UNK     0      -1.428   0.526  -1.029  0.00  0.00     0.114 A 
HETATM    7  C   UNK     0      -2.294   1.561  -1.355  0.00  0.00     0.101 A 
HETATM    8  N   UNK     0      -3.521   1.144  -1.005  0.00  0.00    -0.133 NA
HETATM    9  N   UNK     0      -3.427  -0.057  -0.522  0.00  0.00    -0.064 NA
BRANCH   7  10
HETATM   10  C   UNK     0      -1.975   2.868  -1.975  0.00  0.00     0.049 C 
BRANCH  10  11
HETATM   11  C   UNK     0      -1.725   2.813  -3.520  0.00  0.00     0.006 C 
HETATM   12  C   UNK     0      -1.370   4.231  -4.080  0.00  0.00     0.000 C 
HETATM   13  C   UNK     0      -1.166   4.244  -5.621  0.00  0.00     0.000 C 
HETATM   14  C   UNK     0      -2.386   3.647  -6.368  0.00  0.00     0.000 C 
HETATM   15  C   UNK     0      -2.732   2.231  -5.843  0.00  0.00     0.000 C 
HETATM   16  C   UNK     0      -2.944   2.225  -4.305  0.00  0.00     0.000 C 
ENDBRANCH  10  11
ENDBRANCH   7  10
ENDBRANCH   4   5
ENDBRANCH   2   4
BRANCH   1  17
HETATM   17  C   UNK     0       1.138  -1.985   0.860  0.00  0.00     0.146 C 
HETATM   18  C   UNK     0       2.070  -1.007   0.743  0.00  0.00     0.162 C 
HETATM   19  C   UNK     0       3.161  -1.149  -0.123  0.00  0.00     0.217 C 
HETATM   20  N   UNK     0       1.961   0.127   1.424  0.00  0.00    -0.143 N 
HETATM   21  C   UNK     0       3.210  -2.247  -1.032  0.00  0.00     0.044 A 
HETATM   22  O   UNK     0       4.089  -0.303  -0.107  0.00  0.00    -0.285 OA
HETATM   23  C   UNK     0       4.155  -2.303  -2.086  0.00  0.00     0.003 A 
HETATM   24  C   UNK     0       2.263  -3.300  -0.881  0.00  0.00     0.044 A 
HETATM   25  C   UNK     0       4.172  -3.396  -2.969  0.00  0.00     0.000 A 
HETATM   26  C   UNK     0       3.260  -4.451  -2.799  0.00  0.00     0.000 A 
HETATM   27  C   UNK     0       2.316  -4.410  -1.758  0.00  0.00     0.003 A 
HETATM   28  C   UNK     0       1.272  -3.186   0.143  0.00  0.00     0.215 C 
HETATM   29  O   UNK     0       0.507  -4.149   0.396  0.00  0.00    -0.285 OA
ENDBRANCH   1  17
TORSDOF 5
