MODEL 1
REMARK VINA RESULT:     -10.6      0.000      0.000
REMARK  Name = 91438
REMARK  5 active torsions:
REMARK  status: ('A' for Active; 'I' for Inactive)
REMARK    1  A    between atoms: C_7  and  O_22
REMARK    2  A    between atoms: C_7  and  C_25
REMARK    3  A    between atoms: C_25  and  C_26
REMARK    4  A    between atoms: C_26  and  O_27
REMARK    5  A    between atoms: O_27  and  C_29
REMARK                            x       y       z     vdW  Elec       q    Type
REMARK                         _______ _______ _______ _____ _____    ______ ____
ROOT
ATOM      1  O   UNL     1      33.799 -24.220 -11.835  0.00  0.00    -0.296 OA
ATOM      2  O   UNL     1      39.627 -25.977 -14.308  0.00  0.00    -0.287 OA
ATOM      3  C   UNL     1      31.816 -23.265 -14.523  0.00  0.00    +0.036 C 
ATOM      4  C   UNL     1      32.896 -23.144 -15.627  0.00  0.00    +0.004 C 
ATOM      5  C   UNL     1      34.289 -22.810 -15.071  0.00  0.00    +0.008 C 
ATOM      6  C   UNL     1      34.732 -23.944 -14.090  0.00  0.00    +0.065 C 
ATOM      7  C   UNL     1      30.566 -23.487 -15.409  0.00  0.00    +0.143 C 
ATOM      8  C   UNL     1      32.267 -22.185 -16.636  0.00  0.00    +0.003 C 
ATOM      9  C   UNL     1      32.214 -24.427 -13.607  0.00  0.00    +0.067 C 
ATOM     10  C   UNL     1      30.761 -22.516 -16.594  0.00  0.00    +0.034 C 
ATOM     11  C   UNL     1      36.178 -23.725 -13.520  0.00  0.00    +0.040 C 
ATOM     12  C   UNL     1      35.311 -22.634 -16.205  0.00  0.00    +0.005 C 
ATOM     13  C   UNL     1      33.610 -24.177 -13.049  0.00  0.00    +0.151 C 
ATOM     14  C   UNL     1      31.658 -21.976 -13.670  0.00  0.00    +0.003 C 
ATOM     15  C   UNL     1      36.713 -22.380 -15.664  0.00  0.00    +0.022 C 
ATOM     16  C   UNL     1      37.114 -23.478 -14.711  0.00  0.00    -0.038 C 
ATOM     17  C   UNL     1      36.265 -22.509 -12.569  0.00  0.00    +0.009 C 
ATOM     18  C   UNL     1      36.623 -24.944 -12.722  0.00  0.00    -0.019 C 
ATOM     19  C   UNL     1      38.214 -24.207 -14.960  0.00  0.00    +0.034 C 
ATOM     20  C   UNL     1      37.715 -25.675 -12.968  0.00  0.00    +0.038 C 
ATOM     21  C   UNL     1      38.604 -25.336 -14.092  0.00  0.00    +0.195 C 
ENDROOT
BRANCH   7  22
ATOM     22  O   UNL     1      30.494 -24.809 -15.935  0.00  0.00    -0.380 OA
ATOM     23  H   UNL     1      29.715 -25.260 -15.574  0.00  0.00    +0.211 HD
ENDBRANCH   7  22
BRANCH   7  25
ATOM     24  O   UNL     1      28.814 -24.088 -13.909  0.00  0.00    -0.290 OA
ATOM     25  C   UNL     1      29.245 -23.279 -14.729  0.00  0.00    +0.218 C 
BRANCH  25  26
ATOM     26  C   UNL     1      28.485 -22.027 -15.110  0.00  0.00    +0.274 C 
BRANCH  26  27
ATOM     27  O   UNL     1      27.151 -22.338 -15.452  0.00  0.00    -0.440 OA
BRANCH  27  29
ATOM     28  O   UNL     1      27.262 -23.125 -17.621  0.00  0.00    -0.250 OA
ATOM     29  C   UNL     1      26.850 -22.327 -16.790  0.00  0.00    +0.318 C 
ATOM     30  C   UNL     1      25.931 -21.187 -17.106  0.00  0.00    +0.121 C 
ENDBRANCH  27  29
ENDBRANCH  26  27
ENDBRANCH  25  26
ENDBRANCH   7  25
TORSDOF 5
ENDMDL
MODEL 2
REMARK VINA RESULT:      -8.5     15.418     18.140
REMARK  Name = 91438
REMARK  5 active torsions:
REMARK  status: ('A' for Active; 'I' for Inactive)
REMARK    1  A    between atoms: C_7  and  O_22
REMARK    2  A    between atoms: C_7  and  C_25
REMARK    3  A    between atoms: C_25  and  C_26
REMARK    4  A    between atoms: C_26  and  O_27
REMARK    5  A    between atoms: O_27  and  C_29
REMARK                            x       y       z     vdW  Elec       q    Type
REMARK                         _______ _______ _______ _____ _____    ______ ____
ROOT
ATOM      1  O   UNL     1      32.191  -7.598 -24.732  0.00  0.00    -0.296 OA
ATOM      2  O   UNL     1      29.467  -1.786 -23.327  0.00  0.00    -0.287 OA
ATOM      3  C   UNL     1      31.741  -9.617 -21.941  0.00  0.00    +0.036 C 
ATOM      4  C   UNL     1      31.320  -8.550 -20.900  0.00  0.00    +0.004 C 
ATOM      5  C   UNL     1      31.879  -7.153 -21.209  0.00  0.00    +0.008 C 
ATOM      6  C   UNL     1      31.353  -6.692 -22.608  0.00  0.00    +0.065 C 
ATOM      7  C   UNL     1      31.121 -10.876 -21.285  0.00  0.00    +0.143 C 
ATOM      8  C   UNL     1      31.678  -9.197 -19.563  0.00  0.00    +0.003 C 
ATOM      9  C   UNL     1      31.159  -9.202 -23.296  0.00  0.00    +0.067 C 
ATOM     10  C   UNL     1      31.406 -10.700 -19.778  0.00  0.00    +0.034 C 
ATOM     11  C   UNL     1      31.820  -5.241 -22.985  0.00  0.00    +0.040 C 
ATOM     12  C   UNL     1      31.492  -6.146 -20.117  0.00  0.00    +0.005 C 
ATOM     13  C   UNL     1      31.647  -7.801 -23.649  0.00  0.00    +0.151 C 
ATOM     14  C   UNL     1      33.281  -9.774 -22.075  0.00  0.00    +0.003 C 
ATOM     15  C   UNL     1      31.974  -4.739 -20.452  0.00  0.00    +0.022 C 
ATOM     16  C   UNL     1      31.467  -4.320 -21.809  0.00  0.00    -0.038 C 
ATOM     17  C   UNL     1      33.342  -5.152 -23.236  0.00  0.00    +0.009 C 
ATOM     18  C   UNL     1      31.131  -4.780 -24.263  0.00  0.00    -0.019 C 
ATOM     19  C   UNL     1      30.708  -3.218 -21.925  0.00  0.00    +0.034 C 
ATOM     20  C   UNL     1      30.373  -3.686 -24.383  0.00  0.00    +0.038 C 
ATOM     21  C   UNL     1      30.132  -2.811 -23.222  0.00  0.00    +0.195 C 
ENDROOT
BRANCH   7  22
ATOM     22  O   UNL     1      29.709 -10.944 -21.457  0.00  0.00    -0.380 OA
ATOM     23  H   UNL     1      29.492 -11.658 -22.078  0.00  0.00    +0.211 HD
ENDBRANCH   7  22
BRANCH   7  25
ATOM     24  O   UNL     1      31.550 -12.484 -22.992  0.00  0.00    -0.290 OA
ATOM     25  C   UNL     1      31.629 -12.190 -21.800  0.00  0.00    +0.218 C 
BRANCH  25  26
ATOM     26  C   UNL     1      32.236 -13.123 -20.773  0.00  0.00    +0.274 C 
BRANCH  26  27
ATOM     27  O   UNL     1      33.610 -13.318 -21.028  0.00  0.00    -0.440 OA
BRANCH  27  29
ATOM     28  O   UNL     1      34.175 -15.465 -20.390  0.00  0.00    -0.250 OA
ATOM     29  C   UNL     1      34.007 -14.612 -21.251  0.00  0.00    +0.318 C 
ATOM     30  C   UNL     1      34.209 -14.847 -22.716  0.00  0.00    +0.121 C 
ENDBRANCH  27  29
ENDBRANCH  26  27
ENDBRANCH  25  26
ENDBRANCH   7  25
TORSDOF 5
ENDMDL
MODEL 3
REMARK VINA RESULT:      -7.9      3.380      5.442
REMARK  Name = 91438
REMARK  5 active torsions:
REMARK  status: ('A' for Active; 'I' for Inactive)
REMARK    1  A    between atoms: C_7  and  O_22
REMARK    2  A    between atoms: C_7  and  C_25
REMARK    3  A    between atoms: C_25  and  C_26
REMARK    4  A    between atoms: C_26  and  O_27
REMARK    5  A    between atoms: O_27  and  C_29
REMARK                            x       y       z     vdW  Elec       q    Type
REMARK                         _______ _______ _______ _____ _____    ______ ____
ROOT
ATOM      1  O   UNL     1      31.760 -22.279 -19.195  0.00  0.00    -0.296 OA
ATOM      2  O   UNL     1      35.970 -17.586 -21.047  0.00  0.00    -0.287 OA
ATOM      3  C   UNL     1      32.476 -23.015 -15.876  0.00  0.00    +0.036 C 
ATOM      4  C   UNL     1      33.849 -22.313 -15.733  0.00  0.00    +0.004 C 
ATOM      5  C   UNL     1      34.614 -22.211 -17.061  0.00  0.00    +0.008 C 
ATOM      6  C   UNL     1      33.759 -21.388 -18.080  0.00  0.00    +0.065 C 
ATOM      7  C   UNL     1      32.045 -23.044 -14.389  0.00  0.00    +0.143 C 
ATOM      8  C   UNL     1      34.507 -23.053 -14.570  0.00  0.00    +0.003 C 
ATOM      9  C   UNL     1      31.613 -22.165 -16.815  0.00  0.00    +0.067 C 
ATOM     10  C   UNL     1      33.338 -23.400 -13.624  0.00  0.00    +0.034 C 
ATOM     11  C   UNL     1      34.490 -21.172 -19.452  0.00  0.00    +0.040 C 
ATOM     12  C   UNL     1      35.995 -21.569 -16.858  0.00  0.00    +0.005 C 
ATOM     13  C   UNL     1      32.334 -21.992 -18.147  0.00  0.00    +0.151 C 
ATOM     14  C   UNL     1      32.576 -24.457 -16.443  0.00  0.00    +0.003 C 
ATOM     15  C   UNL     1      36.732 -21.391 -18.180  0.00  0.00    +0.022 C 
ATOM     16  C   UNL     1      35.885 -20.607 -19.152  0.00  0.00    -0.038 C 
ATOM     17  C   UNL     1      34.656 -22.485 -20.252  0.00  0.00    +0.009 C 
ATOM     18  C   UNL     1      33.694 -20.216 -20.331  0.00  0.00    -0.019 C 
ATOM     19  C   UNL     1      36.350 -19.454 -19.661  0.00  0.00    +0.034 C 
ATOM     20  C   UNL     1      34.152 -19.067 -20.838  0.00  0.00    +0.038 C 
ATOM     21  C   UNL     1      35.527 -18.621 -20.559  0.00  0.00    +0.195 C 
ENDROOT
BRANCH   7  22
ATOM     22  O   UNL     1      31.597 -21.775 -13.922  0.00  0.00    -0.380 OA
ATOM     23  H   UNL     1      30.835 -21.487 -14.448  0.00  0.00    +0.211 HD
ENDBRANCH   7  22
BRANCH   7  25
ATOM     24  O   UNL     1      31.142 -25.089 -13.561  0.00  0.00    -0.290 OA
ATOM     25  C   UNL     1      30.924 -23.985 -14.058  0.00  0.00    +0.218 C 
BRANCH  25  26
ATOM     26  C   UNL     1      29.526 -23.499 -14.373  0.00  0.00    +0.274 C 
BRANCH  26  27
ATOM     27  O   UNL     1      28.982 -24.216 -15.460  0.00  0.00    -0.440 OA
BRANCH  27  29
ATOM     28  O   UNL     1      27.352 -24.064 -17.091  0.00  0.00    -0.250 OA
ATOM     29  C   UNL     1      28.014 -23.570 -16.188  0.00  0.00    +0.318 C 
ATOM     30  C   UNL     1      27.873 -22.154 -15.721  0.00  0.00    +0.121 C 
ENDBRANCH  27  29
ENDBRANCH  26  27
ENDBRANCH  25  26
ENDBRANCH   7  25
TORSDOF 5
ENDMDL
MODEL 4
REMARK VINA RESULT:      -7.7     18.172     20.392
REMARK  Name = 91438
REMARK  5 active torsions:
REMARK  status: ('A' for Active; 'I' for Inactive)
REMARK    1  A    between atoms: C_7  and  O_22
REMARK    2  A    between atoms: C_7  and  C_25
REMARK    3  A    between atoms: C_25  and  C_26
REMARK    4  A    between atoms: C_26  and  O_27
REMARK    5  A    between atoms: O_27  and  C_29
REMARK                            x       y       z     vdW  Elec       q    Type
REMARK                         _______ _______ _______ _____ _____    ______ ____
ROOT
ATOM      1  O   UNL     1      34.553  -7.145 -25.012  0.00  0.00    -0.296 OA
ATOM      2  O   UNL     1      32.794  -3.247 -30.001  0.00  0.00    -0.287 OA
ATOM      3  C   UNL     1      32.337  -6.511 -22.414  0.00  0.00    +0.036 C 
ATOM      4  C   UNL     1      31.683  -5.204 -22.929  0.00  0.00    +0.004 C 
ATOM      5  C   UNL     1      32.603  -4.395 -23.856  0.00  0.00    +0.008 C 
ATOM      6  C   UNL     1      32.969  -5.270 -25.100  0.00  0.00    +0.065 C 
ATOM      7  C   UNL     1      31.220  -6.999 -21.458  0.00  0.00    +0.143 C 
ATOM      8  C   UNL     1      31.169  -4.538 -21.654  0.00  0.00    +0.003 C 
ATOM      9  C   UNL     1      32.625  -7.399 -23.629  0.00  0.00    +0.067 C 
ATOM     10  C   UNL     1      30.733  -5.713 -20.755  0.00  0.00    +0.034 C 
ATOM     11  C   UNL     1      33.857  -4.503 -26.142  0.00  0.00    +0.040 C 
ATOM     12  C   UNL     1      31.939  -3.079 -24.286  0.00  0.00    +0.005 C 
ATOM     13  C   UNL     1      33.507  -6.639 -24.613  0.00  0.00    +0.151 C 
ATOM     14  C   UNL     1      33.659  -6.273 -21.633  0.00  0.00    +0.003 C 
ATOM     15  C   UNL     1      32.810  -2.305 -25.269  0.00  0.00    +0.022 C 
ATOM     16  C   UNL     1      33.161  -3.171 -26.453  0.00  0.00    -0.038 C 
ATOM     17  C   UNL     1      35.276  -4.201 -25.609  0.00  0.00    +0.009 C 
ATOM     18  C   UNL     1      34.027  -5.336 -27.407  0.00  0.00    -0.019 C 
ATOM     19  C   UNL     1      32.818  -2.777 -27.691  0.00  0.00    +0.034 C 
ATOM     20  C   UNL     1      33.684  -4.950 -28.640  0.00  0.00    +0.038 C 
ATOM     21  C   UNL     1      33.081  -3.626 -28.870  0.00  0.00    +0.195 C 
ENDROOT
BRANCH   7  22
ATOM     22  O   UNL     1      30.112  -7.564 -22.152  0.00  0.00    -0.380 OA
ATOM     23  H   UNL     1      30.387  -7.819 -23.047  0.00  0.00    +0.211 HD
ENDBRANCH   7  22
BRANCH   7  25
ATOM     24  O   UNL     1      32.324  -7.782 -19.496  0.00  0.00    -0.290 OA
ATOM     25  C   UNL     1      31.628  -8.054 -20.473  0.00  0.00    +0.218 C 
BRANCH  25  26
ATOM     26  C   UNL     1      31.136  -9.458 -20.753  0.00  0.00    +0.274 C 
BRANCH  26  27
ATOM     27  O   UNL     1      31.521  -9.873 -22.046  0.00  0.00    -0.440 OA
BRANCH  27  29
ATOM     28  O   UNL     1      32.693 -11.583 -23.064  0.00  0.00    -0.250 OA
ATOM     29  C   UNL     1      31.998 -11.155 -22.153  0.00  0.00    +0.318 C 
ATOM     30  C   UNL     1      31.547 -11.975 -20.984  0.00  0.00    +0.121 C 
ENDBRANCH  27  29
ENDBRANCH  26  27
ENDBRANCH  25  26
ENDBRANCH   7  25
TORSDOF 5
ENDMDL
MODEL 5
REMARK VINA RESULT:      -7.6      2.992      7.504
REMARK  Name = 91438
REMARK  5 active torsions:
REMARK  status: ('A' for Active; 'I' for Inactive)
REMARK    1  A    between atoms: C_7  and  O_22
REMARK    2  A    between atoms: C_7  and  C_25
REMARK    3  A    between atoms: C_25  and  C_26
REMARK    4  A    between atoms: C_26  and  O_27
REMARK    5  A    between atoms: O_27  and  C_29
REMARK                            x       y       z     vdW  Elec       q    Type
REMARK                         _______ _______ _______ _____ _____    ______ ____
ROOT
ATOM      1  O   UNL     1      32.222 -23.489 -16.932  0.00  0.00    -0.296 OA
ATOM      2  O   UNL     1      32.820 -18.577 -21.255  0.00  0.00    -0.287 OA
ATOM      3  C   UNL     1      34.945 -23.273 -14.786  0.00  0.00    +0.036 C 
ATOM      4  C   UNL     1      35.837 -22.285 -15.579  0.00  0.00    +0.004 C 
ATOM      5  C   UNL     1      35.590 -22.335 -17.094  0.00  0.00    +0.008 C 
ATOM      6  C   UNL     1      34.097 -21.967 -17.380  0.00  0.00    +0.065 C 
ATOM      7  C   UNL     1      35.513 -23.047 -13.363  0.00  0.00    +0.143 C 
ATOM      8  C   UNL     1      37.243 -22.583 -15.061  0.00  0.00    +0.003 C 
ATOM      9  C   UNL     1      33.485 -22.862 -15.006  0.00  0.00    +0.067 C 
ATOM     10  C   UNL     1      37.039 -22.938 -13.574  0.00  0.00    +0.034 C 
ATOM     11  C   UNL     1      33.764 -21.926 -18.913  0.00  0.00    +0.040 C 
ATOM     12  C   UNL     1      36.542 -21.391 -17.843  0.00  0.00    +0.005 C 
ATOM     13  C   UNL     1      33.182 -22.854 -16.500  0.00  0.00    +0.151 C 
ATOM     14  C   UNL     1      35.128 -24.754 -15.218  0.00  0.00    +0.003 C 
ATOM     15  C   UNL     1      36.254 -21.372 -19.340  0.00  0.00    +0.022 C 
ATOM     16  C   UNL     1      34.807 -21.028 -19.592  0.00  0.00    -0.038 C 
ATOM     17  C   UNL     1      33.818 -23.323 -19.572  0.00  0.00    +0.009 C 
ATOM     18  C   UNL     1      32.356 -21.387 -19.134  0.00  0.00    -0.019 C 
ATOM     19  C   UNL     1      34.498 -19.954 -20.336  0.00  0.00    +0.034 C 
ATOM     20  C   UNL     1      32.044 -20.316 -19.871  0.00  0.00    +0.038 C 
ATOM     21  C   UNL     1      33.097 -19.541 -20.549  0.00  0.00    +0.195 C 
ENDROOT
BRANCH   7  22
ATOM     22  O   UNL     1      35.065 -21.827 -12.780  0.00  0.00    -0.380 OA
ATOM     23  H   UNL     1      34.188 -21.958 -12.388  0.00  0.00    +0.211 HD
ENDBRANCH   7  22
BRANCH   7  25
ATOM     24  O   UNL     1      33.998 -24.294 -12.010  0.00  0.00    -0.290 OA
ATOM     25  C   UNL     1      35.163 -24.099 -12.352  0.00  0.00    +0.218 C 
BRANCH  25  26
ATOM     26  C   UNL     1      36.319 -24.895 -11.786  0.00  0.00    +0.274 C 
BRANCH  26  27
ATOM     27  O   UNL     1      36.431 -26.144 -12.435  0.00  0.00    -0.440 OA
BRANCH  27  29
ATOM     28  O   UNL     1      37.498 -26.996 -14.298  0.00  0.00    -0.250 OA
ATOM     29  C   UNL     1      37.483 -26.283 -13.304  0.00  0.00    +0.318 C 
ATOM     30  C   UNL     1      38.633 -25.429 -12.866  0.00  0.00    +0.121 C 
ENDBRANCH  27  29
ENDBRANCH  26  27
ENDBRANCH  25  26
ENDBRANCH   7  25
TORSDOF 5
ENDMDL
