MODEL 1
REMARK VINA RESULT:     -12.0      0.000      0.000
REMARK  Name = 10267580
REMARK  2 active torsions:
REMARK  status: ('A' for Active; 'I' for Inactive)
REMARK    1  A    between atoms: N_1  and  C_21
REMARK    2  A    between atoms: C_7  and  C_14
REMARK                            x       y       z     vdW  Elec       q    Type
REMARK                         _______ _______ _______ _____ _____    ______ ____
ROOT
ATOM      1  N   UNL     1      35.296 -22.899 -16.446  0.00  0.00    -0.290 N 
ATOM      2  N   UNL     1      32.945 -22.860 -16.362  0.00  0.00    -0.327 NA
ATOM      3  N   UNL     1      31.676 -21.665 -18.025  0.00  0.00    -0.342 NA
ATOM      4  C   UNL     1      34.071 -21.680 -18.146  0.00  0.00    +0.143 C 
ATOM      5  C   UNL     1      34.065 -22.468 -16.999  0.00  0.00    +0.184 C 
ATOM      6  C   UNL     1      32.813 -21.291 -18.637  0.00  0.00    +0.133 C 
ATOM      7  C   UNL     1      31.803 -22.428 -16.922  0.00  0.00    +0.165 C 
ATOM      8  C   UNL     1      35.254 -21.283 -18.793  0.00  0.00    -0.011 C 
ATOM      9  C   UNL     1      32.779 -20.501 -19.783  0.00  0.00    +0.029 C 
ATOM     10  C   UNL     1      35.190 -20.493 -19.938  0.00  0.00    -0.004 C 
ATOM     11  C   UNL     1      33.951 -20.102 -20.432  0.00  0.00    +0.002 C 
ATOM     12  H   UNL     1      36.062 -22.924 -17.066  0.00  0.00    +0.154 HD
ENDROOT
BRANCH   7  14
ATOM     13  N   UNL     1      29.455 -22.268 -16.779  0.00  0.00    -0.398 NA
ATOM     14  C   UNL     1      30.581 -22.825 -16.272  0.00  0.00    +0.197 C 
ATOM     15  C   UNL     1      30.590 -23.715 -15.207  0.00  0.00    +0.098 C 
ATOM     16  C   UNL     1      28.290 -22.620 -16.189  0.00  0.00    +0.110 C 
ATOM     17  C   UNL     1      29.372 -24.052 -14.627  0.00  0.00    -0.016 C 
ATOM     18  C   UNL     1      28.196 -23.499 -15.122  0.00  0.00    +0.023 C 
ATOM     19  C   UNL     1      27.049 -22.008 -16.745  0.00  0.00    +0.066 C 
ENDBRANCH   7  14
BRANCH   1  21
ATOM     20  N   UNL     1      36.097 -24.080 -12.491  0.00  0.00    -0.242 NA
ATOM     21  C   UNL     1      35.560 -23.287 -15.145  0.00  0.00    +0.053 C 
ATOM     22  C   UNL     1      35.680 -24.644 -14.804  0.00  0.00    +0.035 C 
ATOM     23  C   UNL     1      35.716 -22.338 -14.123  0.00  0.00    +0.035 C 
ATOM     24  C   UNL     1      35.944 -24.981 -13.487  0.00  0.00    +0.100 C 
ATOM     25  C   UNL     1      35.978 -22.778 -12.835  0.00  0.00    +0.100 C 
ENDBRANCH   1  21
TORSDOF 2
ENDMDL
MODEL 2
REMARK VINA RESULT:     -12.0      1.513      6.805
REMARK  Name = 10267580
REMARK  2 active torsions:
REMARK  status: ('A' for Active; 'I' for Inactive)
REMARK    1  A    between atoms: N_1  and  C_21
REMARK    2  A    between atoms: C_7  and  C_14
REMARK                            x       y       z     vdW  Elec       q    Type
REMARK                         _______ _______ _______ _____ _____    ______ ____
ROOT
ATOM      1  N   UNL     1      32.237 -22.014 -18.218  0.00  0.00    -0.290 N 
ATOM      2  N   UNL     1      33.795 -22.790 -16.634  0.00  0.00    -0.327 NA
ATOM      3  N   UNL     1      33.064 -23.603 -14.488  0.00  0.00    -0.342 NA
ATOM      4  C   UNL     1      31.444 -22.821 -16.074  0.00  0.00    +0.143 C 
ATOM      5  C   UNL     1      32.504 -22.558 -16.937  0.00  0.00    +0.184 C 
ATOM      6  C   UNL     1      31.784 -23.360 -14.822  0.00  0.00    +0.133 C 
ATOM      7  C   UNL     1      33.999 -23.306 -15.411  0.00  0.00    +0.165 C 
ATOM      8  C   UNL     1      30.103 -22.569 -16.412  0.00  0.00    -0.011 C 
ATOM      9  C   UNL     1      30.751 -23.636 -13.931  0.00  0.00    +0.029 C 
ATOM     10  C   UNL     1      29.090 -22.854 -15.501  0.00  0.00    -0.004 C 
ATOM     11  C   UNL     1      29.415 -23.388 -14.260  0.00  0.00    +0.002 C 
ATOM     12  H   UNL     1      31.331 -22.168 -18.572  0.00  0.00    +0.154 HD
ENDROOT
BRANCH   7  14
ATOM     13  N   UNL     1      35.548 -24.633 -14.228  0.00  0.00    -0.398 NA
ATOM     14  C   UNL     1      35.367 -23.570 -15.046  0.00  0.00    +0.197 C 
ATOM     15  C   UNL     1      36.401 -22.773 -15.516  0.00  0.00    +0.098 C 
ATOM     16  C   UNL     1      36.822 -24.906 -13.866  0.00  0.00    +0.110 C 
ATOM     17  C   UNL     1      37.698 -23.085 -15.122  0.00  0.00    -0.016 C 
ATOM     18  C   UNL     1      37.920 -24.171 -14.282  0.00  0.00    +0.023 C 
ATOM     19  C   UNL     1      37.023 -26.078 -12.965  0.00  0.00    +0.066 C 
ENDBRANCH   7  14
BRANCH   1  21
ATOM     20  N   UNL     1      34.825 -19.817 -20.699  0.00  0.00    -0.242 NA
ATOM     21  C   UNL     1      33.089 -21.292 -19.034  0.00  0.00    +0.053 C 
ATOM     22  C   UNL     1      32.592 -20.329 -19.927  0.00  0.00    +0.035 C 
ATOM     23  C   UNL     1      34.477 -21.497 -18.996  0.00  0.00    +0.035 C 
ATOM     24  C   UNL     1      33.486 -19.632 -20.724  0.00  0.00    +0.100 C 
ATOM     25  C   UNL     1      35.287 -20.747 -19.835  0.00  0.00    +0.100 C 
ENDBRANCH   1  21
TORSDOF 2
ENDMDL
MODEL 3
REMARK VINA RESULT:     -11.5      1.527      5.241
REMARK  Name = 10267580
REMARK  2 active torsions:
REMARK  status: ('A' for Active; 'I' for Inactive)
REMARK    1  A    between atoms: N_1  and  C_21
REMARK    2  A    between atoms: C_7  and  C_14
REMARK                            x       y       z     vdW  Elec       q    Type
REMARK                         _______ _______ _______ _____ _____    ______ ____
ROOT
ATOM      1  N   UNL     1      34.367 -24.283 -13.613  0.00  0.00    -0.290 N 
ATOM      2  N   UNL     1      34.107 -23.103 -15.632  0.00  0.00    -0.327 NA
ATOM      3  N   UNL     1      31.915 -22.693 -16.543  0.00  0.00    -0.342 NA
ATOM      4  C   UNL     1      32.136 -23.899 -14.482  0.00  0.00    +0.143 C 
ATOM      5  C   UNL     1      33.513 -23.745 -14.607  0.00  0.00    +0.184 C 
ATOM      6  C   UNL     1      31.354 -23.339 -15.506  0.00  0.00    +0.133 C 
ATOM      7  C   UNL     1      33.260 -22.610 -16.549  0.00  0.00    +0.165 C 
ATOM      8  C   UNL     1      31.539 -24.575 -13.403  0.00  0.00    -0.011 C 
ATOM      9  C   UNL     1      29.971 -23.475 -15.415  0.00  0.00    +0.029 C 
ATOM     10  C   UNL     1      30.154 -24.695 -13.338  0.00  0.00    -0.004 C 
ATOM     11  C   UNL     1      29.370 -24.144 -14.345  0.00  0.00    +0.002 C 
ATOM     12  H   UNL     1      33.959 -24.428 -12.728  0.00  0.00    +0.154 HD
ENDROOT
BRANCH   7  14
ATOM     13  N   UNL     1      32.973 -21.379 -18.540  0.00  0.00    -0.398 NA
ATOM     14  C   UNL     1      33.853 -21.915 -17.663  0.00  0.00    +0.197 C 
ATOM     15  C   UNL     1      35.232 -21.821 -17.798  0.00  0.00    +0.098 C 
ATOM     16  C   UNL     1      33.500 -20.722 -19.598  0.00  0.00    +0.110 C 
ATOM     17  C   UNL     1      35.735 -21.137 -18.899  0.00  0.00    -0.016 C 
ATOM     18  C   UNL     1      34.860 -20.574 -19.820  0.00  0.00    +0.023 C 
ATOM     19  C   UNL     1      32.531 -20.130 -20.566  0.00  0.00    +0.066 C 
ENDBRANCH   7  14
BRANCH   1  21
ATOM     20  N   UNL     1      38.420 -25.344 -13.961  0.00  0.00    -0.242 NA
ATOM     21  C   UNL     1      35.699 -24.633 -13.727  0.00  0.00    +0.053 C 
ATOM     22  C   UNL     1      36.698 -23.908 -13.057  0.00  0.00    +0.035 C 
ATOM     23  C   UNL     1      36.099 -25.722 -14.518  0.00  0.00    +0.035 C 
ATOM     24  C   UNL     1      38.020 -24.297 -13.204  0.00  0.00    +0.100 C 
ATOM     25  C   UNL     1      37.447 -26.030 -14.600  0.00  0.00    +0.100 C 
ENDBRANCH   1  21
TORSDOF 2
ENDMDL
MODEL 4
REMARK VINA RESULT:     -11.0      1.726      6.469
REMARK  Name = 10267580
REMARK  2 active torsions:
REMARK  status: ('A' for Active; 'I' for Inactive)
REMARK    1  A    between atoms: N_1  and  C_21
REMARK    2  A    between atoms: C_7  and  C_14
REMARK                            x       y       z     vdW  Elec       q    Type
REMARK                         _______ _______ _______ _____ _____    ______ ____
ROOT
ATOM      1  N   UNL     1      32.451 -24.204 -13.510  0.00  0.00    -0.290 N 
ATOM      2  N   UNL     1      33.704 -23.111 -15.174  0.00  0.00    -0.327 NA
ATOM      3  N   UNL     1      36.010 -22.526 -14.791  0.00  0.00    -0.342 NA
ATOM      4  C   UNL     1      34.767 -23.640 -13.069  0.00  0.00    +0.143 C 
ATOM      5  C   UNL     1      33.676 -23.633 -13.933  0.00  0.00    +0.184 C 
ATOM      6  C   UNL     1      35.948 -23.057 -13.557  0.00  0.00    +0.133 C 
ATOM      7  C   UNL     1      34.886 -22.582 -15.532  0.00  0.00    +0.165 C 
ATOM      8  C   UNL     1      34.713 -24.191 -11.776  0.00  0.00    -0.011 C 
ATOM      9  C   UNL     1      37.061 -23.044 -12.720  0.00  0.00    +0.029 C 
ATOM     10  C   UNL     1      35.841 -24.164 -10.961  0.00  0.00    -0.004 C 
ATOM     11  C   UNL     1      37.015 -23.591 -11.434  0.00  0.00    +0.002 C 
ATOM     12  H   UNL     1      32.513 -24.873 -12.790  0.00  0.00    +0.154 HD
ENDROOT
BRANCH   7  14
ATOM     13  N   UNL     1      33.787 -21.973 -17.528  0.00  0.00    -0.398 NA
ATOM     14  C   UNL     1      34.960 -22.011 -16.852  0.00  0.00    +0.197 C 
ATOM     15  C   UNL     1      36.162 -21.544 -17.366  0.00  0.00    +0.098 C 
ATOM     16  C   UNL     1      33.824 -21.444 -18.772  0.00  0.00    +0.110 C 
ATOM     17  C   UNL     1      36.159 -21.006 -18.648  0.00  0.00    -0.016 C 
ATOM     18  C   UNL     1      34.973 -20.952 -19.371  0.00  0.00    +0.023 C 
ATOM     19  C   UNL     1      32.533 -21.401 -19.518  0.00  0.00    +0.066 C 
ENDBRANCH   7  14
BRANCH   1  21
ATOM     20  N   UNL     1      28.578 -23.401 -14.937  0.00  0.00    -0.242 NA
ATOM     21  C   UNL     1      31.178 -23.939 -13.979  0.00  0.00    +0.053 C 
ATOM     22  C   UNL     1      30.264 -24.979 -14.222  0.00  0.00    +0.035 C 
ATOM     23  C   UNL     1      30.755 -22.624 -14.229  0.00  0.00    +0.035 C 
ATOM     24  C   UNL     1      29.000 -24.662 -14.692  0.00  0.00    +0.100 C 
ATOM     25  C   UNL     1      29.469 -22.412 -14.699  0.00  0.00    +0.100 C 
ENDBRANCH   1  21
TORSDOF 2
ENDMDL
MODEL 5
REMARK VINA RESULT:     -10.9      1.639      6.216
REMARK  Name = 10267580
REMARK  2 active torsions:
REMARK  status: ('A' for Active; 'I' for Inactive)
REMARK    1  A    between atoms: N_1  and  C_21
REMARK    2  A    between atoms: C_7  and  C_14
REMARK                            x       y       z     vdW  Elec       q    Type
REMARK                         _______ _______ _______ _____ _____    ______ ____
ROOT
ATOM      1  N   UNL     1      32.429 -23.938 -14.858  0.00  0.00    -0.290 N 
ATOM      2  N   UNL     1      33.229 -22.630 -16.643  0.00  0.00    -0.327 NA
ATOM      3  N   UNL     1      35.572 -22.102 -16.827  0.00  0.00    -0.342 NA
ATOM      4  C   UNL     1      34.798 -23.438 -14.992  0.00  0.00    +0.143 C 
ATOM      5  C   UNL     1      33.516 -23.315 -15.520  0.00  0.00    +0.184 C 
ATOM      6  C   UNL     1      35.826 -22.795 -15.702  0.00  0.00    +0.133 C 
ATOM      7  C   UNL     1      34.289 -22.058 -17.236  0.00  0.00    +0.165 C 
ATOM      8  C   UNL     1      35.073 -24.159 -13.816  0.00  0.00    -0.011 C 
ATOM      9  C   UNL     1      37.121 -22.895 -15.203  0.00  0.00    +0.029 C 
ATOM     10  C   UNL     1      36.379 -24.242 -13.341  0.00  0.00    -0.004 C 
ATOM     11  C   UNL     1      37.403 -23.609 -14.036  0.00  0.00    +0.002 C 
ATOM     12  H   UNL     1      32.658 -24.698 -14.275  0.00  0.00    +0.154 HD
ENDROOT
BRANCH   7  14
ATOM     13  N   UNL     1      35.114 -20.743 -19.012  0.00  0.00    -0.398 NA
ATOM     14  C   UNL     1      34.027 -21.315 -18.441  0.00  0.00    +0.197 C 
ATOM     15  C   UNL     1      32.741 -21.211 -18.955  0.00  0.00    +0.098 C 
ATOM     16  C   UNL     1      34.899 -20.037 -20.145  0.00  0.00    +0.110 C 
ATOM     17  C   UNL     1      32.561 -20.476 -20.122  0.00  0.00    -0.016 C 
ATOM     18  C   UNL     1      33.656 -19.876 -20.734  0.00  0.00    +0.023 C 
ATOM     19  C   UNL     1      36.096 -19.407 -20.775  0.00  0.00    +0.066 C 
ENDBRANCH   7  14
BRANCH   1  21
ATOM     20  N   UNL     1      28.349 -22.946 -15.064  0.00  0.00    -0.242 NA
ATOM     21  C   UNL     1      31.088 -23.612 -14.926  0.00  0.00    +0.053 C 
ATOM     22  C   UNL     1      30.630 -22.341 -14.541  0.00  0.00    +0.035 C 
ATOM     23  C   UNL     1      30.138 -24.540 -15.381  0.00  0.00    +0.035 C 
ATOM     24  C   UNL     1      29.276 -22.064 -14.627  0.00  0.00    +0.100 C 
ATOM     25  C   UNL     1      28.805 -24.164 -15.430  0.00  0.00    +0.100 C 
ENDBRANCH   1  21
TORSDOF 2
ENDMDL
MODEL 6
REMARK VINA RESULT:     -10.9      1.449      5.806
REMARK  Name = 10267580
REMARK  2 active torsions:
REMARK  status: ('A' for Active; 'I' for Inactive)
REMARK    1  A    between atoms: N_1  and  C_21
REMARK    2  A    between atoms: C_7  and  C_14
REMARK                            x       y       z     vdW  Elec       q    Type
REMARK                         _______ _______ _______ _____ _____    ______ ____
ROOT
ATOM      1  N   UNL     1      31.178 -22.413 -16.469  0.00  0.00    -0.290 N 
ATOM      2  N   UNL     1      33.263 -22.982 -15.539  0.00  0.00    -0.327 NA
ATOM      3  N   UNL     1      35.310 -22.461 -16.698  0.00  0.00    -0.342 NA
ATOM      4  C   UNL     1      33.205 -21.865 -17.681  0.00  0.00    +0.143 C 
ATOM      5  C   UNL     1      32.592 -22.422 -16.563  0.00  0.00    +0.184 C 
ATOM      6  C   UNL     1      34.609 -21.909 -17.705  0.00  0.00    +0.133 C 
ATOM      7  C   UNL     1      34.600 -22.967 -15.671  0.00  0.00    +0.165 C 
ATOM      8  C   UNL     1      32.482 -21.286 -18.739  0.00  0.00    -0.011 C 
ATOM      9  C   UNL     1      35.258 -21.362 -18.808  0.00  0.00    +0.029 C 
ATOM     10  C   UNL     1      33.157 -20.747 -19.830  0.00  0.00    -0.004 C 
ATOM     11  C   UNL     1      34.546 -20.785 -19.864  0.00  0.00    +0.002 C 
ATOM     12  H   UNL     1      30.715 -21.727 -17.002  0.00  0.00    +0.154 HD
ENDROOT
BRANCH   7  14
ATOM     13  N   UNL     1      36.649 -23.836 -14.892  0.00  0.00    -0.398 NA
ATOM     14  C   UNL     1      35.357 -23.556 -14.597  0.00  0.00    +0.197 C 
ATOM     15  C   UNL     1      34.776 -23.806 -13.362  0.00  0.00    +0.098 C 
ATOM     16  C   UNL     1      37.386 -24.391 -13.904  0.00  0.00    +0.110 C 
ATOM     17  C   UNL     1      35.567 -24.378 -12.371  0.00  0.00    -0.016 C 
ATOM     18  C   UNL     1      36.898 -24.679 -12.639  0.00  0.00    +0.023 C 
ATOM     19  C   UNL     1      38.810 -24.700 -14.227  0.00  0.00    +0.066 C 
ENDBRANCH   7  14
BRANCH   1  21
ATOM     20  N   UNL     1      28.710 -24.954 -14.203  0.00  0.00    -0.242 NA
ATOM     21  C   UNL     1      30.366 -23.249 -15.724  0.00  0.00    +0.053 C 
ATOM     22  C   UNL     1      30.877 -23.970 -14.632  0.00  0.00    +0.035 C 
ATOM     23  C   UNL     1      29.006 -23.404 -16.034  0.00  0.00    +0.035 C 
ATOM     24  C   UNL     1      30.022 -24.794 -13.918  0.00  0.00    +0.100 C 
ATOM     25  C   UNL     1      28.235 -24.253 -15.257  0.00  0.00    +0.100 C 
ENDBRANCH   1  21
TORSDOF 2
ENDMDL
