MODEL 1
REMARK VINA RESULT:     -11.7      0.000      0.000
REMARK  Name = 46843057
REMARK  7 active torsions:
REMARK  status: ('A' for Active; 'I' for Inactive)
REMARK    1  A    between atoms: N_2  and  C_18
REMARK    2  A    between atoms: C_3  and  C_7
REMARK    3  A    between atoms: C_8  and  C_14
REMARK    4  A    between atoms: C_18  and  C_19
REMARK    5  A    between atoms: C_18  and  C_27
REMARK    6  A    between atoms: C_19  and  C_21
REMARK    7  A    between atoms: C_27  and  N_28
REMARK                            x       y       z     vdW  Elec       q    Type
REMARK                         _______ _______ _______ _____ _____    ______ ____
ROOT
ATOM      1  O   UNL     1      34.325 -15.465 -20.380  0.00  0.00    -0.270 OA
ATOM      2  N   UNL     1      34.455 -16.728 -22.320  0.00  0.00    -0.304 N 
ATOM      3  C   UNL     1      34.202 -15.575 -21.597  0.00  0.00    +0.252 C 
ATOM      4  H   UNL     1      34.326 -16.715 -23.296  0.00  0.00    +0.150 HD
ENDROOT
BRANCH   3   7
ATOM      5 CL   UNL     1      32.482 -12.380 -25.766  0.00  0.00    -0.075 Cl
ATOM      6  S   UNL     1      33.431 -14.603 -24.061  0.00  0.00    -0.071 S 
ATOM      7  C   UNL     1      33.725 -14.410 -22.386  0.00  0.00    +0.084 C 
ATOM      8  C   UNL     1      33.024 -12.288 -23.024  0.00  0.00    +0.033 C 
ATOM      9  C   UNL     1      33.468 -13.125 -21.960  0.00  0.00    +0.014 C 
ATOM     10  C   UNL     1      32.958 -12.965 -24.221  0.00  0.00    +0.088 C 
BRANCH   8  14
ATOM     11 CL   UNL     1      34.752  -9.708 -24.307  0.00  0.00    -0.079 Cl
ATOM     12  N   UNL     1      31.604 -10.360 -22.189  0.00  0.00    -0.209 N 
ATOM     13  N   UNL     1      31.526  -9.018 -22.212  0.00  0.00    -0.175 NA
ATOM     14  C   UNL     1      32.674 -10.861 -22.869  0.00  0.00    +0.082 C 
ATOM     15  C   UNL     1      33.343  -9.772 -23.372  0.00  0.00    +0.093 C 
ATOM     16  C   UNL     1      30.595 -11.112 -21.478  0.00  0.00    +0.140 C 
ATOM     17  C   UNL     1      32.591  -8.665 -22.936  0.00  0.00    +0.130 C 
ENDBRANCH   8  14
ENDBRANCH   3   7
BRANCH   2  18
ATOM     18  C   UNL     1      34.901 -17.954 -21.690  0.00  0.00    +0.055 C 
BRANCH  18  19
ATOM     19  C   UNL     1      33.773 -19.002 -21.676  0.00  0.00    +0.044 C 
BRANCH  19  21
ATOM     20  F   UNL     1      36.410 -21.512 -18.418  0.00  0.00    -0.204 F 
ATOM     21  C   UNL     1      33.870 -19.958 -20.509  0.00  0.00    -0.018 C 
ATOM     22  C   UNL     1      35.119 -20.300 -19.991  0.00  0.00    +0.025 C 
ATOM     23  C   UNL     1      32.711 -20.498 -19.951  0.00  0.00    -0.004 C 
ATOM     24  C   UNL     1      35.210 -21.183 -18.915  0.00  0.00    +0.140 C 
ATOM     25  C   UNL     1      32.803 -21.381 -18.874  0.00  0.00    +0.002 C 
ATOM     26  C   UNL     1      34.052 -21.723 -18.356  0.00  0.00    +0.030 C 
ENDBRANCH  19  21
ENDBRANCH  18  19
BRANCH  18  27
ATOM     27  C   UNL     1      36.154 -18.456 -22.423  0.00  0.00    -0.066 C 
BRANCH  27  28
ATOM     28  N   UNL     1      37.383 -18.004 -21.780  0.00  0.00    +0.382 N 
ATOM     29  H   UNL     1      37.194 -17.782 -20.802  0.00  0.00    -0.089 HD
ATOM     30  H   UNL     1      37.730 -17.172 -22.257  0.00  0.00    -0.089 HD
ATOM     31  H   UNL     1      38.085 -18.743 -21.831  0.00  0.00    -0.089 HD
ENDBRANCH  27  28
ENDBRANCH  18  27
ENDBRANCH   2  18
TORSDOF 7
ENDMDL
MODEL 2
REMARK VINA RESULT:     -11.3      1.474      2.037
REMARK  Name = 46843057
REMARK  7 active torsions:
REMARK  status: ('A' for Active; 'I' for Inactive)
REMARK    1  A    between atoms: N_2  and  C_18
REMARK    2  A    between atoms: C_3  and  C_7
REMARK    3  A    between atoms: C_8  and  C_14
REMARK    4  A    between atoms: C_18  and  C_19
REMARK    5  A    between atoms: C_18  and  C_27
REMARK    6  A    between atoms: C_19  and  C_21
REMARK    7  A    between atoms: C_27  and  N_28
REMARK                            x       y       z     vdW  Elec       q    Type
REMARK                         _______ _______ _______ _____ _____    ______ ____
ROOT
ATOM      1  O   UNL     1      34.234 -15.439 -20.366  0.00  0.00    -0.270 OA
ATOM      2  N   UNL     1      34.460 -16.675 -22.314  0.00  0.00    -0.304 N 
ATOM      3  C   UNL     1      34.157 -15.536 -21.587  0.00  0.00    +0.252 C 
ATOM      4  H   UNL     1      34.366 -16.653 -23.294  0.00  0.00    +0.150 HD
ENDROOT
BRANCH   3   7
ATOM      5 CL   UNL     1      32.470 -12.344 -25.772  0.00  0.00    -0.075 Cl
ATOM      6  S   UNL     1      33.411 -14.564 -24.060  0.00  0.00    -0.071 S 
ATOM      7  C   UNL     1      33.683 -14.373 -22.380  0.00  0.00    +0.084 C 
ATOM      8  C   UNL     1      32.976 -12.255 -23.022  0.00  0.00    +0.033 C 
ATOM      9  C   UNL     1      33.412 -13.090 -21.954  0.00  0.00    +0.014 C 
ATOM     10  C   UNL     1      32.930 -12.929 -24.222  0.00  0.00    +0.088 C 
BRANCH   8  14
ATOM     11 CL   UNL     1      30.246 -11.094 -21.443  0.00  0.00    -0.079 Cl
ATOM     12  N   UNL     1      33.321  -9.762 -23.337  0.00  0.00    -0.209 N 
ATOM     13  N   UNL     1      32.761  -8.574 -23.053  0.00  0.00    -0.175 NA
ATOM     14  C   UNL     1      32.615 -10.830 -22.869  0.00  0.00    +0.082 C 
ATOM     15  C   UNL     1      31.515 -10.304 -22.235  0.00  0.00    +0.093 C 
ATOM     16  C   UNL     1      34.561  -9.797 -24.078  0.00  0.00    +0.140 C 
ATOM     17  C   UNL     1      31.658  -8.912 -22.380  0.00  0.00    +0.130 C 
ENDBRANCH   8  14
ENDBRANCH   3   7
BRANCH   2  18
ATOM     18  C   UNL     1      34.911 -17.898 -21.682  0.00  0.00    +0.055 C 
BRANCH  18  19
ATOM     19  C   UNL     1      33.769 -18.931 -21.615  0.00  0.00    +0.044 C 
BRANCH  19  21
ATOM     20  F   UNL     1      31.873 -21.803 -18.148  0.00  0.00    -0.204 F 
ATOM     21  C   UNL     1      33.931 -19.915 -20.480  0.00  0.00    -0.018 C 
ATOM     22  C   UNL     1      32.805 -20.415 -19.825  0.00  0.00    +0.025 C 
ATOM     23  C   UNL     1      35.206 -20.322 -20.086  0.00  0.00    -0.004 C 
ATOM     24  C   UNL     1      32.953 -21.323 -18.776  0.00  0.00    +0.140 C 
ATOM     25  C   UNL     1      35.354 -21.231 -19.037  0.00  0.00    +0.002 C 
ATOM     26  C   UNL     1      34.228 -21.731 -18.383  0.00  0.00    +0.030 C 
ENDBRANCH  19  21
ENDBRANCH  18  19
BRANCH  18  27
ATOM     27  C   UNL     1      36.132 -18.428 -22.449  0.00  0.00    -0.066 C 
BRANCH  27  28
ATOM     28  N   UNL     1      37.386 -18.067 -21.800  0.00  0.00    +0.382 N 
ATOM     29  H   UNL     1      37.190 -17.624 -20.902  0.00  0.00    -0.089 HD
ATOM     30  H   UNL     1      37.902 -17.418 -22.393  0.00  0.00    -0.089 HD
ATOM     31  H   UNL     1      37.945 -18.907 -21.649  0.00  0.00    -0.089 HD
ENDBRANCH  27  28
ENDBRANCH  18  27
ENDBRANCH   2  18
TORSDOF 7
ENDMDL
MODEL 3
REMARK VINA RESULT:     -10.0      4.696      7.239
REMARK  Name = 46843057
REMARK  7 active torsions:
REMARK  status: ('A' for Active; 'I' for Inactive)
REMARK    1  A    between atoms: N_2  and  C_18
REMARK    2  A    between atoms: C_3  and  C_7
REMARK    3  A    between atoms: C_8  and  C_14
REMARK    4  A    between atoms: C_18  and  C_19
REMARK    5  A    between atoms: C_18  and  C_27
REMARK    6  A    between atoms: C_19  and  C_21
REMARK    7  A    between atoms: C_27  and  N_28
REMARK                            x       y       z     vdW  Elec       q    Type
REMARK                         _______ _______ _______ _____ _____    ______ ____
ROOT
ATOM      1  O   UNL     1      32.334 -21.922 -19.481  0.00  0.00    -0.270 OA
ATOM      2  N   UNL     1      34.054 -21.696 -17.942  0.00  0.00    -0.304 N 
ATOM      3  C   UNL     1      33.391 -21.409 -19.123  0.00  0.00    +0.252 C 
ATOM      4  H   UNL     1      34.899 -21.230 -17.746  0.00  0.00    +0.150 HD
ENDROOT
BRANCH   3   7
ATOM      5 CL   UNL     1      37.206 -18.241 -21.564  0.00  0.00    -0.075 Cl
ATOM      6  S   UNL     1      35.743 -20.175 -19.871  0.00  0.00    -0.071 S 
ATOM      7  C   UNL     1      34.055 -20.420 -20.011  0.00  0.00    +0.084 C 
ATOM      8  C   UNL     1      34.466 -18.798 -21.624  0.00  0.00    +0.033 C 
ATOM      9  C   UNL     1      33.495 -19.622 -20.985  0.00  0.00    +0.014 C 
ATOM     10  C   UNL     1      35.730 -18.998 -21.115  0.00  0.00    +0.088 C 
BRANCH   8  14
ATOM     11 CL   UNL     1      34.419 -15.453 -21.306  0.00  0.00    -0.079 Cl
ATOM     12  N   UNL     1      33.852 -18.147 -23.997  0.00  0.00    -0.209 N 
ATOM     13  N   UNL     1      33.621 -17.074 -24.772  0.00  0.00    -0.175 NA
ATOM     14  C   UNL     1      34.161 -17.839 -22.705  0.00  0.00    +0.082 C 
ATOM     15  C   UNL     1      34.129 -16.468 -22.629  0.00  0.00    +0.093 C 
ATOM     16  C   UNL     1      33.756 -19.467 -24.577  0.00  0.00    +0.140 C 
ATOM     17  C   UNL     1      33.791 -16.050 -23.930  0.00  0.00    +0.130 C 
ENDBRANCH   8  14
ENDBRANCH   3   7
BRANCH   2  18
ATOM     18  C   UNL     1      33.547 -22.657 -16.984  0.00  0.00    +0.055 C 
BRANCH  18  19
ATOM     19  C   UNL     1      34.120 -22.383 -15.581  0.00  0.00    +0.044 C 
BRANCH  19  21
ATOM     20  F   UNL     1      36.136 -26.673 -14.396  0.00  0.00    -0.204 F 
ATOM     21  C   UNL     1      35.328 -23.232 -15.261  0.00  0.00    -0.018 C 
ATOM     22  C   UNL     1      35.171 -24.588 -14.971  0.00  0.00    +0.025 C 
ATOM     23  C   UNL     1      36.600 -22.659 -15.254  0.00  0.00    -0.004 C 
ATOM     24  C   UNL     1      36.286 -25.371 -14.674  0.00  0.00    +0.140 C 
ATOM     25  C   UNL     1      37.715 -23.444 -14.957  0.00  0.00    +0.002 C 
ATOM     26  C   UNL     1      37.559 -24.799 -14.668  0.00  0.00    +0.030 C 
ENDBRANCH  19  21
ENDBRANCH  18  19
BRANCH  18  27
ATOM     27  C   UNL     1      32.012 -22.612 -17.007  0.00  0.00    -0.066 C 
BRANCH  27  28
ATOM     28  N   UNL     1      31.434 -22.970 -15.717  0.00  0.00    +0.382 N 
ATOM     29  H   UNL     1      32.014 -22.592 -14.967  0.00  0.00    -0.089 HD
ATOM     30  H   UNL     1      31.389 -23.985 -15.634  0.00  0.00    -0.089 HD
ATOM     31  H   UNL     1      30.493 -22.581 -15.647  0.00  0.00    -0.089 HD
ENDBRANCH  27  28
ENDBRANCH  18  27
ENDBRANCH   2  18
TORSDOF 7
ENDMDL
MODEL 4
REMARK VINA RESULT:     -10.0      3.325      4.843
REMARK  Name = 46843057
REMARK  7 active torsions:
REMARK  status: ('A' for Active; 'I' for Inactive)
REMARK    1  A    between atoms: N_2  and  C_18
REMARK    2  A    between atoms: C_3  and  C_7
REMARK    3  A    between atoms: C_8  and  C_14
REMARK    4  A    between atoms: C_18  and  C_19
REMARK    5  A    between atoms: C_18  and  C_27
REMARK    6  A    between atoms: C_19  and  C_21
REMARK    7  A    between atoms: C_27  and  N_28
REMARK                            x       y       z     vdW  Elec       q    Type
REMARK                         _______ _______ _______ _____ _____    ______ ____
ROOT
ATOM      1  O   UNL     1      31.117 -12.256 -21.755  0.00  0.00    -0.270 OA
ATOM      2  N   UNL     1      33.310 -12.569 -22.443  0.00  0.00    -0.304 N 
ATOM      3  C   UNL     1      32.183 -11.811 -22.173  0.00  0.00    +0.252 C 
ATOM      4  H   UNL     1      34.118 -12.117 -22.775  0.00  0.00    +0.150 HD
ENDROOT
BRANCH   3   7
ATOM      5 CL   UNL     1      33.991  -6.927 -24.024  0.00  0.00    -0.075 Cl
ATOM      6  S   UNL     1      33.612  -9.792 -23.396  0.00  0.00    -0.071 S 
ATOM      7  C   UNL     1      32.304 -10.356 -22.445  0.00  0.00    +0.084 C 
ATOM      8  C   UNL     1      31.939  -8.061 -22.500  0.00  0.00    +0.033 C 
ATOM      9  C   UNL     1      31.485  -9.328 -22.030  0.00  0.00    +0.014 C 
ATOM     10  C   UNL     1      33.085  -8.169 -23.255  0.00  0.00    +0.088 C 
BRANCH   8  14
ATOM     11 CL   UNL     1      30.330  -6.158 -24.754  0.00  0.00    -0.079 Cl
ATOM     12  N   UNL     1      31.184  -6.160 -21.000  0.00  0.00    -0.209 N 
ATOM     13  N   UNL     1      30.507  -4.999 -21.027  0.00  0.00    -0.175 NA
ATOM     14  C   UNL     1      31.265  -6.778 -22.213  0.00  0.00    +0.082 C 
ATOM     15  C   UNL     1      30.595  -5.965 -23.095  0.00  0.00    +0.093 C 
ATOM     16  C   UNL     1      31.738  -6.624 -19.750  0.00  0.00    +0.140 C 
ATOM     17  C   UNL     1      30.150  -4.885 -22.309  0.00  0.00    +0.130 C 
ENDBRANCH   8  14
ENDBRANCH   3   7
BRANCH   2  18
ATOM     18  C   UNL     1      33.339 -14.005 -22.252  0.00  0.00    +0.055 C 
BRANCH  18  19
ATOM     19  C   UNL     1      34.358 -14.661 -23.203  0.00  0.00    +0.044 C 
BRANCH  19  21
ATOM     20  F   UNL     1      35.485 -18.906 -21.064  0.00  0.00    -0.204 F 
ATOM     21  C   UNL     1      34.317 -16.171 -23.160  0.00  0.00    -0.018 C 
ATOM     22  C   UNL     1      34.931 -16.855 -22.111  0.00  0.00    +0.025 C 
ATOM     23  C   UNL     1      33.667 -16.880 -24.171  0.00  0.00    -0.004 C 
ATOM     24  C   UNL     1      34.896 -18.249 -22.072  0.00  0.00    +0.140 C 
ATOM     25  C   UNL     1      33.631 -18.274 -24.130  0.00  0.00    +0.002 C 
ATOM     26  C   UNL     1      34.245 -18.958 -23.081  0.00  0.00    +0.030 C 
ENDBRANCH  19  21
ENDBRANCH  18  19
BRANCH  18  27
ATOM     27  C   UNL     1      33.647 -14.299 -20.776  0.00  0.00    -0.066 C 
BRANCH  27  28
ATOM     28  N   UNL     1      32.436 -14.352 -19.964  0.00  0.00    +0.382 N 
ATOM     29  H   UNL     1      31.653 -13.969 -20.495  0.00  0.00    -0.089 HD
ATOM     30  H   UNL     1      32.572 -13.804 -19.115  0.00  0.00    -0.089 HD
ATOM     31  H   UNL     1      32.236 -15.321 -19.715  0.00  0.00    -0.089 HD
ENDBRANCH  27  28
ENDBRANCH  18  27
ENDBRANCH   2  18
TORSDOF 7
ENDMDL
MODEL 5
REMARK VINA RESULT:      -9.9      3.362      4.972
REMARK  Name = 46843057
REMARK  7 active torsions:
REMARK  status: ('A' for Active; 'I' for Inactive)
REMARK    1  A    between atoms: N_2  and  C_18
REMARK    2  A    between atoms: C_3  and  C_7
REMARK    3  A    between atoms: C_8  and  C_14
REMARK    4  A    between atoms: C_18  and  C_19
REMARK    5  A    between atoms: C_18  and  C_27
REMARK    6  A    between atoms: C_19  and  C_21
REMARK    7  A    between atoms: C_27  and  N_28
REMARK                            x       y       z     vdW  Elec       q    Type
REMARK                         _______ _______ _______ _____ _____    ______ ____
ROOT
ATOM      1  O   UNL     1      31.111 -12.202 -21.830  0.00  0.00    -0.270 OA
ATOM      2  N   UNL     1      33.309 -12.520 -22.500  0.00  0.00    -0.304 N 
ATOM      3  C   UNL     1      32.180 -11.760 -22.244  0.00  0.00    +0.252 C 
ATOM      4  H   UNL     1      34.119 -12.070 -22.831  0.00  0.00    +0.150 HD
ENDROOT
BRANCH   3   7
ATOM      5 CL   UNL     1      34.038  -6.881 -24.059  0.00  0.00    -0.075 Cl
ATOM      6  S   UNL     1      33.651  -9.743 -23.418  0.00  0.00    -0.071 S 
ATOM      7  C   UNL     1      32.303 -10.307 -22.527  0.00  0.00    +0.084 C 
ATOM      8  C   UNL     1      31.921  -8.017 -22.626  0.00  0.00    +0.033 C 
ATOM      9  C   UNL     1      31.456  -9.282 -22.165  0.00  0.00    +0.014 C 
ATOM     10  C   UNL     1      33.105  -8.123 -23.322  0.00  0.00    +0.088 C 
BRANCH   8  14
ATOM     11 CL   UNL     1      31.699  -6.438 -19.668  0.00  0.00    -0.079 Cl
ATOM     12  N   UNL     1      30.561  -5.991 -23.318  0.00  0.00    -0.209 N 
ATOM     13  N   UNL     1      30.017  -4.865 -22.826  0.00  0.00    -0.175 NA
ATOM     14  C   UNL     1      31.223  -6.736 -22.388  0.00  0.00    +0.082 C 
ATOM     15  C   UNL     1      31.104  -6.051 -21.204  0.00  0.00    +0.093 C 
ATOM     16  C   UNL     1      30.401  -6.295 -24.722  0.00  0.00    +0.140 C 
ATOM     17  C   UNL     1      30.352  -4.908 -21.533  0.00  0.00    +0.130 C 
ENDBRANCH   8  14
ENDBRANCH   3   7
BRANCH   2  18
ATOM     18  C   UNL     1      33.338 -13.954 -22.298  0.00  0.00    +0.055 C 
BRANCH  18  19
ATOM     19  C   UNL     1      34.356 -14.618 -23.244  0.00  0.00    +0.044 C 
BRANCH  19  21
ATOM     20  F   UNL     1      35.475 -18.887 -21.149  0.00  0.00    -0.204 F 
ATOM     21  C   UNL     1      34.298 -16.127 -23.208  0.00  0.00    -0.018 C 
ATOM     22  C   UNL     1      34.925 -16.824 -22.175  0.00  0.00    +0.025 C 
ATOM     23  C   UNL     1      33.618 -16.823 -24.207  0.00  0.00    -0.004 C 
ATOM     24  C   UNL     1      34.873 -18.218 -22.141  0.00  0.00    +0.140 C 
ATOM     25  C   UNL     1      33.566 -18.217 -24.173  0.00  0.00    +0.002 C 
ATOM     26  C   UNL     1      34.193 -18.914 -23.140  0.00  0.00    +0.030 C 
ENDBRANCH  19  21
ENDBRANCH  18  19
BRANCH  18  27
ATOM     27  C   UNL     1      33.645 -14.237 -20.820  0.00  0.00    -0.066 C 
BRANCH  27  28
ATOM     28  N   UNL     1      32.433 -14.298 -20.011  0.00  0.00    +0.382 N 
ATOM     29  H   UNL     1      32.059 -13.357 -19.885  0.00  0.00    -0.089 HD
ATOM     30  H   UNL     1      32.652 -14.702 -19.101  0.00  0.00    -0.089 HD
ATOM     31  H   UNL     1      31.738 -14.879 -20.483  0.00  0.00    -0.089 HD
ENDBRANCH  27  28
ENDBRANCH  18  27
ENDBRANCH   2  18
TORSDOF 7
ENDMDL
MODEL 6
REMARK VINA RESULT:      -9.8      4.752      7.265
REMARK  Name = 46843057
REMARK  7 active torsions:
REMARK  status: ('A' for Active; 'I' for Inactive)
REMARK    1  A    between atoms: N_2  and  C_18
REMARK    2  A    between atoms: C_3  and  C_7
REMARK    3  A    between atoms: C_8  and  C_14
REMARK    4  A    between atoms: C_18  and  C_19
REMARK    5  A    between atoms: C_18  and  C_27
REMARK    6  A    between atoms: C_19  and  C_21
REMARK    7  A    between atoms: C_27  and  N_28
REMARK                            x       y       z     vdW  Elec       q    Type
REMARK                         _______ _______ _______ _____ _____    ______ ____
ROOT
ATOM      1  O   UNL     1      32.311 -21.924 -19.403  0.00  0.00    -0.270 OA
ATOM      2  N   UNL     1      34.046 -21.741 -17.876  0.00  0.00    -0.304 N 
ATOM      3  C   UNL     1      33.380 -21.433 -19.049  0.00  0.00    +0.252 C 
ATOM      4  H   UNL     1      34.900 -21.292 -17.682  0.00  0.00    +0.150 HD
ENDROOT
BRANCH   3   7
ATOM      5 CL   UNL     1      37.233 -18.324 -21.505  0.00  0.00    -0.075 Cl
ATOM      6  S   UNL     1      35.749 -20.245 -19.816  0.00  0.00    -0.071 S 
ATOM      7  C   UNL     1      34.053 -20.448 -19.934  0.00  0.00    +0.084 C 
ATOM      8  C   UNL     1      34.479 -18.815 -21.531  0.00  0.00    +0.033 C 
ATOM      9  C   UNL     1      33.498 -19.623 -20.888  0.00  0.00    +0.014 C 
ATOM     10  C   UNL     1      35.746 -19.052 -21.043  0.00  0.00    +0.088 C 
BRANCH   8  14
ATOM     11 CL   UNL     1      33.726 -19.564 -24.719  0.00  0.00    -0.079 Cl
ATOM     12  N   UNL     1      34.163 -16.476 -22.461  0.00  0.00    -0.209 N 
ATOM     13  N   UNL     1      33.859 -15.823 -23.595  0.00  0.00    -0.175 NA
ATOM     14  C   UNL     1      34.182 -17.833 -22.594  0.00  0.00    +0.082 C 
ATOM     15  C   UNL     1      33.868 -18.086 -23.908  0.00  0.00    +0.093 C 
ATOM     16  C   UNL     1      34.430 -15.717 -21.261  0.00  0.00    +0.140 C 
ATOM     17  C   UNL     1      33.680 -16.811 -24.476  0.00  0.00    +0.130 C 
ENDBRANCH   8  14
ENDBRANCH   3   7
BRANCH   2  18
ATOM     18  C   UNL     1      33.530 -22.702 -16.922  0.00  0.00    +0.055 C 
BRANCH  18  19
ATOM     19  C   UNL     1      34.101 -22.437 -15.516  0.00  0.00    +0.044 C 
BRANCH  19  21
ATOM     20  F   UNL     1      36.150 -26.721 -14.372  0.00  0.00    -0.204 F 
ATOM     21  C   UNL     1      35.316 -23.279 -15.204  0.00  0.00    -0.018 C 
ATOM     22  C   UNL     1      35.170 -24.638 -14.927  0.00  0.00    +0.025 C 
ATOM     23  C   UNL     1      36.583 -22.697 -15.192  0.00  0.00    -0.004 C 
ATOM     24  C   UNL     1      36.291 -25.416 -14.638  0.00  0.00    +0.140 C 
ATOM     25  C   UNL     1      37.705 -23.475 -14.903  0.00  0.00    +0.002 C 
ATOM     26  C   UNL     1      37.559 -24.834 -14.626  0.00  0.00    +0.030 C 
ENDBRANCH  19  21
ENDBRANCH  18  19
BRANCH  18  27
ATOM     27  C   UNL     1      31.995 -22.647 -16.949  0.00  0.00    -0.066 C 
BRANCH  27  28
ATOM     28  N   UNL     1      31.406 -23.195 -15.733  0.00  0.00    +0.382 N 
ATOM     29  H   UNL     1      31.932 -22.869 -14.922  0.00  0.00    -0.089 HD
ATOM     30  H   UNL     1      31.435 -24.213 -15.771  0.00  0.00    -0.089 HD
ATOM     31  H   UNL     1      30.436 -22.885 -15.656  0.00  0.00    -0.089 HD
ENDBRANCH  27  28
ENDBRANCH  18  27
ENDBRANCH   2  18
TORSDOF 7
ENDMDL
MODEL 7
REMARK VINA RESULT:      -9.4      5.913     11.294
REMARK  Name = 46843057
REMARK  7 active torsions:
REMARK  status: ('A' for Active; 'I' for Inactive)
REMARK    1  A    between atoms: N_2  and  C_18
REMARK    2  A    between atoms: C_3  and  C_7
REMARK    3  A    between atoms: C_8  and  C_14
REMARK    4  A    between atoms: C_18  and  C_19
REMARK    5  A    between atoms: C_18  and  C_27
REMARK    6  A    between atoms: C_19  and  C_21
REMARK    7  A    between atoms: C_27  and  N_28
REMARK                            x       y       z     vdW  Elec       q    Type
REMARK                         _______ _______ _______ _____ _____    ______ ____
ROOT
ATOM      1  O   UNL     1      33.731  -7.962 -23.254  0.00  0.00    -0.270 OA
ATOM      2  N   UNL     1      31.424  -7.818 -23.071  0.00  0.00    -0.304 N 
ATOM      3  C   UNL     1      32.637  -8.485 -23.060  0.00  0.00    +0.252 C 
ATOM      4  H   UNL     1      30.599  -8.329 -22.904  0.00  0.00    +0.150 HD
ENDROOT
BRANCH   3   7
ATOM      5 CL   UNL     1      31.598 -13.401 -20.758  0.00  0.00    -0.075 Cl
ATOM      6  S   UNL     1      31.815 -10.520 -21.387  0.00  0.00    -0.071 S 
ATOM      7  C   UNL     1      32.566  -9.949 -22.816  0.00  0.00    +0.084 C 
ATOM      8  C   UNL     1      32.775 -12.254 -23.021  0.00  0.00    +0.033 C 
ATOM      9  C   UNL     1      33.036 -10.980 -23.601  0.00  0.00    +0.014 C 
ATOM     10  C   UNL     1      32.117 -12.150 -21.815  0.00  0.00    +0.088 C 
BRANCH   8  14
ATOM     11 CL   UNL     1      34.172 -14.843 -21.395  0.00  0.00    -0.079 Cl
ATOM     12  N   UNL     1      33.021 -13.890 -24.943  0.00  0.00    -0.209 N 
ATOM     13  N   UNL     1      33.459 -15.128 -25.227  0.00  0.00    -0.175 NA
ATOM     14  C   UNL     1      33.164 -13.542 -23.633  0.00  0.00    +0.082 C 
ATOM     15  C   UNL     1      33.735 -14.628 -23.016  0.00  0.00    +0.093 C 
ATOM     16  C   UNL     1      32.467 -13.079 -26.003  0.00  0.00    +0.140 C 
ATOM     17  C   UNL     1      33.894 -15.574 -24.045  0.00  0.00    +0.130 C 
ENDBRANCH   8  14
ENDBRANCH   3   7
BRANCH   2  18
ATOM     18  C   UNL     1      31.327  -6.395 -23.321  0.00  0.00    +0.055 C 
BRANCH  18  19
ATOM     19  C   UNL     1      31.144  -6.115 -24.825  0.00  0.00    +0.044 C 
BRANCH  19  21
ATOM     20  F   UNL     1      33.966  -5.471 -28.760  0.00  0.00    -0.204 F 
ATOM     21  C   UNL     1      32.394  -5.576 -25.481  0.00  0.00    -0.018 C 
ATOM     22  C   UNL     1      32.607  -5.775 -26.845  0.00  0.00    +0.025 C 
ATOM     23  C   UNL     1      33.336  -4.881 -24.721  0.00  0.00    -0.004 C 
ATOM     24  C   UNL     1      33.762  -5.280 -27.450  0.00  0.00    +0.140 C 
ATOM     25  C   UNL     1      34.490  -4.385 -25.328  0.00  0.00    +0.002 C 
ATOM     26  C   UNL     1      34.703  -4.584 -26.692  0.00  0.00    +0.030 C 
ENDBRANCH  19  21
ENDBRANCH  18  19
BRANCH  18  27
ATOM     27  C   UNL     1      30.177  -5.824 -22.477  0.00  0.00    -0.066 C 
BRANCH  27  28
ATOM     28  N   UNL     1      30.044  -4.381 -22.637  0.00  0.00    +0.382 N 
ATOM     29  H   UNL     1      30.966  -3.966 -22.771  0.00  0.00    -0.089 HD
ATOM     30  H   UNL     1      29.610  -3.985 -21.804  0.00  0.00    -0.089 HD
ATOM     31  H   UNL     1      29.460  -4.182 -23.451  0.00  0.00    -0.089 HD
ENDBRANCH  27  28
ENDBRANCH  18  27
ENDBRANCH   2  18
TORSDOF 7
ENDMDL
MODEL 8
REMARK VINA RESULT:      -9.4      6.523     10.769
REMARK  Name = 46843057
REMARK  7 active torsions:
REMARK  status: ('A' for Active; 'I' for Inactive)
REMARK    1  A    between atoms: N_2  and  C_18
REMARK    2  A    between atoms: C_3  and  C_7
REMARK    3  A    between atoms: C_8  and  C_14
REMARK    4  A    between atoms: C_18  and  C_19
REMARK    5  A    between atoms: C_18  and  C_27
REMARK    6  A    between atoms: C_19  and  C_21
REMARK    7  A    between atoms: C_27  and  N_28
REMARK                            x       y       z     vdW  Elec       q    Type
REMARK                         _______ _______ _______ _____ _____    ______ ____
ROOT
ATOM      1  O   UNL     1      34.730 -22.055 -20.202  0.00  0.00    -0.270 OA
ATOM      2  N   UNL     1      35.563 -19.989 -19.558  0.00  0.00    -0.304 N 
ATOM      3  C   UNL     1      35.107 -21.276 -19.331  0.00  0.00    +0.252 C 
ATOM      4  H   UNL     1      35.844 -19.441 -18.790  0.00  0.00    +0.150 HD
ENDROOT
BRANCH   3   7
ATOM      5 CL   UNL     1      36.440 -22.114 -14.033  0.00  0.00    -0.075 Cl
ATOM      6  S   UNL     1      36.382 -21.333 -16.885  0.00  0.00    -0.071 S 
ATOM      7  C   UNL     1      35.061 -21.702 -17.908  0.00  0.00    +0.084 C 
ATOM      8  C   UNL     1      34.395 -22.611 -15.876  0.00  0.00    +0.033 C 
ATOM      9  C   UNL     1      34.066 -22.387 -17.243  0.00  0.00    +0.014 C 
ATOM     10  C   UNL     1      35.627 -22.089 -15.547  0.00  0.00    +0.088 C 
BRANCH   8  14
ATOM     11 CL   UNL     1      35.407 -24.945 -13.680  0.00  0.00    -0.079 Cl
ATOM     12  N   UNL     1      32.180 -23.146 -14.763  0.00  0.00    -0.209 N 
ATOM     13  N   UNL     1      31.637 -23.923 -13.810  0.00  0.00    -0.175 NA
ATOM     14  C   UNL     1      33.524 -23.319 -14.916  0.00  0.00    +0.082 C 
ATOM     15  C   UNL     1      33.885 -24.277 -14.000  0.00  0.00    +0.093 C 
ATOM     16  C   UNL     1      31.330 -22.241 -15.502  0.00  0.00    +0.140 C 
ATOM     17  C   UNL     1      32.684 -24.613 -13.349  0.00  0.00    +0.130 C 
ENDBRANCH   8  14
ENDBRANCH   3   7
BRANCH   2  18
ATOM     18  C   UNL     1      35.643 -19.421 -20.889  0.00  0.00    +0.055 C 
BRANCH  18  19
ATOM     19  C   UNL     1      34.252 -18.971 -21.374  0.00  0.00    +0.044 C 
BRANCH  19  21
ATOM     20  F   UNL     1      34.244 -14.114 -20.846  0.00  0.00    -0.204 F 
ATOM     21  C   UNL     1      34.254 -17.578 -21.959  0.00  0.00    -0.018 C 
ATOM     22  C   UNL     1      34.249 -16.467 -21.116  0.00  0.00    +0.025 C 
ATOM     23  C   UNL     1      34.261 -17.403 -23.344  0.00  0.00    -0.004 C 
ATOM     24  C   UNL     1      34.249 -15.181 -21.656  0.00  0.00    +0.140 C 
ATOM     25  C   UNL     1      34.262 -16.116 -23.883  0.00  0.00    +0.002 C 
ATOM     26  C   UNL     1      34.256 -15.005 -23.040  0.00  0.00    +0.030 C 
ENDBRANCH  19  21
ENDBRANCH  18  19
BRANCH  18  27
ATOM     27  C   UNL     1      36.657 -18.267 -20.872  0.00  0.00    -0.066 C 
BRANCH  27  28
ATOM     28  N   UNL     1      37.494 -18.256 -22.065  0.00  0.00    +0.382 N 
ATOM     29  H   UNL     1      38.429 -18.591 -21.829  0.00  0.00    -0.089 HD
ATOM     30  H   UNL     1      37.555 -17.306 -22.429  0.00  0.00    -0.089 HD
ATOM     31  H   UNL     1      37.084 -18.866 -22.774  0.00  0.00    -0.089 HD
ENDBRANCH  27  28
ENDBRANCH  18  27
ENDBRANCH   2  18
TORSDOF 7
ENDMDL
MODEL 9
REMARK VINA RESULT:      -9.3      7.809     12.323
REMARK  Name = 46843057
REMARK  7 active torsions:
REMARK  status: ('A' for Active; 'I' for Inactive)
REMARK    1  A    between atoms: N_2  and  C_18
REMARK    2  A    between atoms: C_3  and  C_7
REMARK    3  A    between atoms: C_8  and  C_14
REMARK    4  A    between atoms: C_18  and  C_19
REMARK    5  A    between atoms: C_18  and  C_27
REMARK    6  A    between atoms: C_19  and  C_21
REMARK    7  A    between atoms: C_27  and  N_28
REMARK                            x       y       z     vdW  Elec       q    Type
REMARK                         _______ _______ _______ _____ _____    ______ ____
ROOT
ATOM      1  O   UNL     1      32.376 -22.392 -17.234  0.00  0.00    -0.270 OA
ATOM      2  N   UNL     1      34.528 -21.715 -17.769  0.00  0.00    -0.304 N 
ATOM      3  C   UNL     1      33.575 -22.329 -16.975  0.00  0.00    +0.252 C 
ATOM      4  H   UNL     1      35.467 -21.717 -17.473  0.00  0.00    +0.150 HD
ENDROOT
BRANCH   3   7
ATOM      5 CL   UNL     1      33.859 -24.223 -11.790  0.00  0.00    -0.075 Cl
ATOM      6  S   UNL     1      33.011 -23.065 -14.376  0.00  0.00    -0.071 S 
ATOM      7  C   UNL     1      34.076 -22.923 -15.709  0.00  0.00    +0.084 C 
ATOM      8  C   UNL     1      35.424 -23.897 -14.085  0.00  0.00    +0.033 C 
ATOM      9  C   UNL     1      35.334 -23.405 -15.419  0.00  0.00    +0.014 C 
ATOM     10  C   UNL     1      34.232 -23.773 -13.407  0.00  0.00    +0.088 C 
BRANCH   8  14
ATOM     11 CL   UNL     1      37.275 -22.473 -11.669  0.00  0.00    -0.079 Cl
ATOM     12  N   UNL     1      37.223 -25.665 -13.821  0.00  0.00    -0.209 N 
ATOM     13  N   UNL     1      38.334 -25.944 -13.119  0.00  0.00    -0.175 NA
ATOM     14  C   UNL     1      36.648 -24.473 -13.492  0.00  0.00    +0.082 C 
ATOM     15  C   UNL     1      37.438 -23.935 -12.505  0.00  0.00    +0.093 C 
ATOM     16  C   UNL     1      36.762 -26.607 -14.814  0.00  0.00    +0.140 C 
ATOM     17  C   UNL     1      38.461 -24.883 -12.317  0.00  0.00    +0.130 C 
ENDBRANCH   8  14
ENDBRANCH   3   7
BRANCH   2  18
ATOM     18  C   UNL     1      34.192 -21.068 -19.021  0.00  0.00    +0.055 C 
BRANCH  18  19
ATOM     19  C   UNL     1      35.443 -20.904 -19.904  0.00  0.00    +0.044 C 
BRANCH  19  21
ATOM     20  F   UNL     1      33.167 -18.480 -23.483  0.00  0.00    -0.204 F 
ATOM     21  C   UNL     1      35.347 -19.732 -20.852  0.00  0.00    -0.018 C 
ATOM     22  C   UNL     1      34.280 -19.645 -21.747  0.00  0.00    +0.025 C 
ATOM     23  C   UNL     1      36.325 -18.737 -20.833  0.00  0.00    -0.004 C 
ATOM     24  C   UNL     1      34.192 -18.563 -22.623  0.00  0.00    +0.140 C 
ATOM     25  C   UNL     1      36.235 -17.655 -21.709  0.00  0.00    +0.002 C 
ATOM     26  C   UNL     1      35.169 -17.568 -22.604  0.00  0.00    +0.030 C 
ENDBRANCH  19  21
ENDBRANCH  18  19
BRANCH  18  27
ATOM     27  C   UNL     1      33.090 -21.882 -19.715  0.00  0.00    -0.066 C 
BRANCH  27  28
ATOM     28  N   UNL     1      31.863 -21.112 -19.884  0.00  0.00    +0.382 N 
ATOM     29  H   UNL     1      31.988 -20.434 -20.636  0.00  0.00    -0.089 HD
ATOM     30  H   UNL     1      31.647 -20.623 -19.017  0.00  0.00    -0.089 HD
ATOM     31  H   UNL     1      31.096 -21.743 -20.119  0.00  0.00    -0.089 HD
ENDBRANCH  27  28
ENDBRANCH  18  27
ENDBRANCH   2  18
TORSDOF 7
ENDMDL
