MODEL 1
REMARK VINA RESULT:     -14.5      0.000      0.000
REMARK  Name = 9800765
REMARK  5 active torsions:
REMARK  status: ('A' for Active; 'I' for Inactive)
REMARK    1  A    between atoms: C_3  and  C_17
REMARK    2  A    between atoms: C_5  and  N_8
REMARK    3  A    between atoms: N_8  and  C_14
REMARK    4  A    between atoms: C_17  and  C_20
REMARK    5  A    between atoms: C_23  and  C_26
REMARK                            x       y       z     vdW  Elec       q    Type
REMARK                         _______ _______ _______ _____ _____    ______ ____
ROOT
ATOM      1  O   UNL     1      37.025 -21.216 -16.224  0.00  0.00    -0.337 OA
ATOM      2  N   UNL     1      36.256 -21.302 -17.378  0.00  0.00    -0.079 NA
ATOM      3  C   UNL     1      35.207 -22.056 -17.039  0.00  0.00    +0.106 C 
ATOM      4  C   UNL     1      35.259 -22.470 -15.697  0.00  0.00    +0.076 C 
ATOM      5  C   UNL     1      36.417 -21.915 -15.239  0.00  0.00    +0.252 C 
ENDROOT
BRANCH   3   6
ATOM      6  C   UNL     1      34.167 -22.357 -18.036  0.00  0.00    +0.066 C 
ATOM      7  C   UNL     1      32.774 -22.640 -17.420  0.00  0.00    +0.011 C 
BRANCH   6   9
ATOM      8  F   UNL     1      36.614 -19.270 -20.883  0.00  0.00    -0.204 F 
ATOM      9  C   UNL     1      34.192 -21.235 -19.079  0.00  0.00    -0.015 C 
ATOM     10  C   UNL     1      35.410 -20.763 -19.506  0.00  0.00    +0.026 C 
ATOM     11  C   UNL     1      32.995 -20.745 -19.546  0.00  0.00    -0.004 C 
ATOM     12  C   UNL     1      34.238 -19.222 -20.950  0.00  0.00    +0.027 C 
ATOM     13  C   UNL     1      35.434 -19.742 -20.456  0.00  0.00    +0.140 C 
ATOM     14  C   UNL     1      33.018 -19.723 -20.495  0.00  0.00    +0.002 C 
BRANCH  12  15
ATOM     15  C   UNL     1      34.257 -18.164 -21.936  0.00  0.00    +0.002 C 
ATOM     16  C   UNL     1      33.886 -18.433 -23.254  0.00  0.00    +0.000 C 
ATOM     17  C   UNL     1      34.643 -16.875 -21.570  0.00  0.00    +0.000 C 
ATOM     18  C   UNL     1      33.903 -17.414 -24.205  0.00  0.00    +0.000 C 
ATOM     19  C   UNL     1      34.660 -15.855 -22.522  0.00  0.00    +0.000 C 
ATOM     20  C   UNL     1      34.291 -16.124 -23.840  0.00  0.00    +0.000 C 
ENDBRANCH  12  15
ENDBRANCH   6   9
ENDBRANCH   3   6
BRANCH   5  21
ATOM     21  N   UNL     1      36.976 -21.987 -13.999  0.00  0.00    -0.147 NA
BRANCH  21  29
ATOM     22  O   UNL     1      38.183 -26.651 -14.110  0.00  0.00    -0.350 OA
ATOM     23  N   UNL     1      37.161 -24.175 -13.290  0.00  0.00    -0.277 N 
ATOM     24  N   UNL     1      35.591 -22.922 -12.251  0.00  0.00    -0.373 N 
ATOM     25  C   UNL     1      36.436 -25.405 -12.979  0.00  0.00    +0.125 C 
ATOM     26  C   UNL     1      38.597 -24.341 -13.498  0.00  0.00    +0.125 C 
ATOM     27  C   UNL     1      36.768 -26.463 -14.024  0.00  0.00    +0.164 C 
ATOM     28  C   UNL     1      38.834 -25.446 -14.519  0.00  0.00    +0.164 C 
ATOM     29  C   UNL     1      36.580 -22.957 -13.213  0.00  0.00    +0.182 C 
ATOM     30  H   UNL     1      35.388 -23.729 -11.724  0.00  0.00    +0.158 HD
ATOM     31  H   UNL     1      35.087 -22.091 -12.093  0.00  0.00    +0.158 HD
ENDBRANCH  21  29
ENDBRANCH   5  21
TORSDOF 5
ENDMDL
MODEL 2
REMARK VINA RESULT:     -13.9      1.490      2.283
REMARK  Name = 9800765
REMARK  5 active torsions:
REMARK  status: ('A' for Active; 'I' for Inactive)
REMARK    1  A    between atoms: C_3  and  C_17
REMARK    2  A    between atoms: C_5  and  N_8
REMARK    3  A    between atoms: N_8  and  C_14
REMARK    4  A    between atoms: C_17  and  C_20
REMARK    5  A    between atoms: C_23  and  C_26
REMARK                            x       y       z     vdW  Elec       q    Type
REMARK                         _______ _______ _______ _____ _____    ______ ____
ROOT
ATOM      1  O   UNL     1      36.980 -20.493 -16.632  0.00  0.00    -0.337 OA
ATOM      2  N   UNL     1      36.435 -20.439 -17.909  0.00  0.00    -0.079 NA
ATOM      3  C   UNL     1      35.663 -21.526 -18.001  0.00  0.00    +0.106 C 
ATOM      4  C   UNL     1      35.682 -22.294 -16.825  0.00  0.00    +0.076 C 
ATOM      5  C   UNL     1      36.521 -21.599 -16.005  0.00  0.00    +0.252 C 
ENDROOT
BRANCH   3   6
ATOM      6  C   UNL     1      34.917 -21.793 -19.241  0.00  0.00    +0.066 C 
ATOM      7  C   UNL     1      33.587 -22.554 -19.019  0.00  0.00    +0.011 C 
BRANCH   6   9
ATOM      8  F   UNL     1      36.903 -17.895 -21.360  0.00  0.00    -0.204 F 
ATOM      9  C   UNL     1      34.780 -20.464 -19.990  0.00  0.00    -0.015 C 
ATOM     10  C   UNL     1      35.922 -19.783 -20.335  0.00  0.00    +0.026 C 
ATOM     11  C   UNL     1      33.518 -20.003 -20.286  0.00  0.00    -0.004 C 
ATOM     12  C   UNL     1      34.532 -18.078 -21.332  0.00  0.00    +0.027 C 
ATOM     13  C   UNL     1      35.797 -18.572 -21.016  0.00  0.00    +0.140 C 
ATOM     14  C   UNL     1      33.393 -18.793 -20.966  0.00  0.00    +0.002 C 
BRANCH  12  15
ATOM     15  C   UNL     1      34.397 -16.823 -22.040  0.00  0.00    +0.002 C 
ATOM     16  C   UNL     1      34.263 -15.631 -21.326  0.00  0.00    +0.000 C 
ATOM     17  C   UNL     1      34.402 -16.804 -23.434  0.00  0.00    +0.000 C 
ATOM     18  C   UNL     1      34.134 -14.422 -22.007  0.00  0.00    +0.000 C 
ATOM     19  C   UNL     1      34.272 -15.593 -24.115  0.00  0.00    +0.000 C 
ATOM     20  C   UNL     1      34.138 -14.402 -23.402  0.00  0.00    +0.000 C 
ENDBRANCH  12  15
ENDBRANCH   6   9
ENDBRANCH   3   6
BRANCH   5  21
ATOM     21  N   UNL     1      36.911 -21.882 -14.731  0.00  0.00    -0.147 NA
BRANCH  21  29
ATOM     22  O   UNL     1      35.216 -24.686 -11.198  0.00  0.00    -0.350 OA
ATOM     23  N   UNL     1      36.506 -23.806 -13.523  0.00  0.00    -0.277 N 
ATOM     24  N   UNL     1      38.214 -23.900 -15.002  0.00  0.00    -0.373 N 
ATOM     25  C   UNL     1      37.100 -24.867 -12.714  0.00  0.00    +0.125 C 
ATOM     26  C   UNL     1      35.057 -23.669 -13.395  0.00  0.00    +0.125 C 
ATOM     27  C   UNL     1      36.643 -24.714 -11.269  0.00  0.00    +0.164 C 
ATOM     28  C   UNL     1      34.690 -23.569 -11.919  0.00  0.00    +0.164 C 
ATOM     29  C   UNL     1      37.213 -23.125 -14.453  0.00  0.00    +0.182 C 
ATOM     30  H   UNL     1      38.338 -24.830 -14.701  0.00  0.00    +0.158 HD
ATOM     31  H   UNL     1      38.806 -23.524 -15.693  0.00  0.00    +0.158 HD
ENDBRANCH  21  29
ENDBRANCH   5  21
TORSDOF 5
ENDMDL
MODEL 3
REMARK VINA RESULT:     -13.6      3.284      6.251
REMARK  Name = 9800765
REMARK  5 active torsions:
REMARK  status: ('A' for Active; 'I' for Inactive)
REMARK    1  A    between atoms: C_3  and  C_17
REMARK    2  A    between atoms: C_5  and  N_8
REMARK    3  A    between atoms: N_8  and  C_14
REMARK    4  A    between atoms: C_17  and  C_20
REMARK    5  A    between atoms: C_23  and  C_26
REMARK                            x       y       z     vdW  Elec       q    Type
REMARK                         _______ _______ _______ _____ _____    ______ ____
ROOT
ATOM      1  O   UNL     1      35.524 -19.071 -20.123  0.00  0.00    -0.337 OA
ATOM      2  N   UNL     1      35.811 -18.308 -21.248  0.00  0.00    -0.079 NA
ATOM      3  C   UNL     1      34.794 -18.529 -22.085  0.00  0.00    +0.106 C 
ATOM      4  C   UNL     1      33.844 -19.416 -21.548  0.00  0.00    +0.076 C 
ATOM      5  C   UNL     1      34.354 -19.720 -20.321  0.00  0.00    +0.252 C 
ENDROOT
BRANCH   3   6
ATOM      6  C   UNL     1      34.767 -17.868 -23.400  0.00  0.00    +0.066 C 
ATOM      7  C   UNL     1      34.038 -18.684 -24.495  0.00  0.00    +0.011 C 
BRANCH   6   9
ATOM      8  F   UNL     1      34.055 -13.980 -20.571  0.00  0.00    -0.204 F 
ATOM      9  C   UNL     1      34.227 -16.450 -23.189  0.00  0.00    -0.015 C 
ATOM     10  C   UNL     1      34.393 -15.861 -21.959  0.00  0.00    +0.026 C 
ATOM     11  C   UNL     1      33.596 -15.824 -24.238  0.00  0.00    -0.004 C 
ATOM     12  C   UNL     1      33.256 -13.906 -22.810  0.00  0.00    +0.027 C 
ATOM     13  C   UNL     1      33.901 -14.569 -21.766  0.00  0.00    +0.140 C 
ATOM     14  C   UNL     1      33.104 -14.534 -24.046  0.00  0.00    +0.002 C 
BRANCH  12  15
ATOM     15  C   UNL     1      32.745 -12.566 -22.616  0.00  0.00    +0.002 C 
ATOM     16  C   UNL     1      33.216 -11.520 -23.410  0.00  0.00    +0.000 C 
ATOM     17  C   UNL     1      31.783 -12.321 -21.637  0.00  0.00    +0.000 C 
ATOM     18  C   UNL     1      32.724 -10.229 -23.225  0.00  0.00    +0.000 C 
ATOM     19  C   UNL     1      31.291 -11.029 -21.452  0.00  0.00    +0.000 C 
ATOM     20  C   UNL     1      31.761  -9.982 -22.245  0.00  0.00    +0.000 C 
ENDBRANCH  12  15
ENDBRANCH   6   9
ENDBRANCH   3   6
BRANCH   5  21
ATOM     21  N   UNL     1      33.850 -20.540 -19.356  0.00  0.00    -0.147 NA
BRANCH  21  29
ATOM     22  O   UNL     1      33.065 -23.231 -15.437  0.00  0.00    -0.350 OA
ATOM     23  N   UNL     1      34.262 -22.092 -17.699  0.00  0.00    -0.277 N 
ATOM     24  N   UNL     1      36.074 -21.313 -18.806  0.00  0.00    -0.373 N 
ATOM     25  C   UNL     1      35.072 -22.414 -16.527  0.00  0.00    +0.125 C 
ATOM     26  C   UNL     1      33.036 -22.873 -17.836  0.00  0.00    +0.125 C 
ATOM     27  C   UNL     1      34.196 -22.371 -15.281  0.00  0.00    +0.164 C 
ATOM     28  C   UNL     1      32.249 -22.809 -16.533  0.00  0.00    +0.164 C 
ATOM     29  C   UNL     1      34.701 -21.264 -18.673  0.00  0.00    +0.182 C 
ATOM     30  H   UNL     1      36.604 -21.905 -18.223  0.00  0.00    +0.158 HD
ATOM     31  H   UNL     1      36.524 -20.757 -19.481  0.00  0.00    +0.158 HD
ENDBRANCH  21  29
ENDBRANCH   5  21
TORSDOF 5
ENDMDL
MODEL 4
REMARK VINA RESULT:     -13.5      5.245     10.787
REMARK  Name = 9800765
REMARK  5 active torsions:
REMARK  status: ('A' for Active; 'I' for Inactive)
REMARK    1  A    between atoms: C_3  and  C_17
REMARK    2  A    between atoms: C_5  and  N_8
REMARK    3  A    between atoms: N_8  and  C_14
REMARK    4  A    between atoms: C_17  and  C_20
REMARK    5  A    between atoms: C_23  and  C_26
REMARK                            x       y       z     vdW  Elec       q    Type
REMARK                         _______ _______ _______ _____ _____    ______ ____
ROOT
ATOM      1  O   UNL     1      34.269 -15.298 -20.315  0.00  0.00    -0.337 OA
ATOM      2  N   UNL     1      34.718 -16.613 -20.335  0.00  0.00    -0.079 NA
ATOM      3  C   UNL     1      34.865 -16.908 -21.629  0.00  0.00    +0.106 C 
ATOM      4  C   UNL     1      34.527 -15.830 -22.464  0.00  0.00    +0.076 C 
ATOM      5  C   UNL     1      34.163 -14.852 -21.587  0.00  0.00    +0.252 C 
ENDROOT
BRANCH   3   6
ATOM      6  C   UNL     1      35.336 -18.244 -22.028  0.00  0.00    +0.066 C 
ATOM      7  C   UNL     1      36.823 -18.279 -22.461  0.00  0.00    +0.011 C 
BRANCH   6   9
ATOM      8  F   UNL     1      32.024 -20.651 -19.408  0.00  0.00    -0.204 F 
ATOM      9  C   UNL     1      34.973 -19.215 -20.899  0.00  0.00    -0.015 C 
ATOM     10  C   UNL     1      33.646 -19.489 -20.671  0.00  0.00    +0.026 C 
ATOM     11  C   UNL     1      35.989 -19.772 -20.159  0.00  0.00    -0.004 C 
ATOM     12  C   UNL     1      34.322 -20.955 -18.874  0.00  0.00    +0.027 C 
ATOM     13  C   UNL     1      33.315 -20.373 -19.644  0.00  0.00    +0.140 C 
ATOM     14  C   UNL     1      35.659 -20.654 -19.132  0.00  0.00    +0.002 C 
BRANCH  12  15
ATOM     15  C   UNL     1      33.984 -21.873 -17.808  0.00  0.00    +0.002 C 
ATOM     16  C   UNL     1      34.932 -22.188 -16.833  0.00  0.00    +0.000 C 
ATOM     17  C   UNL     1      32.712 -22.442 -17.754  0.00  0.00    +0.000 C 
ATOM     18  C   UNL     1      34.606 -23.072 -15.805  0.00  0.00    +0.000 C 
ATOM     19  C   UNL     1      32.387 -23.327 -16.724  0.00  0.00    +0.000 C 
ATOM     20  C   UNL     1      33.334 -23.642 -15.750  0.00  0.00    +0.000 C 
ENDBRANCH  12  15
ENDBRANCH   6   9
ENDBRANCH   3   6
BRANCH   5  21
ATOM     21  N   UNL     1      33.739 -13.582 -21.838  0.00  0.00    -0.147 NA
BRANCH  21  29
ATOM     22  O   UNL     1      31.372  -9.416 -22.351  0.00  0.00    -0.350 OA
ATOM     23  N   UNL     1      32.025 -12.047 -21.649  0.00  0.00    -0.277 N 
ATOM     24  N   UNL     1      31.961 -13.792 -20.213  0.00  0.00    -0.373 N 
ATOM     25  C   UNL     1      31.249 -11.217 -20.732  0.00  0.00    +0.125 C 
ATOM     26  C   UNL     1      31.929 -11.668 -23.057  0.00  0.00    +0.125 C 
ATOM     27  C   UNL     1      31.580  -9.750 -20.977  0.00  0.00    +0.164 C 
ATOM     28  C   UNL     1      32.231 -10.182 -23.199  0.00  0.00    +0.164 C 
ATOM     29  C   UNL     1      32.638 -13.185 -21.250  0.00  0.00    +0.182 C 
ATOM     30  H   UNL     1      31.138 -13.386 -19.857  0.00  0.00    +0.158 HD
ATOM     31  H   UNL     1      32.302 -14.631 -19.826  0.00  0.00    +0.158 HD
ENDBRANCH  21  29
ENDBRANCH   5  21
TORSDOF 5
ENDMDL
MODEL 5
REMARK VINA RESULT:     -13.5      1.599      2.190
REMARK  Name = 9800765
REMARK  5 active torsions:
REMARK  status: ('A' for Active; 'I' for Inactive)
REMARK    1  A    between atoms: C_3  and  C_17
REMARK    2  A    between atoms: C_5  and  N_8
REMARK    3  A    between atoms: N_8  and  C_14
REMARK    4  A    between atoms: C_17  and  C_20
REMARK    5  A    between atoms: C_23  and  C_26
REMARK                            x       y       z     vdW  Elec       q    Type
REMARK                         _______ _______ _______ _____ _____    ______ ____
ROOT
ATOM      1  O   UNL     1      34.598 -22.512 -14.038  0.00  0.00    -0.337 OA
ATOM      2  N   UNL     1      33.486 -22.776 -14.829  0.00  0.00    -0.079 NA
ATOM      3  C   UNL     1      33.939 -22.732 -16.085  0.00  0.00    +0.106 C 
ATOM      4  C   UNL     1      35.313 -22.447 -16.147  0.00  0.00    +0.076 C 
ATOM      5  C   UNL     1      35.670 -22.320 -14.838  0.00  0.00    +0.252 C 
ENDROOT
BRANCH   3   6
ATOM      6  C   UNL     1      33.016 -22.972 -17.206  0.00  0.00    +0.066 C 
ATOM      7  C   UNL     1      31.528 -23.052 -16.784  0.00  0.00    +0.011 C 
BRANCH   6   9
ATOM      8  F   UNL     1      31.536 -19.681 -20.463  0.00  0.00    -0.204 F 
ATOM      9  C   UNL     1      33.322 -21.927 -18.284  0.00  0.00    -0.015 C 
ATOM     10  C   UNL     1      32.271 -21.277 -18.885  0.00  0.00    +0.026 C 
ATOM     11  C   UNL     1      34.636 -21.682 -18.607  0.00  0.00    -0.004 C 
ATOM     12  C   UNL     1      33.872 -20.053 -20.217  0.00  0.00    +0.027 C 
ATOM     13  C   UNL     1      32.550 -20.325 -19.866  0.00  0.00    +0.140 C 
ATOM     14  C   UNL     1      34.915 -20.731 -19.588  0.00  0.00    +0.002 C 
BRANCH  12  15
ATOM     15  C   UNL     1      34.166 -19.065 -21.234  0.00  0.00    +0.002 C 
ATOM     16  C   UNL     1      34.882 -17.915 -20.900  0.00  0.00    +0.000 C 
ATOM     17  C   UNL     1      33.736 -19.263 -22.545  0.00  0.00    +0.000 C 
ATOM     18  C   UNL     1      35.167 -16.963 -21.879  0.00  0.00    +0.000 C 
ATOM     19  C   UNL     1      34.022 -18.311 -23.524  0.00  0.00    +0.000 C 
ATOM     20  C   UNL     1      34.737 -17.160 -23.191  0.00  0.00    +0.000 C 
ENDBRANCH  12  15
ENDBRANCH   6   9
ENDBRANCH   3   6
BRANCH   5  21
ATOM     21  N   UNL     1      36.891 -22.043 -14.300  0.00  0.00    -0.147 NA
BRANCH  21  29
ATOM     22  O   UNL     1      37.689 -26.722 -13.470  0.00  0.00    -0.350 OA
ATOM     23  N   UNL     1      37.559 -23.940 -13.169  0.00  0.00    -0.277 N 
ATOM     24  N   UNL     1      37.228 -22.095 -11.906  0.00  0.00    -0.373 N 
ATOM     25  C   UNL     1      37.304 -24.813 -12.026  0.00  0.00    +0.125 C 
ATOM     26  C   UNL     1      38.393 -24.524 -14.217  0.00  0.00    +0.125 C 
ATOM     27  C   UNL     1      36.781 -26.155 -12.522  0.00  0.00    +0.164 C 
ATOM     28  C   UNL     1      37.822 -25.879 -14.617  0.00  0.00    +0.164 C 
ATOM     29  C   UNL     1      37.204 -22.636 -13.175  0.00  0.00    +0.182 C 
ATOM     30  H   UNL     1      37.482 -22.654 -11.136  0.00  0.00    +0.158 HD
ATOM     31  H   UNL     1      36.989 -21.149 -11.769  0.00  0.00    +0.158 HD
ENDBRANCH  21  29
ENDBRANCH   5  21
TORSDOF 5
ENDMDL
MODEL 6
REMARK VINA RESULT:     -13.4      3.472      6.436
REMARK  Name = 9800765
REMARK  5 active torsions:
REMARK  status: ('A' for Active; 'I' for Inactive)
REMARK    1  A    between atoms: C_3  and  C_17
REMARK    2  A    between atoms: C_5  and  N_8
REMARK    3  A    between atoms: N_8  and  C_14
REMARK    4  A    between atoms: C_17  and  C_20
REMARK    5  A    between atoms: C_23  and  C_26
REMARK                            x       y       z     vdW  Elec       q    Type
REMARK                         _______ _______ _______ _____ _____    ______ ____
ROOT
ATOM      1  O   UNL     1      35.479 -19.006 -20.184  0.00  0.00    -0.337 OA
ATOM      2  N   UNL     1      35.764 -18.229 -21.301  0.00  0.00    -0.079 NA
ATOM      3  C   UNL     1      34.761 -18.466 -22.151  0.00  0.00    +0.106 C 
ATOM      4  C   UNL     1      33.823 -19.374 -21.630  0.00  0.00    +0.076 C 
ATOM      5  C   UNL     1      34.324 -19.676 -20.399  0.00  0.00    +0.252 C 
ENDROOT
BRANCH   3   6
ATOM      6  C   UNL     1      34.736 -17.797 -23.462  0.00  0.00    +0.066 C 
ATOM      7  C   UNL     1      34.002 -18.603 -24.561  0.00  0.00    +0.011 C 
BRANCH   6   9
ATOM      8  F   UNL     1      32.547 -13.786 -25.121  0.00  0.00    -0.204 F 
ATOM      9  C   UNL     1      34.203 -16.378 -23.242  0.00  0.00    -0.015 C 
ATOM     10  C   UNL     1      33.613 -15.727 -24.299  0.00  0.00    +0.026 C 
ATOM     11  C   UNL     1      34.338 -15.810 -21.997  0.00  0.00    -0.004 C 
ATOM     12  C   UNL     1      33.248 -13.831 -22.848  0.00  0.00    +0.027 C 
ATOM     13  C   UNL     1      33.127 -14.435 -24.099  0.00  0.00    +0.140 C 
ATOM     14  C   UNL     1      33.853 -14.518 -21.797  0.00  0.00    +0.002 C 
BRANCH  12  15
ATOM     15  C   UNL     1      32.744 -12.491 -22.636  0.00  0.00    +0.002 C 
ATOM     16  C   UNL     1      31.781 -12.257 -21.654  0.00  0.00    +0.000 C 
ATOM     17  C   UNL     1      33.222 -11.434 -23.410  0.00  0.00    +0.000 C 
ATOM     18  C   UNL     1      31.296 -10.965 -21.447  0.00  0.00    +0.000 C 
ATOM     19  C   UNL     1      32.737 -10.143 -23.203  0.00  0.00    +0.000 C 
ATOM     20  C   UNL     1      31.773  -9.908 -22.222  0.00  0.00    +0.000 C 
ENDBRANCH  12  15
ENDBRANCH   6   9
ENDBRANCH   3   6
BRANCH   5  21
ATOM     21  N   UNL     1      33.825 -20.512 -19.446  0.00  0.00    -0.147 NA
BRANCH  21  29
ATOM     22  O   UNL     1      33.071 -23.194 -15.514  0.00  0.00    -0.350 OA
ATOM     23  N   UNL     1      34.249 -22.060 -17.788  0.00  0.00    -0.277 N 
ATOM     24  N   UNL     1      36.052 -21.287 -18.912  0.00  0.00    -0.373 N 
ATOM     25  C   UNL     1      35.069 -22.382 -16.623  0.00  0.00    +0.125 C 
ATOM     26  C   UNL     1      33.021 -22.841 -17.914  0.00  0.00    +0.125 C 
ATOM     27  C   UNL     1      34.203 -22.334 -15.370  0.00  0.00    +0.164 C 
ATOM     28  C   UNL     1      32.246 -22.774 -16.604  0.00  0.00    +0.164 C 
ATOM     29  C   UNL     1      34.681 -21.235 -18.768  0.00  0.00    +0.182 C 
ATOM     30  H   UNL     1      36.587 -21.877 -18.333  0.00  0.00    +0.158 HD
ATOM     31  H   UNL     1      36.498 -20.732 -19.593  0.00  0.00    +0.158 HD
ENDBRANCH  21  29
ENDBRANCH   5  21
TORSDOF 5
ENDMDL
MODEL 7
REMARK VINA RESULT:     -12.6      2.905      5.224
REMARK  Name = 9800765
REMARK  5 active torsions:
REMARK  status: ('A' for Active; 'I' for Inactive)
REMARK    1  A    between atoms: C_3  and  C_17
REMARK    2  A    between atoms: C_5  and  N_8
REMARK    3  A    between atoms: N_8  and  C_14
REMARK    4  A    between atoms: C_17  and  C_20
REMARK    5  A    between atoms: C_23  and  C_26
REMARK                            x       y       z     vdW  Elec       q    Type
REMARK                         _______ _______ _______ _____ _____    ______ ____
ROOT
ATOM      1  O   UNL     1      33.850 -20.116 -19.833  0.00  0.00    -0.337 OA
ATOM      2  N   UNL     1      33.736 -19.398 -21.017  0.00  0.00    -0.079 NA
ATOM      3  C   UNL     1      34.976 -19.351 -21.513  0.00  0.00    +0.106 C 
ATOM      4  C   UNL     1      35.904 -20.015 -20.692  0.00  0.00    +0.076 C 
ATOM      5  C   UNL     1      35.142 -20.472 -19.658  0.00  0.00    +0.252 C 
ENDROOT
BRANCH   3   6
ATOM      6  C   UNL     1      35.232 -18.657 -22.785  0.00  0.00    +0.066 C 
ATOM      7  C   UNL     1      34.765 -19.446 -24.032  0.00  0.00    +0.011 C 
BRANCH   6   9
ATOM      8  F   UNL     1      34.180 -14.719 -20.137  0.00  0.00    -0.204 F 
ATOM      9  C   UNL     1      34.648 -17.246 -22.662  0.00  0.00    -0.015 C 
ATOM     10  C   UNL     1      34.684 -16.624 -21.437  0.00  0.00    +0.026 C 
ATOM     11  C   UNL     1      34.110 -16.657 -23.783  0.00  0.00    -0.004 C 
ATOM     12  C   UNL     1      33.600 -14.714 -22.443  0.00  0.00    +0.027 C 
ATOM     13  C   UNL     1      34.153 -15.339 -21.325  0.00  0.00    +0.140 C 
ATOM     14  C   UNL     1      33.579 -15.373 -23.672  0.00  0.00    +0.002 C 
BRANCH  12  15
ATOM     15  C   UNL     1      33.049 -13.381 -22.332  0.00  0.00    +0.002 C 
ATOM     16  C   UNL     1      33.420 -12.396 -23.248  0.00  0.00    +0.000 C 
ATOM     17  C   UNL     1      32.146 -13.081 -21.313  0.00  0.00    +0.000 C 
ATOM     18  C   UNL     1      32.889 -11.111 -23.143  0.00  0.00    +0.000 C 
ATOM     19  C   UNL     1      31.614 -11.795 -21.209  0.00  0.00    +0.000 C 
ATOM     20  C   UNL     1      31.986 -10.809 -22.123  0.00  0.00    +0.000 C 
ENDBRANCH  12  15
ENDBRANCH   6   9
ENDBRANCH   3   6
BRANCH   5  21
ATOM     21  N   UNL     1      35.517 -21.189 -18.562  0.00  0.00    -0.147 NA
BRANCH  21  29
ATOM     22  O   UNL     1      35.874 -23.462 -14.328  0.00  0.00    -0.350 OA
ATOM     23  N   UNL     1      34.839 -22.160 -16.581  0.00  0.00    -0.277 N 
ATOM     24  N   UNL     1      33.238 -21.887 -18.155  0.00  0.00    -0.373 N 
ATOM     25  C   UNL     1      34.103 -23.265 -15.972  0.00  0.00    +0.125 C 
ATOM     26  C   UNL     1      35.747 -21.454 -15.682  0.00  0.00    +0.125 C 
ATOM     27  C   UNL     1      35.082 -24.194 -15.266  0.00  0.00    +0.164 C 
ATOM     28  C   UNL     1      36.654 -22.462 -14.988  0.00  0.00    +0.164 C 
ATOM     29  C   UNL     1      34.567 -21.712 -17.827  0.00  0.00    +0.182 C 
ATOM     30  H   UNL     1      32.621 -22.298 -17.507  0.00  0.00    +0.158 HD
ATOM     31  H   UNL     1      32.906 -21.603 -19.037  0.00  0.00    +0.158 HD
ENDBRANCH  21  29
ENDBRANCH   5  21
TORSDOF 5
ENDMDL
MODEL 8
REMARK VINA RESULT:     -12.6      2.119      2.936
REMARK  Name = 9800765
REMARK  5 active torsions:
REMARK  status: ('A' for Active; 'I' for Inactive)
REMARK    1  A    between atoms: C_3  and  C_17
REMARK    2  A    between atoms: C_5  and  N_8
REMARK    3  A    between atoms: N_8  and  C_14
REMARK    4  A    between atoms: C_17  and  C_20
REMARK    5  A    between atoms: C_23  and  C_26
REMARK                            x       y       z     vdW  Elec       q    Type
REMARK                         _______ _______ _______ _____ _____    ______ ____
ROOT
ATOM      1  O   UNL     1      34.156 -23.556 -14.179  0.00  0.00    -0.337 OA
ATOM      2  N   UNL     1      33.076 -22.924 -14.781  0.00  0.00    -0.079 NA
ATOM      3  C   UNL     1      33.065 -23.380 -16.037  0.00  0.00    +0.106 C 
ATOM      4  C   UNL     1      34.105 -24.293 -16.282  0.00  0.00    +0.076 C 
ATOM      5  C   UNL     1      34.753 -24.364 -15.084  0.00  0.00    +0.252 C 
ENDROOT
BRANCH   3   6
ATOM      6  C   UNL     1      32.035 -22.913 -16.979  0.00  0.00    +0.066 C 
ATOM      7  C   UNL     1      30.794 -22.294 -16.290  0.00  0.00    +0.011 C 
BRANCH   6   9
ATOM      8  F   UNL     1      36.063 -21.217 -19.107  0.00  0.00    -0.204 F 
ATOM      9  C   UNL     1      32.725 -22.002 -17.999  0.00  0.00    -0.015 C 
ATOM     10  C   UNL     1      34.096 -22.031 -18.083  0.00  0.00    +0.026 C 
ATOM     11  C   UNL     1      31.944 -21.191 -18.789  0.00  0.00    -0.004 C 
ATOM     12  C   UNL     1      33.963 -20.366 -19.829  0.00  0.00    +0.027 C 
ATOM     13  C   UNL     1      34.725 -21.201 -19.012  0.00  0.00    +0.140 C 
ATOM     14  C   UNL     1      32.573 -20.361 -19.717  0.00  0.00    +0.002 C 
BRANCH  12  15
ATOM     15  C   UNL     1      34.610 -19.505 -20.795  0.00  0.00    +0.002 C 
ATOM     16  C   UNL     1      33.912 -19.079 -21.926  0.00  0.00    +0.000 C 
ATOM     17  C   UNL     1      35.929 -19.100 -20.596  0.00  0.00    +0.000 C 
ATOM     18  C   UNL     1      34.534 -18.248 -22.857  0.00  0.00    +0.000 C 
ATOM     19  C   UNL     1      36.551 -18.268 -21.528  0.00  0.00    +0.000 C 
ATOM     20  C   UNL     1      35.854 -17.843 -22.659  0.00  0.00    +0.000 C 
ENDBRANCH  12  15
ENDBRANCH   6   9
ENDBRANCH   3   6
BRANCH   5  21
ATOM     21  N   UNL     1      35.845 -25.101 -14.736  0.00  0.00    -0.147 NA
BRANCH  21  29
ATOM     22  O   UNL     1      36.363 -23.529 -10.211  0.00  0.00    -0.350 OA
ATOM     23  N   UNL     1      36.894 -24.255 -12.863  0.00  0.00    -0.277 N 
ATOM     24  N   UNL     1      37.964 -23.941 -14.831  0.00  0.00    -0.373 N 
ATOM     25  C   UNL     1      37.557 -23.093 -12.277  0.00  0.00    +0.125 C 
ATOM     26  C   UNL     1      36.452 -25.263 -11.904  0.00  0.00    +0.125 C 
ATOM     27  C   UNL     1      36.680 -22.518 -11.171  0.00  0.00    +0.164 C 
ATOM     28  C   UNL     1      35.624 -24.593 -10.815  0.00  0.00    +0.164 C 
ATOM     29  C   UNL     1      36.856 -24.465 -14.198  0.00  0.00    +0.182 C 
ATOM     30  H   UNL     1      38.659 -23.480 -14.306  0.00  0.00    +0.158 HD
ATOM     31  H   UNL     1      38.061 -24.025 -15.807  0.00  0.00    +0.158 HD
ENDBRANCH  21  29
ENDBRANCH   5  21
TORSDOF 5
ENDMDL
MODEL 9
REMARK VINA RESULT:     -12.2      2.016      2.612
REMARK  Name = 9800765
REMARK  5 active torsions:
REMARK  status: ('A' for Active; 'I' for Inactive)
REMARK    1  A    between atoms: C_3  and  C_17
REMARK    2  A    between atoms: C_5  and  N_8
REMARK    3  A    between atoms: N_8  and  C_14
REMARK    4  A    between atoms: C_17  and  C_20
REMARK    5  A    between atoms: C_23  and  C_26
REMARK                            x       y       z     vdW  Elec       q    Type
REMARK                         _______ _______ _______ _____ _____    ______ ____
ROOT
ATOM      1  O   UNL     1      33.885 -23.368 -13.998  0.00  0.00    -0.337 OA
ATOM      2  N   UNL     1      32.876 -22.728 -14.708  0.00  0.00    -0.079 NA
ATOM      3  C   UNL     1      32.833 -23.352 -15.888  0.00  0.00    +0.106 C 
ATOM      4  C   UNL     1      33.783 -24.384 -15.980  0.00  0.00    +0.076 C 
ATOM      5  C   UNL     1      34.409 -24.347 -14.770  0.00  0.00    +0.252 C 
ENDROOT
BRANCH   3   6
ATOM      6  C   UNL     1      31.862 -22.927 -16.908  0.00  0.00    +0.066 C 
ATOM      7  C   UNL     1      30.574 -22.299 -16.321  0.00  0.00    +0.011 C 
BRANCH   6   9
ATOM      8  F   UNL     1      35.990 -21.431 -18.992  0.00  0.00    -0.204 F 
ATOM      9  C   UNL     1      32.608 -22.042 -17.912  0.00  0.00    -0.015 C 
ATOM     10  C   UNL     1      33.975 -22.146 -17.990  0.00  0.00    +0.026 C 
ATOM     11  C   UNL     1      31.879 -21.177 -18.694  0.00  0.00    -0.004 C 
ATOM     12  C   UNL     1      33.946 -20.453 -19.712  0.00  0.00    +0.027 C 
ATOM     13  C   UNL     1      34.655 -21.341 -18.903  0.00  0.00    +0.140 C 
ATOM     14  C   UNL     1      32.558 -20.371 -19.607  0.00  0.00    +0.002 C 
BRANCH  12  15
ATOM     15  C   UNL     1      34.646 -19.616 -20.662  0.00  0.00    +0.002 C 
ATOM     16  C   UNL     1      34.026 -19.252 -21.858  0.00  0.00    +0.000 C 
ATOM     17  C   UNL     1      35.938 -19.172 -20.383  0.00  0.00    +0.000 C 
ATOM     18  C   UNL     1      34.699 -18.444 -22.774  0.00  0.00    +0.000 C 
ATOM     19  C   UNL     1      36.611 -18.364 -21.300  0.00  0.00    +0.000 C 
ATOM     20  C   UNL     1      35.993 -18.000 -22.496  0.00  0.00    +0.000 C 
ENDBRANCH  12  15
ENDBRANCH   6   9
ENDBRANCH   3   6
BRANCH   5  21
ATOM     21  N   UNL     1      35.423 -25.127 -14.299  0.00  0.00    -0.147 NA
BRANCH  21  29
ATOM     22  O   UNL     1      40.161 -24.252 -14.353  0.00  0.00    -0.350 OA
ATOM     23  N   UNL     1      37.461 -24.294 -13.608  0.00  0.00    -0.277 N 
ATOM     24  N   UNL     1      35.837 -24.379 -12.037  0.00  0.00    -0.373 N 
ATOM     25  C   UNL     1      38.503 -24.357 -12.586  0.00  0.00    +0.125 C 
ATOM     26  C   UNL     1      37.863 -23.663 -14.862  0.00  0.00    +0.125 C 
ATOM     27  C   UNL     1      39.761 -24.974 -13.186  0.00  0.00    +0.164 C 
ATOM     28  C   UNL     1      39.149 -24.310 -15.362  0.00  0.00    +0.164 C 
ATOM     29  C   UNL     1      36.177 -24.630 -13.351  0.00  0.00    +0.182 C 
ATOM     30  H   UNL     1      36.504 -24.001 -11.419  0.00  0.00    +0.158 HD
ATOM     31  H   UNL     1      34.928 -24.579 -11.716  0.00  0.00    +0.158 HD
ENDBRANCH  21  29
ENDBRANCH   5  21
TORSDOF 5
ENDMDL
