MODEL 1
REMARK VINA RESULT:     -10.1      0.000      0.000
REMARK  Name = 4621
REMARK  13 active torsions:
REMARK  status: ('A' for Active; 'I' for Inactive)
REMARK    1  A    between atoms: N_1  and  C_3
REMARK    2  A    between atoms: N_1  and  C_18
REMARK    3  A    between atoms: N_1  and  C_33
REMARK    4  A    between atoms: C_3  and  C_6
REMARK    5  A    between atoms: N_5  and  C_8
REMARK    6  A    between atoms: C_8  and  C_11
REMARK    7  A    between atoms: C_11  and  C_12
REMARK    8  A    between atoms: C_18  and  C_21
REMARK    9  A    between atoms: N_20  and  C_23
REMARK   10  A    between atoms: C_23  and  C_26
REMARK   11  A    between atoms: C_26  and  C_27
REMARK   12  A    between atoms: C_33  and  C_34
REMARK   13  A    between atoms: C_34  and  O_35
REMARK                            x       y       z     vdW  Elec       q    Type
REMARK                         _______ _______ _______ _____ _____    ______ ____
ROOT
ATOM      1  N   UNL     1      33.196 -13.626 -23.021  0.00  0.00    +0.400 N 
ATOM      2  H   UNL     1      32.657 -14.013 -22.247  0.00  0.00    -0.078 HD
ENDROOT
BRANCH   1   3
ATOM      3  C   UNL     1      33.673 -12.305 -22.627  0.00  0.00    +0.011 C 
BRANCH   3   6
ATOM      4  O   UNL     1      31.950 -12.041 -20.975  0.00  0.00    -0.277 OA
ATOM      5  N   UNL     1      32.257 -10.283 -22.456  0.00  0.00    -0.282 N 
ATOM      6  C   UNL     1      32.552 -11.550 -21.934  0.00  0.00    +0.205 C 
ATOM      7  C   UNL     1      32.980  -9.717 -23.592  0.00  0.00    +0.115 C 
BRANCH   5   8
ATOM      8  C   UNL     1      31.208  -9.435 -21.902  0.00  0.00    +0.064 C 
ATOM      9  C   UNL     1      30.193 -10.341 -21.184  0.00  0.00    +0.020 C 
ATOM     10  C   UNL     1      30.490  -8.706 -23.048  0.00  0.00    +0.020 C 
BRANCH   8  11
ATOM     11  C   UNL     1      31.797  -8.441 -20.867  0.00  0.00    +0.045 C 
BRANCH  11  12
ATOM     12  C   UNL     1      31.813  -6.987 -21.281  0.00  0.00    -0.021 C 
ATOM     13  C   UNL     1      30.857  -6.106 -20.774  0.00  0.00    -0.004 C 
ATOM     14  C   UNL     1      32.784  -6.526 -22.169  0.00  0.00    -0.004 C 
ATOM     15  C   UNL     1      30.871  -4.765 -21.155  0.00  0.00    -0.000 C 
ATOM     16  C   UNL     1      32.799  -5.183 -22.550  0.00  0.00    -0.000 C 
ATOM     17  C   UNL     1      31.843  -4.304 -22.043  0.00  0.00    -0.000 C 
ENDBRANCH  11  12
ENDBRANCH   8  11
ENDBRANCH   5   8
ENDBRANCH   3   6
ENDBRANCH   1   3
BRANCH   1  18
ATOM     18  C   UNL     1      34.323 -14.519 -23.296  0.00  0.00    +0.011 C 
BRANCH  18  21
ATOM     19  O   UNL     1      34.303 -15.488 -21.099  0.00  0.00    -0.277 OA
ATOM     20  N   UNL     1      34.267 -16.959 -22.890  0.00  0.00    -0.282 N 
ATOM     21  C   UNL     1      34.297 -15.681 -22.318  0.00  0.00    +0.205 C 
ATOM     22  C   UNL     1      33.643 -17.223 -24.183  0.00  0.00    +0.115 C 
BRANCH  20  23
ATOM     23  C   UNL     1      34.858 -18.121 -22.237  0.00  0.00    +0.064 C 
ATOM     24  C   UNL     1      34.512 -19.384 -23.042  0.00  0.00    +0.020 C 
ATOM     25  C   UNL     1      36.385 -17.944 -22.237  0.00  0.00    +0.020 C 
BRANCH  23  26
ATOM     26  C   UNL     1      34.375 -18.226 -20.766  0.00  0.00    +0.045 C 
BRANCH  26  27
ATOM     27  C   UNL     1      34.204 -19.628 -20.223  0.00  0.00    -0.021 C 
ATOM     28  C   UNL     1      32.925 -20.143 -20.014  0.00  0.00    -0.004 C 
ATOM     29  C   UNL     1      35.326 -20.404 -19.933  0.00  0.00    -0.004 C 
ATOM     30  C   UNL     1      32.768 -21.436 -19.515  0.00  0.00    -0.000 C 
ATOM     31  C   UNL     1      35.168 -21.697 -19.434  0.00  0.00    -0.000 C 
ATOM     32  C   UNL     1      33.889 -22.212 -19.225  0.00  0.00    -0.000 C 
ENDBRANCH  26  27
ENDBRANCH  23  26
ENDBRANCH  20  23
ENDBRANCH  18  21
ENDBRANCH   1  18
BRANCH   1  33
ATOM     33  C   UNL     1      32.326 -13.531 -24.194  0.00  0.00    -0.044 C 
BRANCH  33  34
ATOM     34  C   UNL     1      33.146 -13.303 -25.454  0.00  0.00    +0.115 C 
BRANCH  34  35
ATOM     35  O   UNL     1      33.102 -14.482 -26.247  0.00  0.00    -0.384 OA
ATOM     36  H   UNL     1      33.998 -14.700 -26.551  0.00  0.00    +0.210 HD
ENDBRANCH  34  35
ENDBRANCH  33  34
ENDBRANCH   1  33
TORSDOF 13
ENDMDL
MODEL 2
REMARK VINA RESULT:      -9.5      4.843     13.069
REMARK  Name = 4621
REMARK  13 active torsions:
REMARK  status: ('A' for Active; 'I' for Inactive)
REMARK    1  A    between atoms: N_1  and  C_3
REMARK    2  A    between atoms: N_1  and  C_18
REMARK    3  A    between atoms: N_1  and  C_33
REMARK    4  A    between atoms: C_3  and  C_6
REMARK    5  A    between atoms: N_5  and  C_8
REMARK    6  A    between atoms: C_8  and  C_11
REMARK    7  A    between atoms: C_11  and  C_12
REMARK    8  A    between atoms: C_18  and  C_21
REMARK    9  A    between atoms: N_20  and  C_23
REMARK   10  A    between atoms: C_23  and  C_26
REMARK   11  A    between atoms: C_26  and  C_27
REMARK   12  A    between atoms: C_33  and  C_34
REMARK   13  A    between atoms: C_34  and  O_35
REMARK                            x       y       z     vdW  Elec       q    Type
REMARK                         _______ _______ _______ _____ _____    ______ ____
ROOT
ATOM      1  N   UNL     1      34.034 -21.645 -19.023  0.00  0.00    +0.400 N 
ATOM      2  H   UNL     1      34.971 -21.406 -18.697  0.00  0.00    -0.078 HD
ENDROOT
BRANCH   1   3
ATOM      3  C   UNL     1      33.208 -21.938 -17.857  0.00  0.00    +0.011 C 
BRANCH   3   6
ATOM      4  O   UNL     1      35.320 -22.294 -16.770  0.00  0.00    -0.277 OA
ATOM      5  N   UNL     1      33.427 -22.997 -15.631  0.00  0.00    -0.282 N 
ATOM      6  C   UNL     1      34.094 -22.417 -16.719  0.00  0.00    +0.205 C 
ATOM      7  C   UNL     1      31.974 -23.134 -15.586  0.00  0.00    +0.115 C 
BRANCH   5   8
ATOM      8  C   UNL     1      34.136 -23.505 -14.462  0.00  0.00    +0.064 C 
ATOM      9  C   UNL     1      33.089 -23.884 -13.400  0.00  0.00    +0.020 C 
ATOM     10  C   UNL     1      35.032 -22.396 -13.892  0.00  0.00    +0.020 C 
BRANCH   8  11
ATOM     11  C   UNL     1      34.949 -24.775 -14.825  0.00  0.00    +0.045 C 
BRANCH  11  12
ATOM     12  C   UNL     1      36.307 -24.899 -14.170  0.00  0.00    -0.021 C 
ATOM     13  C   UNL     1      37.450 -24.475 -14.849  0.00  0.00    -0.004 C 
ATOM     14  C   UNL     1      36.417 -25.438 -12.889  0.00  0.00    -0.004 C 
ATOM     15  C   UNL     1      38.703 -24.589 -14.246  0.00  0.00    -0.000 C 
ATOM     16  C   UNL     1      37.670 -25.551 -12.285  0.00  0.00    -0.000 C 
ATOM     17  C   UNL     1      38.812 -25.127 -12.964  0.00  0.00    -0.000 C 
ENDBRANCH  11  12
ENDBRANCH   8  11
ENDBRANCH   5   8
ENDBRANCH   3   6
ENDBRANCH   1   3
BRANCH   1  18
ATOM     18  C   UNL     1      33.493 -20.505 -19.764  0.00  0.00    +0.011 C 
BRANCH  18  21
ATOM     19  O   UNL     1      35.754 -19.700 -19.833  0.00  0.00    -0.277 OA
ATOM     20  N   UNL     1      34.333 -18.968 -21.512  0.00  0.00    -0.282 N 
ATOM     21  C   UNL     1      34.636 -19.698 -20.356  0.00  0.00    +0.205 C 
ATOM     22  C   UNL     1      33.321 -19.404 -22.470  0.00  0.00    +0.115 C 
BRANCH  20  23
ATOM     23  C   UNL     1      35.005 -17.718 -21.845  0.00  0.00    +0.064 C 
ATOM     24  C   UNL     1      36.523 -17.955 -21.883  0.00  0.00    +0.020 C 
ATOM     25  C   UNL     1      34.541 -17.286 -23.246  0.00  0.00    +0.020 C 
BRANCH  23  26
ATOM     26  C   UNL     1      34.621 -16.604 -20.834  0.00  0.00    +0.045 C 
BRANCH  26  27
ATOM     27  C   UNL     1      34.207 -15.279 -21.436  0.00  0.00    -0.021 C 
ATOM     28  C   UNL     1      34.347 -15.063 -22.807  0.00  0.00    -0.004 C 
ATOM     29  C   UNL     1      33.684 -14.276 -20.620  0.00  0.00    -0.004 C 
ATOM     30  C   UNL     1      33.964 -13.841 -23.362  0.00  0.00    -0.000 C 
ATOM     31  C   UNL     1      33.302 -13.055 -21.175  0.00  0.00    -0.000 C 
ATOM     32  C   UNL     1      33.442 -12.838 -22.546  0.00  0.00    -0.000 C 
ENDBRANCH  26  27
ENDBRANCH  23  26
ENDBRANCH  20  23
ENDBRANCH  18  21
ENDBRANCH   1  18
BRANCH   1  33
ATOM     33  C   UNL     1      34.130 -22.818 -19.894  0.00  0.00    -0.044 C 
BRANCH  33  34
ATOM     34  C   UNL     1      33.359 -23.989 -19.305  0.00  0.00    +0.115 C 
BRANCH  34  35
ATOM     35  O   UNL     1      33.412 -25.076 -20.219  0.00  0.00    -0.384 OA
ATOM     36  H   UNL     1      32.570 -25.558 -20.196  0.00  0.00    +0.210 HD
ENDBRANCH  34  35
ENDBRANCH  33  34
ENDBRANCH   1  33
TORSDOF 13
ENDMDL
MODEL 3
REMARK VINA RESULT:      -9.4      1.562      2.580
REMARK  Name = 4621
REMARK  13 active torsions:
REMARK  status: ('A' for Active; 'I' for Inactive)
REMARK    1  A    between atoms: N_1  and  C_3
REMARK    2  A    between atoms: N_1  and  C_18
REMARK    3  A    between atoms: N_1  and  C_33
REMARK    4  A    between atoms: C_3  and  C_6
REMARK    5  A    between atoms: N_5  and  C_8
REMARK    6  A    between atoms: C_8  and  C_11
REMARK    7  A    between atoms: C_11  and  C_12
REMARK    8  A    between atoms: C_18  and  C_21
REMARK    9  A    between atoms: N_20  and  C_23
REMARK   10  A    between atoms: C_23  and  C_26
REMARK   11  A    between atoms: C_26  and  C_27
REMARK   12  A    between atoms: C_33  and  C_34
REMARK   13  A    between atoms: C_34  and  O_35
REMARK                            x       y       z     vdW  Elec       q    Type
REMARK                         _______ _______ _______ _____ _____    ______ ____
ROOT
ATOM      1  N   UNL     1      33.847 -13.096 -22.357  0.00  0.00    +0.400 N 
ATOM      2  H   UNL     1      34.593 -12.403 -22.397  0.00  0.00    -0.078 HD
ENDROOT
BRANCH   1   3
ATOM      3  C   UNL     1      32.646 -12.507 -22.939  0.00  0.00    +0.011 C 
BRANCH   3   6
ATOM      4  O   UNL     1      33.845 -10.641 -23.860  0.00  0.00    -0.277 OA
ATOM      5  N   UNL     1      31.947 -10.155 -22.621  0.00  0.00    -0.282 N 
ATOM      6  C   UNL     1      32.882 -11.028 -23.192  0.00  0.00    +0.205 C 
ATOM      7  C   UNL     1      30.813 -10.629 -21.833  0.00  0.00    +0.115 C 
BRANCH   5   8
ATOM      8  C   UNL     1      32.035  -8.707 -22.773  0.00  0.00    +0.064 C 
ATOM      9  C   UNL     1      31.469  -8.060 -21.497  0.00  0.00    +0.020 C 
ATOM     10  C   UNL     1      31.173  -8.271 -23.967  0.00  0.00    +0.020 C 
BRANCH   8  11
ATOM     11  C   UNL     1      33.512  -8.263 -22.935  0.00  0.00    +0.045 C 
BRANCH  11  12
ATOM     12  C   UNL     1      33.738  -6.996 -23.731  0.00  0.00    -0.021 C 
ATOM     13  C   UNL     1      33.330  -5.766 -23.216  0.00  0.00    -0.004 C 
ATOM     14  C   UNL     1      34.355  -7.059 -24.980  0.00  0.00    -0.004 C 
ATOM     15  C   UNL     1      33.539  -4.598 -23.949  0.00  0.00    -0.000 C 
ATOM     16  C   UNL     1      34.565  -5.891 -25.714  0.00  0.00    -0.000 C 
ATOM     17  C   UNL     1      34.157  -4.661 -25.198  0.00  0.00    -0.000 C 
ENDBRANCH  11  12
ENDBRANCH   8  11
ENDBRANCH   5   8
ENDBRANCH   3   6
ENDBRANCH   1   3
BRANCH   1  18
ATOM     18  C   UNL     1      34.263 -14.274 -23.120  0.00  0.00    +0.011 C 
BRANCH  18  21
ATOM     19  O   UNL     1      34.286 -15.373 -20.985  0.00  0.00    -0.277 OA
ATOM     20  N   UNL     1      34.204 -16.734 -22.860  0.00  0.00    -0.282 N 
ATOM     21  C   UNL     1      34.252 -15.493 -22.213  0.00  0.00    +0.205 C 
ATOM     22  C   UNL     1      33.550 -16.918 -24.153  0.00  0.00    +0.115 C 
BRANCH  20  23
ATOM     23  C   UNL     1      34.802 -17.935 -22.291  0.00  0.00    +0.064 C 
ATOM     24  C   UNL     1      34.366 -19.156 -23.116  0.00  0.00    +0.020 C 
ATOM     25  C   UNL     1      36.330 -17.799 -22.387  0.00  0.00    +0.020 C 
BRANCH  23  26
ATOM     26  C   UNL     1      34.415 -18.083 -20.795  0.00  0.00    +0.045 C 
BRANCH  26  27
ATOM     27  C   UNL     1      34.263 -19.500 -20.288  0.00  0.00    -0.021 C 
ATOM     28  C   UNL     1      35.394 -20.257 -19.986  0.00  0.00    -0.004 C 
ATOM     29  C   UNL     1      32.991 -20.048 -20.121  0.00  0.00    -0.004 C 
ATOM     30  C   UNL     1      35.254 -21.564 -19.517  0.00  0.00    -0.000 C 
ATOM     31  C   UNL     1      32.851 -21.354 -19.652  0.00  0.00    -0.000 C 
ATOM     32  C   UNL     1      33.982 -22.111 -19.350  0.00  0.00    -0.000 C 
ENDBRANCH  26  27
ENDBRANCH  23  26
ENDBRANCH  20  23
ENDBRANCH  18  21
ENDBRANCH   1  18
BRANCH   1  33
ATOM     33  C   UNL     1      33.617 -13.454 -20.956  0.00  0.00    -0.044 C 
BRANCH  33  34
ATOM     34  C   UNL     1      32.175 -13.178 -20.560  0.00  0.00    +0.115 C 
BRANCH  34  35
ATOM     35  O   UNL     1      31.706 -14.259 -19.764  0.00  0.00    -0.384 OA
ATOM     36  H   UNL     1      32.037 -15.096 -20.128  0.00  0.00    +0.210 HD
ENDBRANCH  34  35
ENDBRANCH  33  34
ENDBRANCH   1  33
TORSDOF 13
ENDMDL
MODEL 4
REMARK VINA RESULT:      -9.2      1.575      2.660
REMARK  Name = 4621
REMARK  13 active torsions:
REMARK  status: ('A' for Active; 'I' for Inactive)
REMARK    1  A    between atoms: N_1  and  C_3
REMARK    2  A    between atoms: N_1  and  C_18
REMARK    3  A    between atoms: N_1  and  C_33
REMARK    4  A    between atoms: C_3  and  C_6
REMARK    5  A    between atoms: N_5  and  C_8
REMARK    6  A    between atoms: C_8  and  C_11
REMARK    7  A    between atoms: C_11  and  C_12
REMARK    8  A    between atoms: C_18  and  C_21
REMARK    9  A    between atoms: N_20  and  C_23
REMARK   10  A    between atoms: C_23  and  C_26
REMARK   11  A    between atoms: C_26  and  C_27
REMARK   12  A    between atoms: C_33  and  C_34
REMARK   13  A    between atoms: C_34  and  O_35
REMARK                            x       y       z     vdW  Elec       q    Type
REMARK                         _______ _______ _______ _____ _____    ______ ____
ROOT
ATOM      1  N   UNL     1      33.793 -13.200 -22.202  0.00  0.00    +0.400 N 
ATOM      2  H   UNL     1      34.527 -12.493 -22.188  0.00  0.00    -0.078 HD
ENDROOT
BRANCH   1   3
ATOM      3  C   UNL     1      32.604 -12.609 -22.806  0.00  0.00    +0.011 C 
BRANCH   3   6
ATOM      4  O   UNL     1      33.820 -10.799 -23.812  0.00  0.00    -0.277 OA
ATOM      5  N   UNL     1      31.967 -10.233 -22.539  0.00  0.00    -0.282 N 
ATOM      6  C   UNL     1      32.867 -11.144 -23.108  0.00  0.00    +0.205 C 
ATOM      7  C   UNL     1      30.843 -10.658 -21.708  0.00  0.00    +0.115 C 
BRANCH   5   8
ATOM      8  C   UNL     1      32.084  -8.793 -22.735  0.00  0.00    +0.064 C 
ATOM      9  C   UNL     1      33.512  -8.494 -23.221  0.00  0.00    +0.020 C 
ATOM     10  C   UNL     1      31.865  -8.081 -21.391  0.00  0.00    +0.020 C 
BRANCH   8  11
ATOM     11  C   UNL     1      31.084  -8.305 -23.816  0.00  0.00    +0.045 C 
BRANCH  11  12
ATOM     12  C   UNL     1      31.095  -6.820 -24.104  0.00  0.00    -0.021 C 
ATOM     13  C   UNL     1      31.712  -6.338 -25.259  0.00  0.00    -0.004 C 
ATOM     14  C   UNL     1      30.488  -5.933 -23.215  0.00  0.00    -0.004 C 
ATOM     15  C   UNL     1      31.722  -4.968 -25.525  0.00  0.00    -0.000 C 
ATOM     16  C   UNL     1      30.498  -4.563 -23.482  0.00  0.00    -0.000 C 
ATOM     17  C   UNL     1      31.114  -4.082 -24.636  0.00  0.00    -0.000 C 
ENDBRANCH  11  12
ENDBRANCH   8  11
ENDBRANCH   5   8
ENDBRANCH   3   6
ENDBRANCH   1   3
BRANCH   1  18
ATOM     18  C   UNL     1      34.258 -14.341 -22.992  0.00  0.00    +0.011 C 
BRANCH  18  21
ATOM     19  O   UNL     1      34.310 -15.495 -20.886  0.00  0.00    -0.277 OA
ATOM     20  N   UNL     1      34.278 -16.808 -22.797  0.00  0.00    -0.282 N 
ATOM     21  C   UNL     1      34.284 -15.583 -22.117  0.00  0.00    +0.205 C 
ATOM     22  C   UNL     1      33.635 -16.978 -24.097  0.00  0.00    +0.115 C 
BRANCH  20  23
ATOM     23  C   UNL     1      34.914 -18.004 -22.257  0.00  0.00    +0.064 C 
ATOM     24  C   UNL     1      34.427 -19.232 -23.041  0.00  0.00    +0.020 C 
ATOM     25  C   UNL     1      36.433 -17.867 -22.454  0.00  0.00    +0.020 C 
BRANCH  23  26
ATOM     26  C   UNL     1      34.626 -18.138 -20.738  0.00  0.00    +0.045 C 
BRANCH  26  27
ATOM     27  C   UNL     1      34.330 -19.536 -20.242  0.00  0.00    -0.021 C 
ATOM     28  C   UNL     1      35.378 -20.389 -19.898  0.00  0.00    -0.004 C 
ATOM     29  C   UNL     1      33.009 -19.971 -20.127  0.00  0.00    -0.004 C 
ATOM     30  C   UNL     1      35.106 -21.678 -19.439  0.00  0.00    -0.000 C 
ATOM     31  C   UNL     1      32.737 -21.260 -19.669  0.00  0.00    -0.000 C 
ATOM     32  C   UNL     1      33.785 -22.113 -19.325  0.00  0.00    -0.000 C 
ENDBRANCH  26  27
ENDBRANCH  23  26
ENDBRANCH  20  23
ENDBRANCH  18  21
ENDBRANCH   1  18
BRANCH   1  33
ATOM     33  C   UNL     1      33.519 -13.614 -20.824  0.00  0.00    -0.044 C 
BRANCH  33  34
ATOM     34  C   UNL     1      32.058 -13.381 -20.474  0.00  0.00    +0.115 C 
BRANCH  34  35
ATOM     35  O   UNL     1      31.647 -14.374 -19.543  0.00  0.00    -0.384 OA
ATOM     36  H   UNL     1      31.503 -13.963 -18.675  0.00  0.00    +0.210 HD
ENDBRANCH  34  35
ENDBRANCH  33  34
ENDBRANCH   1  33
TORSDOF 13
ENDMDL
MODEL 5
REMARK VINA RESULT:      -9.0      1.188     10.814
REMARK  Name = 4621
REMARK  13 active torsions:
REMARK  status: ('A' for Active; 'I' for Inactive)
REMARK    1  A    between atoms: N_1  and  C_3
REMARK    2  A    between atoms: N_1  and  C_18
REMARK    3  A    between atoms: N_1  and  C_33
REMARK    4  A    between atoms: C_3  and  C_6
REMARK    5  A    between atoms: N_5  and  C_8
REMARK    6  A    between atoms: C_8  and  C_11
REMARK    7  A    between atoms: C_11  and  C_12
REMARK    8  A    between atoms: C_18  and  C_21
REMARK    9  A    between atoms: N_20  and  C_23
REMARK   10  A    between atoms: C_23  and  C_26
REMARK   11  A    between atoms: C_26  and  C_27
REMARK   12  A    between atoms: C_33  and  C_34
REMARK   13  A    between atoms: C_34  and  O_35
REMARK                            x       y       z     vdW  Elec       q    Type
REMARK                         _______ _______ _______ _____ _____    ______ ____
ROOT
ATOM      1  N   UNL     1      33.754 -13.345 -22.692  0.00  0.00    +0.400 N 
ATOM      2  H   UNL     1      34.698 -13.303 -22.311  0.00  0.00    -0.078 HD
ENDROOT
BRANCH   1   3
ATOM      3  C   UNL     1      33.577 -14.645 -23.330  0.00  0.00    +0.011 C 
BRANCH   3   6
ATOM      4  O   UNL     1      34.569 -15.471 -21.305  0.00  0.00    -0.277 OA
ATOM      5  N   UNL     1      34.251 -17.005 -23.014  0.00  0.00    -0.282 N 
ATOM      6  C   UNL     1      34.177 -15.726 -22.446  0.00  0.00    +0.205 C 
ATOM      7  C   UNL     1      33.782 -17.289 -24.367  0.00  0.00    +0.115 C 
BRANCH   5   8
ATOM      8  C   UNL     1      34.801 -18.147 -22.295  0.00  0.00    +0.064 C 
ATOM      9  C   UNL     1      36.325 -17.960 -22.198  0.00  0.00    +0.020 C 
ATOM     10  C   UNL     1      34.515 -19.430 -23.090  0.00  0.00    +0.020 C 
BRANCH   8  11
ATOM     11  C   UNL     1      34.223 -18.219 -20.857  0.00  0.00    +0.045 C 
BRANCH  11  12
ATOM     12  C   UNL     1      34.128 -19.602 -20.251  0.00  0.00    -0.021 C 
ATOM     13  C   UNL     1      32.878 -20.180 -20.025  0.00  0.00    -0.004 C 
ATOM     14  C   UNL     1      35.288 -20.298 -19.918  0.00  0.00    -0.004 C 
ATOM     15  C   UNL     1      32.790 -21.455 -19.466  0.00  0.00    -0.000 C 
ATOM     16  C   UNL     1      35.200 -21.575 -19.360  0.00  0.00    -0.000 C 
ATOM     17  C   UNL     1      33.951 -22.152 -19.134  0.00  0.00    -0.000 C 
ENDBRANCH  11  12
ENDBRANCH   8  11
ENDBRANCH   5   8
ENDBRANCH   3   6
ENDBRANCH   1   3
BRANCH   1  18
ATOM     18  C   UNL     1      32.799 -13.176 -21.596  0.00  0.00    +0.011 C 
BRANCH  18  21
ATOM     19  O   UNL     1      31.055 -12.297 -22.993  0.00  0.00    -0.277 OA
ATOM     20  N   UNL     1      31.654 -11.029 -21.147  0.00  0.00    -0.282 N 
ATOM     21  C   UNL     1      31.756 -12.143 -21.989  0.00  0.00    +0.205 C 
ATOM     22  C   UNL     1      31.950 -11.097 -19.719  0.00  0.00    +0.115 C 
BRANCH  20  23
ATOM     23  C   UNL     1      31.243  -9.717 -21.634  0.00  0.00    +0.064 C 
ATOM     24  C   UNL     1      29.744  -9.750 -21.971  0.00  0.00    +0.020 C 
ATOM     25  C   UNL     1      31.469  -8.697 -20.506  0.00  0.00    +0.020 C 
BRANCH  23  26
ATOM     26  C   UNL     1      32.099  -9.295 -22.858  0.00  0.00    +0.045 C 
BRANCH  26  27
ATOM     27  C   UNL     1      32.333  -7.809 -23.021  0.00  0.00    -0.021 C 
ATOM     28  C   UNL     1      31.276  -6.973 -23.378  0.00  0.00    -0.004 C 
ATOM     29  C   UNL     1      33.605  -7.277 -22.812  0.00  0.00    -0.004 C 
ATOM     30  C   UNL     1      31.491  -5.603 -23.528  0.00  0.00    -0.000 C 
ATOM     31  C   UNL     1      33.820  -5.907 -22.962  0.00  0.00    -0.000 C 
ATOM     32  C   UNL     1      32.763  -5.070 -23.319  0.00  0.00    -0.000 C 
ENDBRANCH  26  27
ENDBRANCH  23  26
ENDBRANCH  20  23
ENDBRANCH  18  21
ENDBRANCH   1  18
BRANCH   1  33
ATOM     33  C   UNL     1      33.599 -12.266 -23.671  0.00  0.00    -0.044 C 
BRANCH  33  34
ATOM     34  C   UNL     1      33.559 -12.825 -25.084  0.00  0.00    +0.115 C 
BRANCH  34  35
ATOM     35  O   UNL     1      32.292 -12.528 -25.656  0.00  0.00    -0.384 OA
ATOM     36  H   UNL     1      32.078 -11.594 -25.500  0.00  0.00    +0.210 HD
ENDBRANCH  34  35
ENDBRANCH  33  34
ENDBRANCH   1  33
TORSDOF 13
ENDMDL
MODEL 6
REMARK VINA RESULT:      -8.9      1.382     11.343
REMARK  Name = 4621
REMARK  13 active torsions:
REMARK  status: ('A' for Active; 'I' for Inactive)
REMARK    1  A    between atoms: N_1  and  C_3
REMARK    2  A    between atoms: N_1  and  C_18
REMARK    3  A    between atoms: N_1  and  C_33
REMARK    4  A    between atoms: C_3  and  C_6
REMARK    5  A    between atoms: N_5  and  C_8
REMARK    6  A    between atoms: C_8  and  C_11
REMARK    7  A    between atoms: C_11  and  C_12
REMARK    8  A    between atoms: C_18  and  C_21
REMARK    9  A    between atoms: N_20  and  C_23
REMARK   10  A    between atoms: C_23  and  C_26
REMARK   11  A    between atoms: C_26  and  C_27
REMARK   12  A    between atoms: C_33  and  C_34
REMARK   13  A    between atoms: C_34  and  O_35
REMARK                            x       y       z     vdW  Elec       q    Type
REMARK                         _______ _______ _______ _____ _____    ______ ____
ROOT
ATOM      1  N   UNL     1      33.036 -13.595 -22.540  0.00  0.00    +0.400 N 
ATOM      2  H   UNL     1      32.324 -14.137 -22.052  0.00  0.00    -0.078 HD
ENDROOT
BRANCH   1   3
ATOM      3  C   UNL     1      33.832 -14.510 -23.349  0.00  0.00    +0.011 C 
BRANCH   3   6
ATOM      4  O   UNL     1      34.644 -15.511 -21.322  0.00  0.00    -0.277 OA
ATOM      5  N   UNL     1      34.264 -16.935 -23.112  0.00  0.00    -0.282 N 
ATOM      6  C   UNL     1      34.284 -15.680 -22.491  0.00  0.00    +0.205 C 
ATOM      7  C   UNL     1      33.835 -17.117 -24.496  0.00  0.00    +0.115 C 
BRANCH   5   8
ATOM      8  C   UNL     1      34.669 -18.155 -22.422  0.00  0.00    +0.064 C 
ATOM      9  C   UNL     1      36.202 -18.137 -22.286  0.00  0.00    +0.020 C 
ATOM     10  C   UNL     1      34.267 -19.372 -23.269  0.00  0.00    +0.020 C 
BRANCH   8  11
ATOM     11  C   UNL     1      34.050 -18.211 -21.001  0.00  0.00    +0.045 C 
BRANCH  11  12
ATOM     12  C   UNL     1      33.998 -19.578 -20.356  0.00  0.00    -0.021 C 
ATOM     13  C   UNL     1      35.182 -20.247 -20.042  0.00  0.00    -0.004 C 
ATOM     14  C   UNL     1      32.767 -20.169 -20.075  0.00  0.00    -0.004 C 
ATOM     15  C   UNL     1      35.134 -21.507 -19.447  0.00  0.00    -0.000 C 
ATOM     16  C   UNL     1      32.720 -21.430 -19.478  0.00  0.00    -0.000 C 
ATOM     17  C   UNL     1      33.903 -22.098 -19.165  0.00  0.00    -0.000 C 
ENDBRANCH  11  12
ENDBRANCH   8  11
ENDBRANCH   5   8
ENDBRANCH   3   6
ENDBRANCH   1   3
BRANCH   1  18
ATOM     18  C   UNL     1      32.369 -12.605 -23.387  0.00  0.00    +0.011 C 
BRANCH  18  21
ATOM     19  O   UNL     1      31.152 -11.627 -21.562  0.00  0.00    -0.277 OA
ATOM     20  N   UNL     1      32.355 -10.176 -22.913  0.00  0.00    -0.282 N 
ATOM     21  C   UNL     1      31.896 -11.443 -22.530  0.00  0.00    +0.205 C 
ATOM     22  C   UNL     1      33.644  -9.977 -23.571  0.00  0.00    +0.115 C 
BRANCH  20  23
ATOM     23  C   UNL     1      31.581  -8.963 -22.682  0.00  0.00    +0.064 C 
ATOM     24  C   UNL     1      30.169  -9.345 -22.213  0.00  0.00    +0.020 C 
ATOM     25  C   UNL     1      32.270  -8.163 -21.563  0.00  0.00    +0.020 C 
BRANCH  23  26
ATOM     26  C   UNL     1      31.545  -8.086 -23.962  0.00  0.00    +0.045 C 
BRANCH  26  27
ATOM     27  C   UNL     1      31.602  -6.590 -23.741  0.00  0.00    -0.021 C 
ATOM     28  C   UNL     1      32.797  -5.901 -23.949  0.00  0.00    -0.004 C 
ATOM     29  C   UNL     1      30.461  -5.902 -23.331  0.00  0.00    -0.004 C 
ATOM     30  C   UNL     1      32.850  -4.522 -23.746  0.00  0.00    -0.000 C 
ATOM     31  C   UNL     1      30.514  -4.523 -23.129  0.00  0.00    -0.000 C 
ATOM     32  C   UNL     1      31.708  -3.833 -23.336  0.00  0.00    -0.000 C 
ENDBRANCH  26  27
ENDBRANCH  23  26
ENDBRANCH  20  23
ENDBRANCH  18  21
ENDBRANCH   1  18
BRANCH   1  33
ATOM     33  C   UNL     1      33.876 -12.926 -21.543  0.00  0.00    -0.044 C 
BRANCH  33  34
ATOM     34  C   UNL     1      33.538 -13.413 -20.143  0.00  0.00    +0.115 C 
BRANCH  34  35
ATOM     35  O   UNL     1      32.215 -13.933 -20.148  0.00  0.00    -0.384 OA
ATOM     36  H   UNL     1      31.876 -13.963 -19.238  0.00  0.00    +0.210 HD
ENDBRANCH  34  35
ENDBRANCH  33  34
ENDBRANCH   1  33
TORSDOF 13
ENDMDL
MODEL 7
REMARK VINA RESULT:      -8.8      2.346      4.864
REMARK  Name = 4621
REMARK  13 active torsions:
REMARK  status: ('A' for Active; 'I' for Inactive)
REMARK    1  A    between atoms: N_1  and  C_3
REMARK    2  A    between atoms: N_1  and  C_18
REMARK    3  A    between atoms: N_1  and  C_33
REMARK    4  A    between atoms: C_3  and  C_6
REMARK    5  A    between atoms: N_5  and  C_8
REMARK    6  A    between atoms: C_8  and  C_11
REMARK    7  A    between atoms: C_11  and  C_12
REMARK    8  A    between atoms: C_18  and  C_21
REMARK    9  A    between atoms: N_20  and  C_23
REMARK   10  A    between atoms: C_23  and  C_26
REMARK   11  A    between atoms: C_26  and  C_27
REMARK   12  A    between atoms: C_33  and  C_34
REMARK   13  A    between atoms: C_34  and  O_35
REMARK                            x       y       z     vdW  Elec       q    Type
REMARK                         _______ _______ _______ _____ _____    ______ ____
ROOT
ATOM      1  N   UNL     1      31.585 -10.065 -21.612  0.00  0.00    +0.400 N 
ATOM      2  H   UNL     1      32.470 -10.311 -21.169  0.00  0.00    -0.078 HD
ENDROOT
BRANCH   1   3
ATOM      3  C   UNL     1      31.864  -9.142 -22.706  0.00  0.00    +0.011 C 
BRANCH   3   6
ATOM      4  O   UNL     1      33.068  -7.537 -21.386  0.00  0.00    -0.277 OA
ATOM      5  N   UNL     1      31.210  -6.762 -22.536  0.00  0.00    -0.282 N 
ATOM      6  C   UNL     1      32.118  -7.754 -22.143  0.00  0.00    +0.205 C 
ATOM      7  C   UNL     1      30.090  -7.036 -23.432  0.00  0.00    +0.115 C 
BRANCH   5   8
ATOM      8  C   UNL     1      31.318  -5.381 -22.081  0.00  0.00    +0.064 C 
ATOM      9  C   UNL     1      31.387  -5.390 -20.544  0.00  0.00    +0.020 C 
ATOM     10  C   UNL     1      30.061  -4.608 -22.510  0.00  0.00    +0.020 C 
BRANCH   8  11
ATOM     11  C   UNL     1      32.612  -4.723 -22.627  0.00  0.00    +0.045 C 
BRANCH  11  12
ATOM     12  C   UNL     1      32.884  -4.922 -24.102  0.00  0.00    -0.021 C 
ATOM     13  C   UNL     1      33.945  -5.728 -24.514  0.00  0.00    -0.004 C 
ATOM     14  C   UNL     1      32.073  -4.298 -25.049  0.00  0.00    -0.004 C 
ATOM     15  C   UNL     1      34.195  -5.911 -25.874  0.00  0.00    -0.000 C 
ATOM     16  C   UNL     1      32.323  -4.482 -26.410  0.00  0.00    -0.000 C 
ATOM     17  C   UNL     1      33.383  -5.289 -26.821  0.00  0.00    -0.000 C 
ENDBRANCH  11  12
ENDBRANCH   8  11
ENDBRANCH   5   8
ENDBRANCH   3   6
ENDBRANCH   1   3
BRANCH   1  18
ATOM     18  C   UNL     1      30.960 -11.289 -22.118  0.00  0.00    +0.011 C 
BRANCH  18  21
ATOM     19  O   UNL     1      31.299 -12.832 -20.309  0.00  0.00    -0.277 OA
ATOM     20  N   UNL     1      32.552 -13.180 -22.229  0.00  0.00    -0.282 N 
ATOM     21  C   UNL     1      31.605 -12.495 -21.457  0.00  0.00    +0.205 C 
ATOM     22  C   UNL     1      32.480 -13.237 -23.686  0.00  0.00    +0.115 C 
BRANCH  20  23
ATOM     23  C   UNL     1      33.679 -13.888 -21.635  0.00  0.00    +0.064 C 
ATOM     24  C   UNL     1      34.563 -12.886 -20.877  0.00  0.00    +0.020 C 
ATOM     25  C   UNL     1      33.124 -14.911 -20.630  0.00  0.00    +0.020 C 
BRANCH  23  26
ATOM     26  C   UNL     1      34.479 -14.653 -22.723  0.00  0.00    +0.045 C 
BRANCH  26  27
ATOM     27  C   UNL     1      34.428 -16.163 -22.643  0.00  0.00    -0.021 C 
ATOM     28  C   UNL     1      33.865 -16.897 -23.687  0.00  0.00    -0.004 C 
ATOM     29  C   UNL     1      34.944 -16.820 -21.526  0.00  0.00    -0.004 C 
ATOM     30  C   UNL     1      33.818 -18.289 -23.614  0.00  0.00    -0.000 C 
ATOM     31  C   UNL     1      34.897 -18.212 -21.453  0.00  0.00    -0.000 C 
ATOM     32  C   UNL     1      34.334 -18.946 -22.497  0.00  0.00    -0.000 C 
ENDBRANCH  26  27
ENDBRANCH  23  26
ENDBRANCH  20  23
ENDBRANCH  18  21
ENDBRANCH   1  18
BRANCH   1  33
ATOM     33  C   UNL     1      30.724  -9.432 -20.611  0.00  0.00    -0.044 C 
BRANCH  33  34
ATOM     34  C   UNL     1      31.266  -9.668 -19.210  0.00  0.00    +0.115 C 
BRANCH  34  35
ATOM     35  O   UNL     1      31.948  -8.497 -18.782  0.00  0.00    -0.384 OA
ATOM     36  H   UNL     1      31.519  -7.714 -19.165  0.00  0.00    +0.210 HD
ENDBRANCH  34  35
ENDBRANCH  33  34
ENDBRANCH   1  33
TORSDOF 13
ENDMDL
MODEL 8
REMARK VINA RESULT:      -8.7      3.643      6.960
REMARK  Name = 4621
REMARK  13 active torsions:
REMARK  status: ('A' for Active; 'I' for Inactive)
REMARK    1  A    between atoms: N_1  and  C_3
REMARK    2  A    between atoms: N_1  and  C_18
REMARK    3  A    between atoms: N_1  and  C_33
REMARK    4  A    between atoms: C_3  and  C_6
REMARK    5  A    between atoms: N_5  and  C_8
REMARK    6  A    between atoms: C_8  and  C_11
REMARK    7  A    between atoms: C_11  and  C_12
REMARK    8  A    between atoms: C_18  and  C_21
REMARK    9  A    between atoms: N_20  and  C_23
REMARK   10  A    between atoms: C_23  and  C_26
REMARK   11  A    between atoms: C_26  and  C_27
REMARK   12  A    between atoms: C_33  and  C_34
REMARK   13  A    between atoms: C_34  and  O_35
REMARK                            x       y       z     vdW  Elec       q    Type
REMARK                         _______ _______ _______ _____ _____    ______ ____
ROOT
ATOM      1  N   UNL     1      31.797  -7.468 -22.283  0.00  0.00    +0.400 N 
ATOM      2  H   UNL     1      32.337  -7.635 -23.132  0.00  0.00    -0.078 HD
ENDROOT
BRANCH   1   3
ATOM      3  C   UNL     1      30.892  -6.352 -22.530  0.00  0.00    +0.011 C 
BRANCH   3   6
ATOM      4  O   UNL     1      32.080  -4.283 -22.813  0.00  0.00    -0.277 OA
ATOM      5  N   UNL     1      31.697  -5.538 -24.725  0.00  0.00    -0.282 N 
ATOM      6  C   UNL     1      31.611  -5.292 -23.348  0.00  0.00    +0.205 C 
ATOM      7  C   UNL     1      31.136  -6.737 -25.342  0.00  0.00    +0.115 C 
BRANCH   5   8
ATOM      8  C   UNL     1      32.354  -4.617 -25.644  0.00  0.00    +0.064 C 
ATOM      9  C   UNL     1      31.454  -3.379 -25.802  0.00  0.00    +0.020 C 
ATOM     10  C   UNL     1      32.504  -5.292 -27.015  0.00  0.00    +0.020 C 
BRANCH   8  11
ATOM     11  C   UNL     1      33.722  -4.159 -25.074  0.00  0.00    +0.045 C 
BRANCH  11  12
ATOM     12  C   UNL     1      34.741  -3.697 -26.092  0.00  0.00    -0.021 C 
ATOM     13  C   UNL     1      35.706  -4.586 -26.567  0.00  0.00    -0.004 C 
ATOM     14  C   UNL     1      34.716  -2.382 -26.556  0.00  0.00    -0.004 C 
ATOM     15  C   UNL     1      36.645  -4.160 -27.506  0.00  0.00    -0.000 C 
ATOM     16  C   UNL     1      35.656  -1.957 -27.497  0.00  0.00    -0.000 C 
ATOM     17  C   UNL     1      36.619  -2.846 -27.971  0.00  0.00    -0.000 C 
ENDBRANCH  11  12
ENDBRANCH   8  11
ENDBRANCH   5   8
ENDBRANCH   3   6
ENDBRANCH   1   3
BRANCH   1  18
ATOM     18  C   UNL     1      31.043  -8.681 -21.963  0.00  0.00    +0.011 C 
BRANCH  18  21
ATOM     19  O   UNL     1      32.649  -9.994 -23.173  0.00  0.00    -0.277 OA
ATOM     20  N   UNL     1      31.868 -10.878 -21.177  0.00  0.00    -0.282 N 
ATOM     21  C   UNL     1      31.929  -9.897 -22.175  0.00  0.00    +0.205 C 
ATOM     22  C   UNL     1      31.578 -10.558 -19.782  0.00  0.00    +0.115 C 
BRANCH  20  23
ATOM     23  C   UNL     1      32.089 -12.291 -21.456  0.00  0.00    +0.064 C 
ATOM     24  C   UNL     1      31.552 -13.128 -20.285  0.00  0.00    +0.020 C 
ATOM     25  C   UNL     1      31.297 -12.657 -22.723  0.00  0.00    +0.020 C 
BRANCH  23  26
ATOM     26  C   UNL     1      33.593 -12.568 -21.720  0.00  0.00    +0.045 C 
BRANCH  26  27
ATOM     27  C   UNL     1      33.952 -13.997 -22.064  0.00  0.00    -0.021 C 
ATOM     28  C   UNL     1      34.134 -14.933 -21.047  0.00  0.00    -0.004 C 
ATOM     29  C   UNL     1      34.101 -14.377 -23.398  0.00  0.00    -0.004 C 
ATOM     30  C   UNL     1      34.465 -16.251 -21.364  0.00  0.00    -0.000 C 
ATOM     31  C   UNL     1      34.431 -15.694 -23.715  0.00  0.00    -0.000 C 
ATOM     32  C   UNL     1      34.613 -16.631 -22.697  0.00  0.00    -0.000 C 
ENDBRANCH  26  27
ENDBRANCH  23  26
ENDBRANCH  20  23
ENDBRANCH  18  21
ENDBRANCH   1  18
BRANCH   1  33
ATOM     33  C   UNL     1      32.726  -7.147 -21.197  0.00  0.00    -0.044 C 
BRANCH  33  34
ATOM     34  C   UNL     1      31.974  -6.921 -19.896  0.00  0.00    +0.115 C 
BRANCH  34  35
ATOM     35  O   UNL     1      32.745  -6.063 -19.066  0.00  0.00    -0.384 OA
ATOM     36  H   UNL     1      32.151  -5.512 -18.530  0.00  0.00    +0.210 HD
ENDBRANCH  34  35
ENDBRANCH  33  34
ENDBRANCH   1  33
TORSDOF 13
ENDMDL
MODEL 9
REMARK VINA RESULT:      -8.7      3.414     11.735
REMARK  Name = 4621
REMARK  13 active torsions:
REMARK  status: ('A' for Active; 'I' for Inactive)
REMARK    1  A    between atoms: N_1  and  C_3
REMARK    2  A    between atoms: N_1  and  C_18
REMARK    3  A    between atoms: N_1  and  C_33
REMARK    4  A    between atoms: C_3  and  C_6
REMARK    5  A    between atoms: N_5  and  C_8
REMARK    6  A    between atoms: C_8  and  C_11
REMARK    7  A    between atoms: C_11  and  C_12
REMARK    8  A    between atoms: C_18  and  C_21
REMARK    9  A    between atoms: N_20  and  C_23
REMARK   10  A    between atoms: C_23  and  C_26
REMARK   11  A    between atoms: C_26  and  C_27
REMARK   12  A    between atoms: C_33  and  C_34
REMARK   13  A    between atoms: C_34  and  O_35
REMARK                            x       y       z     vdW  Elec       q    Type
REMARK                         _______ _______ _______ _____ _____    ______ ____
ROOT
ATOM      1  N   UNL     1      30.945  -7.665 -21.941  0.00  0.00    +0.400 N 
ATOM      2  H   UNL     1      30.231  -8.026 -21.308  0.00  0.00    -0.078 HD
ENDROOT
BRANCH   1   3
ATOM      3  C   UNL     1      31.252  -8.701 -22.920  0.00  0.00    +0.011 C 
BRANCH   3   6
ATOM      4  O   UNL     1      30.290 -10.374 -21.490  0.00  0.00    -0.277 OA
ATOM      5  N   UNL     1      32.291 -10.913 -22.531  0.00  0.00    -0.282 N 
ATOM      6  C   UNL     1      31.216 -10.061 -22.243  0.00  0.00    +0.205 C 
ATOM      7  C   UNL     1      33.379 -10.527 -23.424  0.00  0.00    +0.115 C 
BRANCH   5   8
ATOM      8  C   UNL     1      32.401 -12.250 -21.960  0.00  0.00    +0.064 C 
ATOM      9  C   UNL     1      31.586 -13.213 -22.841  0.00  0.00    +0.020 C 
ATOM     10  C   UNL     1      31.796 -12.249 -20.548  0.00  0.00    +0.020 C 
BRANCH   8  11
ATOM     11  C   UNL     1      33.879 -12.722 -21.953  0.00  0.00    +0.045 C 
BRANCH  11  12
ATOM     12  C   UNL     1      34.097 -14.213 -22.087  0.00  0.00    -0.021 C 
ATOM     13  C   UNL     1      34.268 -14.782 -23.350  0.00  0.00    -0.004 C 
ATOM     14  C   UNL     1      34.130 -15.018 -20.949  0.00  0.00    -0.004 C 
ATOM     15  C   UNL     1      34.470 -16.157 -23.474  0.00  0.00    -0.000 C 
ATOM     16  C   UNL     1      34.333 -16.393 -21.073  0.00  0.00    -0.000 C 
ATOM     17  C   UNL     1      34.503 -16.961 -22.335  0.00  0.00    -0.000 C 
ENDBRANCH  11  12
ENDBRANCH   8  11
ENDBRANCH   5   8
ENDBRANCH   3   6
ENDBRANCH   1   3
BRANCH   1  18
ATOM     18  C   UNL     1      30.420  -6.470 -22.603  0.00  0.00    +0.011 C 
BRANCH  18  21
ATOM     19  O   UNL     1      30.685  -6.940 -24.943  0.00  0.00    -0.277 OA
ATOM     20  N   UNL     1      32.164  -5.419 -24.010  0.00  0.00    -0.282 N 
ATOM     21  C   UNL     1      31.086  -6.311 -23.960  0.00  0.00    +0.205 C 
ATOM     22  C   UNL     1      32.257  -4.254 -23.134  0.00  0.00    +0.115 C 
BRANCH  20  23
ATOM     23  C   UNL     1      33.274  -5.587 -24.940  0.00  0.00    +0.064 C 
ATOM     24  C   UNL     1      34.240  -4.401 -24.792  0.00  0.00    +0.020 C 
ATOM     25  C   UNL     1      34.021  -6.877 -24.564  0.00  0.00    +0.020 C 
BRANCH  23  26
ATOM     26  C   UNL     1      32.752  -5.727 -26.394  0.00  0.00    +0.045 C 
BRANCH  26  27
ATOM     27  C   UNL     1      32.662  -4.444 -27.191  0.00  0.00    -0.021 C 
ATOM     28  C   UNL     1      31.835  -3.409 -26.755  0.00  0.00    -0.004 C 
ATOM     29  C   UNL     1      33.407  -4.296 -28.362  0.00  0.00    -0.004 C 
ATOM     30  C   UNL     1      31.753  -2.225 -27.489  0.00  0.00    -0.000 C 
ATOM     31  C   UNL     1      33.324  -3.113 -29.096  0.00  0.00    -0.000 C 
ATOM     32  C   UNL     1      32.497  -2.078 -28.659  0.00  0.00    -0.000 C 
ENDBRANCH  26  27
ENDBRANCH  23  26
ENDBRANCH  20  23
ENDBRANCH  18  21
ENDBRANCH   1  18
BRANCH   1  33
ATOM     33  C   UNL     1      32.135  -7.328 -21.156  0.00  0.00    -0.044 C 
BRANCH  33  34
ATOM     34  C   UNL     1      31.798  -6.308 -20.081  0.00  0.00    +0.115 C 
BRANCH  34  35
ATOM     35  O   UNL     1      32.877  -6.247 -19.156  0.00  0.00    -0.384 OA
ATOM     36  H   UNL     1      32.788  -5.449 -18.609  0.00  0.00    +0.210 HD
ENDBRANCH  34  35
ENDBRANCH  33  34
ENDBRANCH   1  33
TORSDOF 13
ENDMDL
