MODEL 1
REMARK VINA RESULT:     -11.4      0.000      0.000
REMARK  Name = 510684
REMARK  10 active torsions:
REMARK  status: ('A' for Active; 'I' for Inactive)
REMARK    1  A    between atoms: N_1  and  C_2
REMARK    2  A    between atoms: N_1  and  C_17
REMARK    3  A    between atoms: N_1  and  C_24
REMARK    4  A    between atoms: C_5  and  C_9
REMARK    5  A    between atoms: C_9  and  C_10
REMARK    6  A    between atoms: C_10  and  C_12
REMARK    7  A    between atoms: C_12  and  C_14
REMARK    8  A    between atoms: C_14  and  O_15
REMARK    9  A    between atoms: C_17  and  C_18
REMARK   10  A    between atoms: C_24  and  C_25
REMARK                            x       y       z     vdW  Elec       q    Type
REMARK                         _______ _______ _______ _____ _____    ______ ____
ROOT
ATOM      1  N   UNL     1      33.871 -22.778 -16.083  0.00  0.00    -0.300 N 
ENDROOT
BRANCH   1   2
ATOM      2  C   UNL     1      35.207 -23.011 -15.694  0.00  0.00    +0.048 C 
ATOM      3  C   UNL     1      35.529 -24.147 -14.952  0.00  0.00    +0.017 C 
ATOM      4  C   UNL     1      36.205 -22.105 -16.052  0.00  0.00    +0.015 C 
ATOM      5  C   UNL     1      36.850 -24.378 -14.568  0.00  0.00    +0.036 C 
ATOM      6  C   UNL     1      37.526 -22.336 -15.668  0.00  0.00    +0.001 C 
ATOM      7  C   UNL     1      37.849 -23.472 -14.926  0.00  0.00    +0.003 C 
BRANCH   5   9
ATOM      8  O   UNL     1      37.905 -26.456 -14.287  0.00  0.00    -0.291 OA
ATOM      9  C   UNL     1      37.187 -25.564 -13.796  0.00  0.00    +0.181 C 
BRANCH   9  10
ATOM     10  C   UNL     1      36.673 -25.708 -12.356  0.00  0.00    +0.145 C 
BRANCH  10  12
ATOM     11  O   UNL     1      37.600 -23.716 -11.292  0.00  0.00    -0.284 OA
ATOM     12  C   UNL     1      36.653 -24.457 -11.511  0.00  0.00    +0.255 C 
BRANCH  12  14
ATOM     13  O   UNL     1      34.950 -24.680  -9.862  0.00  0.00    -0.242 OA
ATOM     14  C   UNL     1      35.347 -24.108 -10.856  0.00  0.00    +0.374 C 
BRANCH  14  15
ATOM     15  O   UNL     1      34.722 -23.156 -11.562  0.00  0.00    -0.475 OA
ATOM     16  H   UNL     1      33.789 -23.175 -11.650  0.00  0.00    +0.295 HD
ENDBRANCH  14  15
ENDBRANCH  12  14
ENDBRANCH  10  12
ENDBRANCH   9  10
ENDBRANCH   5   9
ENDBRANCH   1   2
BRANCH   1  17
ATOM     17  C   UNL     1      33.401 -23.210 -17.385  0.00  0.00    +0.118 C 
BRANCH  17  18
ATOM     18  C   UNL     1      33.473 -22.078 -18.372  0.00  0.00    -0.002 C 
ATOM     19  C   UNL     1      32.312 -21.403 -18.727  0.00  0.00    -0.003 C 
ATOM     20  C   UNL     1      34.700 -21.722 -18.919  0.00  0.00    -0.003 C 
ATOM     21  C   UNL     1      32.379 -20.352 -19.643  0.00  0.00    -0.000 C 
ATOM     22  C   UNL     1      34.766 -20.671 -19.835  0.00  0.00    -0.000 C 
ATOM     23  C   UNL     1      33.606 -19.987 -20.196  0.00  0.00    -0.000 C 
ENDBRANCH  17  18
ENDBRANCH   1  17
BRANCH   1  24
ATOM     24  C   UNL     1      32.949 -22.117 -15.183  0.00  0.00    +0.118 C 
BRANCH  24  25
ATOM     25  C   UNL     1      31.824 -23.040 -14.805  0.00  0.00    -0.002 C 
ATOM     26  C   UNL     1      30.610 -22.949 -15.476  0.00  0.00    -0.003 C 
ATOM     27  C   UNL     1      32.012 -23.972 -13.794  0.00  0.00    -0.003 C 
ATOM     28  C   UNL     1      29.566 -23.806 -15.125  0.00  0.00    -0.000 C 
ATOM     29  C   UNL     1      30.967 -24.828 -13.445  0.00  0.00    -0.000 C 
ATOM     30  C   UNL     1      29.745 -24.746 -14.110  0.00  0.00    -0.000 C 
ENDBRANCH  24  25
ENDBRANCH   1  24
TORSDOF 10
ENDMDL
MODEL 2
REMARK VINA RESULT:     -11.4      0.017      4.275
REMARK  Name = 510684
REMARK  10 active torsions:
REMARK  status: ('A' for Active; 'I' for Inactive)
REMARK    1  A    between atoms: N_1  and  C_2
REMARK    2  A    between atoms: N_1  and  C_17
REMARK    3  A    between atoms: N_1  and  C_24
REMARK    4  A    between atoms: C_5  and  C_9
REMARK    5  A    between atoms: C_9  and  C_10
REMARK    6  A    between atoms: C_10  and  C_12
REMARK    7  A    between atoms: C_12  and  C_14
REMARK    8  A    between atoms: C_14  and  O_15
REMARK    9  A    between atoms: C_17  and  C_18
REMARK   10  A    between atoms: C_24  and  C_25
REMARK                            x       y       z     vdW  Elec       q    Type
REMARK                         _______ _______ _______ _____ _____    ______ ____
ROOT
ATOM      1  N   UNL     1      33.862 -22.791 -16.090  0.00  0.00    -0.300 N 
ENDROOT
BRANCH   1   2
ATOM      2  C   UNL     1      35.200 -23.013 -15.700  0.00  0.00    +0.048 C 
ATOM      3  C   UNL     1      35.529 -24.145 -14.954  0.00  0.00    +0.017 C 
ATOM      4  C   UNL     1      36.192 -22.102 -16.060  0.00  0.00    +0.015 C 
ATOM      5  C   UNL     1      36.851 -24.366 -14.570  0.00  0.00    +0.036 C 
ATOM      6  C   UNL     1      37.514 -22.324 -15.676  0.00  0.00    +0.001 C 
ATOM      7  C   UNL     1      37.844 -23.456 -14.931  0.00  0.00    +0.003 C 
BRANCH   5   9
ATOM      8  O   UNL     1      37.929 -26.432 -14.278  0.00  0.00    -0.291 OA
ATOM      9  C   UNL     1      37.196 -25.548 -13.794  0.00  0.00    +0.181 C 
BRANCH   9  10
ATOM     10  C   UNL     1      36.671 -25.698 -12.359  0.00  0.00    +0.145 C 
BRANCH  10  12
ATOM     11  O   UNL     1      37.599 -23.716 -11.279  0.00  0.00    -0.284 OA
ATOM     12  C   UNL     1      36.651 -24.452 -11.507  0.00  0.00    +0.255 C 
BRANCH  12  14
ATOM     13  O   UNL     1      34.948 -24.667  -9.856  0.00  0.00    -0.242 OA
ATOM     14  C   UNL     1      35.343 -24.102 -10.855  0.00  0.00    +0.374 C 
BRANCH  14  15
ATOM     15  O   UNL     1      34.714 -23.160 -11.570  0.00  0.00    -0.475 OA
ATOM     16  H   UNL     1      34.399 -23.356 -12.430  0.00  0.00    +0.295 HD
ENDBRANCH  14  15
ENDBRANCH  12  14
ENDBRANCH  10  12
ENDBRANCH   9  10
ENDBRANCH   5   9
ENDBRANCH   1   2
BRANCH   1  17
ATOM     17  C   UNL     1      32.939 -22.121 -15.195  0.00  0.00    +0.118 C 
BRANCH  17  18
ATOM     18  C   UNL     1      31.822 -23.046 -14.803  0.00  0.00    -0.002 C 
ATOM     19  C   UNL     1      30.601 -22.966 -15.463  0.00  0.00    -0.003 C 
ATOM     20  C   UNL     1      32.021 -23.971 -13.785  0.00  0.00    -0.003 C 
ATOM     21  C   UNL     1      29.564 -23.826 -15.099  0.00  0.00    -0.000 C 
ATOM     22  C   UNL     1      30.983 -24.830 -13.422  0.00  0.00    -0.000 C 
ATOM     23  C   UNL     1      29.755 -24.757 -14.079  0.00  0.00    -0.000 C 
ENDBRANCH  17  18
ENDBRANCH   1  17
BRANCH   1  24
ATOM     24  C   UNL     1      33.398 -23.218 -17.394  0.00  0.00    +0.118 C 
BRANCH  24  25
ATOM     25  C   UNL     1      33.470 -22.083 -18.378  0.00  0.00    -0.002 C 
ATOM     26  C   UNL     1      32.308 -21.403 -18.725  0.00  0.00    -0.003 C 
ATOM     27  C   UNL     1      34.694 -21.728 -18.928  0.00  0.00    -0.003 C 
ATOM     28  C   UNL     1      32.375 -20.351 -19.638  0.00  0.00    -0.000 C 
ATOM     29  C   UNL     1      34.759 -20.675 -19.841  0.00  0.00    -0.000 C 
ATOM     30  C   UNL     1      33.600 -19.987 -20.196  0.00  0.00    -0.000 C 
ENDBRANCH  24  25
ENDBRANCH   1  24
TORSDOF 10
ENDMDL
MODEL 3
REMARK VINA RESULT:     -11.2      3.952      7.174
REMARK  Name = 510684
REMARK  10 active torsions:
REMARK  status: ('A' for Active; 'I' for Inactive)
REMARK    1  A    between atoms: N_1  and  C_2
REMARK    2  A    between atoms: N_1  and  C_17
REMARK    3  A    between atoms: N_1  and  C_24
REMARK    4  A    between atoms: C_5  and  C_9
REMARK    5  A    between atoms: C_9  and  C_10
REMARK    6  A    between atoms: C_10  and  C_12
REMARK    7  A    between atoms: C_12  and  C_14
REMARK    8  A    between atoms: C_14  and  O_15
REMARK    9  A    between atoms: C_17  and  C_18
REMARK   10  A    between atoms: C_24  and  C_25
REMARK                            x       y       z     vdW  Elec       q    Type
REMARK                         _______ _______ _______ _____ _____    ______ ____
ROOT
ATOM      1  N   UNL     1      33.475 -22.885 -15.963  0.00  0.00    -0.300 N 
ENDROOT
BRANCH   1   2
ATOM      2  C   UNL     1      32.337 -23.299 -15.239  0.00  0.00    +0.048 C 
ATOM      3  C   UNL     1      31.061 -23.074 -15.756  0.00  0.00    +0.017 C 
ATOM      4  C   UNL     1      32.489 -23.934 -14.007  0.00  0.00    +0.015 C 
ATOM      5  C   UNL     1      29.937 -23.485 -15.040  0.00  0.00    +0.036 C 
ATOM      6  C   UNL     1      31.364 -24.345 -13.291  0.00  0.00    +0.001 C 
ATOM      7  C   UNL     1      30.088 -24.121 -13.808  0.00  0.00    +0.003 C 
BRANCH   5   9
ATOM      8  O   UNL     1      27.966 -24.181 -16.111  0.00  0.00    -0.291 OA
ATOM      9  C   UNL     1      28.606 -23.252 -15.580  0.00  0.00    +0.181 C 
BRANCH   9  10
ATOM     10  C   UNL     1      27.973 -21.857 -15.475  0.00  0.00    +0.145 C 
BRANCH  10  12
ATOM     11  O   UNL     1      25.571 -21.976 -15.062  0.00  0.00    -0.284 OA
ATOM     12  C   UNL     1      26.506 -21.747 -15.813  0.00  0.00    +0.255 C 
BRANCH  12  14
ATOM     13  O   UNL     1      25.699 -20.252 -17.483  0.00  0.00    -0.242 OA
ATOM     14  C   UNL     1      26.168 -21.341 -17.220  0.00  0.00    +0.374 C 
BRANCH  14  15
ATOM     15  O   UNL     1      26.408 -22.357 -18.059  0.00  0.00    -0.475 OA
ATOM     16  H   UNL     1      27.113 -22.951 -17.887  0.00  0.00    +0.295 HD
ENDBRANCH  14  15
ENDBRANCH  12  14
ENDBRANCH  10  12
ENDBRANCH   9  10
ENDBRANCH   5   9
ENDBRANCH   1   2
BRANCH   1  17
ATOM     17  C   UNL     1      33.684 -23.340 -17.324  0.00  0.00    +0.118 C 
BRANCH  17  18
ATOM     18  C   UNL     1      33.652 -22.180 -18.278  0.00  0.00    -0.002 C 
ATOM     19  C   UNL     1      34.838 -21.718 -18.835  0.00  0.00    -0.003 C 
ATOM     20  C   UNL     1      32.438 -21.582 -18.592  0.00  0.00    -0.003 C 
ATOM     21  C   UNL     1      34.809 -20.640 -19.721  0.00  0.00    -0.000 C 
ATOM     22  C   UNL     1      32.409 -20.505 -19.478  0.00  0.00    -0.000 C 
ATOM     23  C   UNL     1      33.595 -20.034 -20.042  0.00  0.00    -0.000 C 
ENDBRANCH  17  18
ENDBRANCH   1  17
BRANCH   1  24
ATOM     24  C   UNL     1      34.442 -21.990 -15.361  0.00  0.00    +0.118 C 
BRANCH  24  25
ATOM     25  C   UNL     1      35.772 -22.674 -15.210  0.00  0.00    -0.002 C 
ATOM     26  C   UNL     1      35.866 -23.824 -14.436  0.00  0.00    -0.003 C 
ATOM     27  C   UNL     1      36.889 -22.149 -15.845  0.00  0.00    -0.003 C 
ATOM     28  C   UNL     1      37.101 -24.458 -14.295  0.00  0.00    -0.000 C 
ATOM     29  C   UNL     1      38.123 -22.784 -15.704  0.00  0.00    -0.000 C 
ATOM     30  C   UNL     1      38.229 -23.939 -14.930  0.00  0.00    -0.000 C 
ENDBRANCH  24  25
ENDBRANCH   1  24
TORSDOF 10
ENDMDL
MODEL 4
REMARK VINA RESULT:     -11.0      1.245      5.066
REMARK  Name = 510684
REMARK  10 active torsions:
REMARK  status: ('A' for Active; 'I' for Inactive)
REMARK    1  A    between atoms: N_1  and  C_2
REMARK    2  A    between atoms: N_1  and  C_17
REMARK    3  A    between atoms: N_1  and  C_24
REMARK    4  A    between atoms: C_5  and  C_9
REMARK    5  A    between atoms: C_9  and  C_10
REMARK    6  A    between atoms: C_10  and  C_12
REMARK    7  A    between atoms: C_12  and  C_14
REMARK    8  A    between atoms: C_14  and  O_15
REMARK    9  A    between atoms: C_17  and  C_18
REMARK   10  A    between atoms: C_24  and  C_25
REMARK                            x       y       z     vdW  Elec       q    Type
REMARK                         _______ _______ _______ _____ _____    ______ ____
ROOT
ATOM      1  N   UNL     1      33.399 -22.652 -16.077  0.00  0.00    -0.300 N 
ENDROOT
BRANCH   1   2
ATOM      2  C   UNL     1      34.706 -22.749 -15.556  0.00  0.00    +0.048 C 
ATOM      3  C   UNL     1      34.967 -23.602 -14.483  0.00  0.00    +0.017 C 
ATOM      4  C   UNL     1      35.736 -21.993 -16.114  0.00  0.00    +0.015 C 
ATOM      5  C   UNL     1      36.260 -23.698 -13.969  0.00  0.00    +0.036 C 
ATOM      6  C   UNL     1      37.029 -22.090 -15.599  0.00  0.00    +0.001 C 
ATOM      7  C   UNL     1      37.292 -22.943 -14.527  0.00  0.00    +0.003 C 
BRANCH   5   9
ATOM      8  O   UNL     1      35.612 -24.964 -12.100  0.00  0.00    -0.291 OA
ATOM      9  C   UNL     1      36.534 -24.589 -12.851  0.00  0.00    +0.181 C 
BRANCH   9  10
ATOM     10  C   UNL     1      37.965 -25.088 -12.606  0.00  0.00    +0.145 C 
BRANCH  10  12
ATOM     11  O   UNL     1      38.169 -26.647 -14.473  0.00  0.00    -0.284 OA
ATOM     12  C   UNL     1      38.651 -25.781 -13.759  0.00  0.00    +0.255 C 
BRANCH  12  14
ATOM     13  O   UNL     1      40.377 -24.256 -14.366  0.00  0.00    -0.242 OA
ATOM     14  C   UNL     1      40.074 -25.384 -14.032  0.00  0.00    +0.374 C 
BRANCH  14  15
ATOM     15  O   UNL     1      40.878 -26.447 -13.907  0.00  0.00    -0.475 OA
ATOM     16  H   UNL     1      41.618 -26.411 -13.332  0.00  0.00    +0.295 HD
ENDBRANCH  14  15
ENDBRANCH  12  14
ENDBRANCH  10  12
ENDBRANCH   9  10
ENDBRANCH   5   9
ENDBRANCH   1   2
BRANCH   1  17
ATOM     17  C   UNL     1      32.337 -22.057 -15.289  0.00  0.00    +0.118 C 
BRANCH  17  18
ATOM     18  C   UNL     1      31.290 -23.083 -14.956  0.00  0.00    -0.002 C 
ATOM     19  C   UNL     1      30.131 -23.152 -15.718  0.00  0.00    -0.003 C 
ATOM     20  C   UNL     1      31.494 -23.950 -13.890  0.00  0.00    -0.003 C 
ATOM     21  C   UNL     1      29.159 -24.104 -15.410  0.00  0.00    -0.000 C 
ATOM     22  C   UNL     1      30.522 -24.902 -13.581  0.00  0.00    -0.000 C 
ATOM     23  C   UNL     1      29.355 -24.979 -14.341  0.00  0.00    -0.000 C 
ENDBRANCH  17  18
ENDBRANCH   1  17
BRANCH   1  24
ATOM     24  C   UNL     1      33.103 -23.136 -17.411  0.00  0.00    +0.118 C 
BRANCH  24  25
ATOM     25  C   UNL     1      33.271 -22.036 -18.421  0.00  0.00    -0.002 C 
ATOM     26  C   UNL     1      34.522 -21.803 -18.978  0.00  0.00    -0.003 C 
ATOM     27  C   UNL     1      32.174 -21.266 -18.786  0.00  0.00    -0.003 C 
ATOM     28  C   UNL     1      34.678 -20.781 -19.916  0.00  0.00    -0.000 C 
ATOM     29  C   UNL     1      32.331 -20.246 -19.724  0.00  0.00    -0.000 C 
ATOM     30  C   UNL     1      33.582 -20.003 -20.289  0.00  0.00    -0.000 C 
ENDBRANCH  24  25
ENDBRANCH   1  24
TORSDOF 10
ENDMDL
MODEL 5
REMARK VINA RESULT:     -11.0      3.957      6.947
REMARK  Name = 510684
REMARK  10 active torsions:
REMARK  status: ('A' for Active; 'I' for Inactive)
REMARK    1  A    between atoms: N_1  and  C_2
REMARK    2  A    between atoms: N_1  and  C_17
REMARK    3  A    between atoms: N_1  and  C_24
REMARK    4  A    between atoms: C_5  and  C_9
REMARK    5  A    between atoms: C_9  and  C_10
REMARK    6  A    between atoms: C_10  and  C_12
REMARK    7  A    between atoms: C_12  and  C_14
REMARK    8  A    between atoms: C_14  and  O_15
REMARK    9  A    between atoms: C_17  and  C_18
REMARK   10  A    between atoms: C_24  and  C_25
REMARK                            x       y       z     vdW  Elec       q    Type
REMARK                         _______ _______ _______ _____ _____    ______ ____
ROOT
ATOM      1  N   UNL     1      34.327 -23.376 -14.790  0.00  0.00    -0.300 N 
ENDROOT
BRANCH   1   2
ATOM      2  C   UNL     1      35.037 -22.562 -15.698  0.00  0.00    +0.048 C 
ATOM      3  C   UNL     1      34.516 -22.315 -16.967  0.00  0.00    +0.017 C 
ATOM      4  C   UNL     1      36.260 -22.004 -15.324  0.00  0.00    +0.015 C 
ATOM      5  C   UNL     1      35.217 -21.509 -17.864  0.00  0.00    +0.036 C 
ATOM      6  C   UNL     1      36.960 -21.198 -16.222  0.00  0.00    +0.001 C 
ATOM      7  C   UNL     1      36.439 -20.950 -17.491  0.00  0.00    +0.003 C 
BRANCH   5   9
ATOM      8  O   UNL     1      33.499 -21.568 -19.464  0.00  0.00    -0.291 OA
ATOM      9  C   UNL     1      34.673 -21.250 -19.188  0.00  0.00    +0.181 C 
BRANCH   9  10
ATOM     10  C   UNL     1      35.543 -20.560 -20.249  0.00  0.00    +0.145 C 
BRANCH  10  12
ATOM     11  O   UNL     1      33.918 -19.340 -21.602  0.00  0.00    -0.284 OA
ATOM     12  C   UNL     1      34.946 -19.359 -20.943  0.00  0.00    +0.255 C 
BRANCH  12  14
ATOM     13  O   UNL     1      35.160 -17.011 -20.603  0.00  0.00    -0.242 OA
ATOM     14  C   UNL     1      35.710 -18.070 -20.831  0.00  0.00    +0.374 C 
BRANCH  14  15
ATOM     15  O   UNL     1      37.009 -18.285 -21.075  0.00  0.00    -0.475 OA
ATOM     16  H   UNL     1      37.574 -17.566 -21.277  0.00  0.00    +0.295 HD
ENDBRANCH  14  15
ENDBRANCH  12  14
ENDBRANCH  10  12
ENDBRANCH   9  10
ENDBRANCH   5   9
ENDBRANCH   1   2
BRANCH   1  17
ATOM     17  C   UNL     1      34.619 -24.793 -14.691  0.00  0.00    +0.118 C 
BRANCH  17  18
ATOM     18  C   UNL     1      35.952 -25.011 -14.033  0.00  0.00    -0.002 C 
ATOM     19  C   UNL     1      36.125 -24.658 -12.701  0.00  0.00    -0.003 C 
ATOM     20  C   UNL     1      36.996 -25.563 -14.765  0.00  0.00    -0.003 C 
ATOM     21  C   UNL     1      37.362 -24.860 -12.089  0.00  0.00    -0.000 C 
ATOM     22  C   UNL     1      38.234 -25.765 -14.153  0.00  0.00    -0.000 C 
ATOM     23  C   UNL     1      38.416 -25.414 -12.816  0.00  0.00    -0.000 C 
ENDBRANCH  17  18
ENDBRANCH   1  17
BRANCH   1  24
ATOM     24  C   UNL     1      33.306 -22.803 -13.936  0.00  0.00    +0.118 C 
BRANCH  24  25
ATOM     25  C   UNL     1      31.948 -23.332 -14.309  0.00  0.00    -0.002 C 
ATOM     26  C   UNL     1      31.372 -24.339 -13.544  0.00  0.00    -0.003 C 
ATOM     27  C   UNL     1      31.287 -22.807 -15.411  0.00  0.00    -0.003 C 
ATOM     28  C   UNL     1      30.113 -24.829 -13.890  0.00  0.00    -0.000 C 
ATOM     29  C   UNL     1      30.027 -23.298 -15.755  0.00  0.00    -0.000 C 
ATOM     30  C   UNL     1      29.440 -24.308 -14.995  0.00  0.00    -0.000 C 
ENDBRANCH  24  25
ENDBRANCH   1  24
TORSDOF 10
ENDMDL
MODEL 6
REMARK VINA RESULT:      -9.8      4.076      7.661
REMARK  Name = 510684
REMARK  10 active torsions:
REMARK  status: ('A' for Active; 'I' for Inactive)
REMARK    1  A    between atoms: N_1  and  C_2
REMARK    2  A    between atoms: N_1  and  C_17
REMARK    3  A    between atoms: N_1  and  C_24
REMARK    4  A    between atoms: C_5  and  C_9
REMARK    5  A    between atoms: C_9  and  C_10
REMARK    6  A    between atoms: C_10  and  C_12
REMARK    7  A    between atoms: C_12  and  C_14
REMARK    8  A    between atoms: C_14  and  O_15
REMARK    9  A    between atoms: C_17  and  C_18
REMARK   10  A    between atoms: C_24  and  C_25
REMARK                            x       y       z     vdW  Elec       q    Type
REMARK                         _______ _______ _______ _____ _____    ______ ____
ROOT
ATOM      1  N   UNL     1      35.355 -23.203 -15.169  0.00  0.00    -0.300 N 
ENDROOT
BRANCH   1   2
ATOM      2  C   UNL     1      34.520 -22.758 -16.216  0.00  0.00    +0.048 C 
ATOM      3  C   UNL     1      35.064 -22.055 -17.291  0.00  0.00    +0.017 C 
ATOM      4  C   UNL     1      33.151 -23.023 -16.177  0.00  0.00    +0.015 C 
ATOM      5  C   UNL     1      34.239 -21.616 -18.326  0.00  0.00    +0.036 C 
ATOM      6  C   UNL     1      32.327 -22.585 -17.213  0.00  0.00    +0.001 C 
ATOM      7  C   UNL     1      32.870 -21.882 -18.287  0.00  0.00    +0.003 C 
BRANCH   5   9
ATOM      8  O   UNL     1      36.001 -21.038 -19.766  0.00  0.00    -0.291 OA
ATOM      9  C   UNL     1      34.806 -20.883 -19.448  0.00  0.00    +0.181 C 
BRANCH   9  10
ATOM     10  C   UNL     1      33.920 -19.927 -20.260  0.00  0.00    +0.145 C 
BRANCH  10  12
ATOM     11  O   UNL     1      34.615 -19.301 -22.514  0.00  0.00    -0.284 OA
ATOM     12  C   UNL     1      34.608 -19.090 -21.311  0.00  0.00    +0.255 C 
BRANCH  12  14
ATOM     13  O   UNL     1      34.880 -16.794 -20.737  0.00  0.00    -0.242 OA
ATOM     14  C   UNL     1      35.381 -17.897 -20.822  0.00  0.00    +0.374 C 
BRANCH  14  15
ATOM     15  O   UNL     1      36.650 -18.245 -20.575  0.00  0.00    -0.475 OA
ATOM     16  H   UNL     1      37.190 -17.699 -20.037  0.00  0.00    +0.295 HD
ENDBRANCH  14  15
ENDBRANCH  12  14
ENDBRANCH  10  12
ENDBRANCH   9  10
ENDBRANCH   5   9
ENDBRANCH   1   2
BRANCH   1  17
ATOM     17  C   UNL     1      35.758 -24.594 -15.093  0.00  0.00    +0.118 C 
BRANCH  17  18
ATOM     18  C   UNL     1      37.197 -24.702 -14.674  0.00  0.00    -0.002 C 
ATOM     19  C   UNL     1      38.153 -23.903 -15.290  0.00  0.00    -0.003 C 
ATOM     20  C   UNL     1      37.556 -25.600 -13.676  0.00  0.00    -0.003 C 
ATOM     21  C   UNL     1      39.489 -24.003 -14.901  0.00  0.00    -0.000 C 
ATOM     22  C   UNL     1      38.892 -25.700 -13.287  0.00  0.00    -0.000 C 
ATOM     23  C   UNL     1      39.858 -24.902 -13.900  0.00  0.00    -0.000 C 
ENDBRANCH  17  18
ENDBRANCH   1  17
BRANCH   1  24
ATOM     24  C   UNL     1      35.829 -22.274 -14.164  0.00  0.00    +0.118 C 
BRANCH  24  25
ATOM     25  C   UNL     1      35.666 -22.855 -12.787  0.00  0.00    -0.002 C 
ATOM     26  C   UNL     1      36.640 -22.620 -11.825  0.00  0.00    -0.003 C 
ATOM     27  C   UNL     1      34.544 -23.617 -12.494  0.00  0.00    -0.003 C 
ATOM     28  C   UNL     1      36.489 -23.160 -10.547  0.00  0.00    -0.000 C 
ATOM     29  C   UNL     1      34.392 -24.156 -11.216  0.00  0.00    -0.000 C 
ATOM     30  C   UNL     1      35.364 -23.928 -10.243  0.00  0.00    -0.000 C 
ENDBRANCH  24  25
ENDBRANCH   1  24
TORSDOF 10
ENDMDL
MODEL 7
REMARK VINA RESULT:      -9.7      3.862      6.970
REMARK  Name = 510684
REMARK  10 active torsions:
REMARK  status: ('A' for Active; 'I' for Inactive)
REMARK    1  A    between atoms: N_1  and  C_2
REMARK    2  A    between atoms: N_1  and  C_17
REMARK    3  A    between atoms: N_1  and  C_24
REMARK    4  A    between atoms: C_5  and  C_9
REMARK    5  A    between atoms: C_9  and  C_10
REMARK    6  A    between atoms: C_10  and  C_12
REMARK    7  A    between atoms: C_12  and  C_14
REMARK    8  A    between atoms: C_14  and  O_15
REMARK    9  A    between atoms: C_17  and  C_18
REMARK   10  A    between atoms: C_24  and  C_25
REMARK                            x       y       z     vdW  Elec       q    Type
REMARK                         _______ _______ _______ _____ _____    ______ ____
ROOT
ATOM      1  N   UNL     1      34.046 -23.594 -14.924  0.00  0.00    -0.300 N 
ENDROOT
BRANCH   1   2
ATOM      2  C   UNL     1      33.869 -22.973 -16.178  0.00  0.00    +0.048 C 
ATOM      3  C   UNL     1      34.898 -22.209 -16.729  0.00  0.00    +0.017 C 
ATOM      4  C   UNL     1      32.666 -23.123 -16.867  0.00  0.00    +0.015 C 
ATOM      5  C   UNL     1      34.724 -21.596 -17.969  0.00  0.00    +0.036 C 
ATOM      6  C   UNL     1      32.493 -22.510 -18.108  0.00  0.00    +0.001 C 
ATOM      7  C   UNL     1      33.522 -21.747 -18.660  0.00  0.00    +0.003 C 
BRANCH   5   9
ATOM      8  O   UNL     1      36.656 -20.270 -17.812  0.00  0.00    -0.291 OA
ATOM      9  C   UNL     1      35.798 -20.800 -18.545  0.00  0.00    +0.181 C 
BRANCH   9  10
ATOM     10  C   UNL     1      35.889 -20.630 -20.068  0.00  0.00    +0.145 C 
BRANCH  10  12
ATOM     11  O   UNL     1      33.969 -19.455 -21.011  0.00  0.00    -0.284 OA
ATOM     12  C   UNL     1      35.142 -19.464 -20.669  0.00  0.00    +0.255 C 
BRANCH  12  14
ATOM     13  O   UNL     1      37.082 -18.219 -21.266  0.00  0.00    -0.242 OA
ATOM     14  C   UNL     1      35.927 -18.203 -20.890  0.00  0.00    +0.374 C 
BRANCH  14  15
ATOM     15  O   UNL     1      35.185 -17.138 -20.560  0.00  0.00    -0.475 OA
ATOM     16  H   UNL     1      34.390 -17.251 -20.078  0.00  0.00    +0.295 HD
ENDBRANCH  14  15
ENDBRANCH  12  14
ENDBRANCH  10  12
ENDBRANCH   9  10
ENDBRANCH   5   9
ENDBRANCH   1   2
BRANCH   1  17
ATOM     17  C   UNL     1      34.975 -24.697 -14.776  0.00  0.00    +0.118 C 
BRANCH  17  18
ATOM     18  C   UNL     1      35.957 -24.414 -13.675  0.00  0.00    -0.002 C 
ATOM     19  C   UNL     1      36.547 -25.471 -12.993  0.00  0.00    -0.003 C 
ATOM     20  C   UNL     1      36.263 -23.099 -13.349  0.00  0.00    -0.003 C 
ATOM     21  C   UNL     1      37.459 -25.209 -11.970  0.00  0.00    -0.000 C 
ATOM     22  C   UNL     1      37.175 -22.836 -12.326  0.00  0.00    -0.000 C 
ATOM     23  C   UNL     1      37.773 -23.891 -11.637  0.00  0.00    -0.000 C 
ENDBRANCH  17  18
ENDBRANCH   1  17
BRANCH   1  24
ATOM     24  C   UNL     1      33.310 -23.130 -13.765  0.00  0.00    +0.118 C 
BRANCH  24  25
ATOM     25  C   UNL     1      31.838 -23.387 -13.936  0.00  0.00    -0.002 C 
ATOM     26  C   UNL     1      30.989 -22.328 -14.232  0.00  0.00    -0.003 C 
ATOM     27  C   UNL     1      31.347 -24.678 -13.797  0.00  0.00    -0.003 C 
ATOM     28  C   UNL     1      29.623 -22.566 -14.390  0.00  0.00    -0.000 C 
ATOM     29  C   UNL     1      29.981 -24.915 -13.956  0.00  0.00    -0.000 C 
ATOM     30  C   UNL     1      29.120 -23.860 -14.253  0.00  0.00    -0.000 C 
ENDBRANCH  24  25
ENDBRANCH   1  24
TORSDOF 10
ENDMDL
MODEL 8
REMARK VINA RESULT:      -9.3     13.676     17.733
REMARK  Name = 510684
REMARK  10 active torsions:
REMARK  status: ('A' for Active; 'I' for Inactive)
REMARK    1  A    between atoms: N_1  and  C_2
REMARK    2  A    between atoms: N_1  and  C_17
REMARK    3  A    between atoms: N_1  and  C_24
REMARK    4  A    between atoms: C_5  and  C_9
REMARK    5  A    between atoms: C_9  and  C_10
REMARK    6  A    between atoms: C_10  and  C_12
REMARK    7  A    between atoms: C_12  and  C_14
REMARK    8  A    between atoms: C_14  and  O_15
REMARK    9  A    between atoms: C_17  and  C_18
REMARK   10  A    between atoms: C_24  and  C_25
REMARK                            x       y       z     vdW  Elec       q    Type
REMARK                         _______ _______ _______ _____ _____    ______ ____
ROOT
ATOM      1  N   UNL     1      32.079  -7.565 -22.955  0.00  0.00    -0.300 N 
ENDROOT
BRANCH   1   2
ATOM      2  C   UNL     1      31.901  -8.893 -22.512  0.00  0.00    +0.048 C 
ATOM      3  C   UNL     1      32.441  -9.950 -23.244  0.00  0.00    +0.017 C 
ATOM      4  C   UNL     1      31.185  -9.147 -21.342  0.00  0.00    +0.015 C 
ATOM      5  C   UNL     1      32.267 -11.262 -22.805  0.00  0.00    +0.036 C 
ATOM      6  C   UNL     1      31.011 -10.460 -20.904  0.00  0.00    +0.001 C 
ATOM      7  C   UNL     1      31.552 -11.518 -21.635  0.00  0.00    +0.003 C 
BRANCH   5   9
ATOM      8  O   UNL     1      33.414 -12.155 -24.649  0.00  0.00    -0.291 OA
ATOM      9  C   UNL     1      32.831 -12.366 -23.567  0.00  0.00    +0.181 C 
BRANCH   9  10
ATOM     10  C   UNL     1      32.729 -13.799 -23.025  0.00  0.00    +0.145 C 
BRANCH  10  12
ATOM     11  O   UNL     1      34.867 -14.973 -23.098  0.00  0.00    -0.284 OA
ATOM     12  C   UNL     1      33.742 -14.795 -23.537  0.00  0.00    +0.255 C 
BRANCH  12  14
ATOM     13  O   UNL     1      33.432 -16.835 -24.725  0.00  0.00    -0.242 OA
ATOM     14  C   UNL     1      33.330 -15.625 -24.719  0.00  0.00    +0.374 C 
BRANCH  14  15
ATOM     15  O   UNL     1      32.917 -14.831 -25.715  0.00  0.00    -0.475 OA
ATOM     16  H   UNL     1      32.930 -15.141 -26.599  0.00  0.00    +0.295 HD
ENDBRANCH  14  15
ENDBRANCH  12  14
ENDBRANCH  10  12
ENDBRANCH   9  10
ENDBRANCH   5   9
ENDBRANCH   1   2
BRANCH   1  17
ATOM     17  C   UNL     1      31.030  -6.892 -23.696  0.00  0.00    +0.118 C 
BRANCH  17  18
ATOM     18  C   UNL     1      30.688  -5.580 -23.050  0.00  0.00    -0.002 C 
ATOM     19  C   UNL     1      30.448  -5.531 -21.682  0.00  0.00    -0.003 C 
ATOM     20  C   UNL     1      30.615  -4.430 -23.827  0.00  0.00    -0.003 C 
ATOM     21  C   UNL     1      30.131  -4.312 -21.082  0.00  0.00    -0.000 C 
ATOM     22  C   UNL     1      30.297  -3.212 -23.227  0.00  0.00    -0.000 C 
ATOM     23  C   UNL     1      30.055  -3.153 -21.854  0.00  0.00    -0.000 C 
ENDBRANCH  17  18
ENDBRANCH   1  17
BRANCH   1  24
ATOM     24  C   UNL     1      33.307  -6.854 -22.664  0.00  0.00    +0.118 C 
BRANCH  24  25
ATOM     25  C   UNL     1      33.844  -6.196 -23.905  0.00  0.00    -0.002 C 
ATOM     26  C   UNL     1      33.875  -4.810 -23.986  0.00  0.00    -0.003 C 
ATOM     27  C   UNL     1      34.302  -6.982 -24.954  0.00  0.00    -0.003 C 
ATOM     28  C   UNL     1      34.373  -4.199 -25.138  0.00  0.00    -0.000 C 
ATOM     29  C   UNL     1      34.800  -6.371 -26.105  0.00  0.00    -0.000 C 
ATOM     30  C   UNL     1      34.836  -4.980 -26.197  0.00  0.00    -0.000 C 
ENDBRANCH  24  25
ENDBRANCH   1  24
TORSDOF 10
ENDMDL
MODEL 9
REMARK VINA RESULT:      -9.3     13.670     17.496
REMARK  Name = 510684
REMARK  10 active torsions:
REMARK  status: ('A' for Active; 'I' for Inactive)
REMARK    1  A    between atoms: N_1  and  C_2
REMARK    2  A    between atoms: N_1  and  C_17
REMARK    3  A    between atoms: N_1  and  C_24
REMARK    4  A    between atoms: C_5  and  C_9
REMARK    5  A    between atoms: C_9  and  C_10
REMARK    6  A    between atoms: C_10  and  C_12
REMARK    7  A    between atoms: C_12  and  C_14
REMARK    8  A    between atoms: C_14  and  O_15
REMARK    9  A    between atoms: C_17  and  C_18
REMARK   10  A    between atoms: C_24  and  C_25
REMARK                            x       y       z     vdW  Elec       q    Type
REMARK                         _______ _______ _______ _____ _____    ______ ____
ROOT
ATOM      1  N   UNL     1      32.081  -7.573 -22.932  0.00  0.00    -0.300 N 
ENDROOT
BRANCH   1   2
ATOM      2  C   UNL     1      31.899  -8.903 -22.498  0.00  0.00    +0.048 C 
ATOM      3  C   UNL     1      32.439  -9.957 -23.236  0.00  0.00    +0.017 C 
ATOM      4  C   UNL     1      31.182  -9.164 -21.332  0.00  0.00    +0.015 C 
ATOM      5  C   UNL     1      32.261 -11.271 -22.807  0.00  0.00    +0.036 C 
ATOM      6  C   UNL     1      31.004 -10.479 -20.903  0.00  0.00    +0.001 C 
ATOM      7  C   UNL     1      31.543 -11.533 -21.640  0.00  0.00    +0.003 C 
BRANCH   5   9
ATOM      8  O   UNL     1      33.399 -12.155 -24.661  0.00  0.00    -0.291 OA
ATOM      9  C   UNL     1      32.824 -12.371 -23.576  0.00  0.00    +0.181 C 
BRANCH   9  10
ATOM     10  C   UNL     1      32.730 -13.805 -23.037  0.00  0.00    +0.145 C 
BRANCH  10  12
ATOM     11  O   UNL     1      34.875 -14.968 -23.112  0.00  0.00    -0.284 OA
ATOM     12  C   UNL     1      33.749 -14.794 -23.551  0.00  0.00    +0.255 C 
BRANCH  12  14
ATOM     13  O   UNL     1      33.441 -16.834 -24.741  0.00  0.00    -0.242 OA
ATOM     14  C   UNL     1      33.343 -15.624 -24.736  0.00  0.00    +0.374 C 
BRANCH  14  15
ATOM     15  O   UNL     1      32.939 -14.828 -25.735  0.00  0.00    -0.475 OA
ATOM     16  H   UNL     1      32.124 -14.369 -25.669  0.00  0.00    +0.295 HD
ENDBRANCH  14  15
ENDBRANCH  12  14
ENDBRANCH  10  12
ENDBRANCH   9  10
ENDBRANCH   5   9
ENDBRANCH   1   2
BRANCH   1  17
ATOM     17  C   UNL     1      33.318  -6.871 -22.648  0.00  0.00    +0.118 C 
BRANCH  17  18
ATOM     18  C   UNL     1      33.838  -6.199 -23.887  0.00  0.00    -0.002 C 
ATOM     19  C   UNL     1      34.298  -6.972 -24.946  0.00  0.00    -0.003 C 
ATOM     20  C   UNL     1      33.855  -4.812 -23.959  0.00  0.00    -0.003 C 
ATOM     21  C   UNL     1      34.780  -6.348 -26.096  0.00  0.00    -0.000 C 
ATOM     22  C   UNL     1      34.337  -4.188 -25.110  0.00  0.00    -0.000 C 
ATOM     23  C   UNL     1      34.800  -4.956 -26.178  0.00  0.00    -0.000 C 
ENDBRANCH  17  18
ENDBRANCH   1  17
BRANCH   1  24
ATOM     24  C   UNL     1      31.040  -6.895 -23.676  0.00  0.00    +0.118 C 
BRANCH  24  25
ATOM     25  C   UNL     1      30.682  -5.591 -23.018  0.00  0.00    -0.002 C 
ATOM     26  C   UNL     1      30.468  -5.554 -21.646  0.00  0.00    -0.003 C 
ATOM     27  C   UNL     1      30.571  -4.442 -23.788  0.00  0.00    -0.003 C 
ATOM     28  C   UNL     1      30.135  -4.344 -21.035  0.00  0.00    -0.000 C 
ATOM     29  C   UNL     1      30.240  -3.233 -23.176  0.00  0.00    -0.000 C 
ATOM     30  C   UNL     1      30.022  -3.184 -21.800  0.00  0.00    -0.000 C 
ENDBRANCH  24  25
ENDBRANCH   1  24
TORSDOF 10
ENDMDL
