MODEL 1
REMARK VINA RESULT:     -11.7      0.000      0.000
REMARK  Name = 9888484
REMARK  13 active torsions:
REMARK  status: ('A' for Active; 'I' for Inactive)
REMARK    1  A    between atoms: C_1  and  C_2
REMARK    2  A    between atoms: C_1  and  C_18
REMARK    3  A    between atoms: C_2  and  O_3
REMARK    4  A    between atoms: O_3  and  C_7
REMARK    5  A    between atoms: C_4  and  C_10
REMARK    6  A    between atoms: C_10  and  C_11
REMARK    7  A    between atoms: C_11  and  O_12
REMARK    8  A    between atoms: C_11  and  C_15
REMARK    9  A    between atoms: C_15  and  O_16
REMARK   10  A    between atoms: C_18  and  O_19
REMARK   11  A    between atoms: O_19  and  C_20
REMARK   12  A    between atoms: C_23  and  O_26
REMARK   13  A    between atoms: O_26  and  C_27
REMARK                            x       y       z     vdW  Elec       q    Type
REMARK                         _______ _______ _______ _____ _____    ______ ____
ROOT
ATOM      1  C   UNL     1      34.413 -17.290 -23.133  0.00  0.00    +0.095 C 
ENDROOT
BRANCH   1   2
ATOM      2  C   UNL     1      34.320 -18.714 -22.607  0.00  0.00    +0.209 C 
BRANCH   2   3
ATOM      3  O   UNL     1      34.904 -18.764 -21.313  0.00  0.00    -0.475 OA
BRANCH   3   7
ATOM      4  C   UNL     1      33.580 -21.771 -18.777  0.00  0.00    -0.019 C 
ATOM      5  C   UNL     1      32.657 -20.992 -19.475  0.00  0.00    -0.001 C 
ATOM      6  C   UNL     1      34.946 -21.540 -18.930  0.00  0.00    -0.001 C 
ATOM      7  C   UNL     1      34.465 -19.757 -20.475  0.00  0.00    +0.139 C 
ATOM      8  C   UNL     1      33.102 -19.981 -20.327  0.00  0.00    +0.037 C 
ATOM      9  C   UNL     1      35.391 -20.529 -19.783  0.00  0.00    +0.037 C 
BRANCH   4  10
ATOM     10  C   UNL     1      33.104 -22.851 -17.865  0.00  0.00    +0.067 C 
BRANCH  10  11
ATOM     11  C   UNL     1      33.425 -22.562 -16.388  0.00  0.00    +0.218 C 
BRANCH  11  12
ATOM     12  O   UNL     1      34.459 -23.445 -15.970  0.00  0.00    -0.342 OA
ATOM     13  C   UNL     1      35.600 -22.730 -15.516  0.00  0.00    +0.175 C 
ENDBRANCH  11  12
BRANCH  11  15
ATOM     14  O   UNL     1      31.176 -23.333 -15.876  0.00  0.00    -0.248 OA
ATOM     15  C   UNL     1      32.221 -22.816 -15.503  0.00  0.00    +0.342 C 
BRANCH  15  16
ATOM     16  O   UNL     1      32.435 -22.421 -14.222  0.00  0.00    -0.479 OA
ATOM     17  H   UNL     1      31.879 -21.776 -13.832  0.00  0.00    +0.295 HD
ENDBRANCH  15  16
ENDBRANCH  11  15
ENDBRANCH  10  11
ENDBRANCH   4  10
ENDBRANCH   3   7
ENDBRANCH   2   3
ENDBRANCH   1   2
BRANCH   1  18
ATOM     18  C   UNL     1      34.581 -16.278 -22.011  0.00  0.00    +0.209 C 
BRANCH  18  19
ATOM     19  O   UNL     1      34.696 -14.970 -22.555  0.00  0.00    -0.475 OA
BRANCH  19  20
ATOM     20  C   UNL     1      33.701 -14.081 -22.243  0.00  0.00    +0.139 C 
ATOM     21  C   UNL     1      33.207 -14.030 -20.945  0.00  0.00    +0.040 C 
ATOM     22  C   UNL     1      33.195 -13.240 -23.228  0.00  0.00    +0.040 C 
ATOM     23  C   UNL     1      31.681 -12.278 -21.610  0.00  0.00    +0.145 C 
ATOM     24  C   UNL     1      32.193 -13.126 -20.626  0.00  0.00    +0.041 C 
ATOM     25  C   UNL     1      32.182 -12.336 -22.910  0.00  0.00    +0.041 C 
BRANCH  23  26
ATOM     26  O   UNL     1      30.693 -11.395 -21.299  0.00  0.00    -0.453 OA
BRANCH  26  27
ATOM     27  C   UNL     1      31.068 -10.117 -20.919  0.00  0.00    +0.145 C 
ATOM     28  C   UNL     1      31.200  -9.825 -19.574  0.00  0.00    +0.037 C 
ATOM     29  C   UNL     1      31.301  -9.166 -21.895  0.00  0.00    +0.037 C 
ATOM     30  C   UNL     1      31.576  -8.537 -19.191  0.00  0.00    +0.003 C 
ATOM     31  C   UNL     1      31.678  -7.878 -21.513  0.00  0.00    +0.003 C 
ATOM     32  C   UNL     1      31.816  -7.564 -20.161  0.00  0.00    +0.000 C 
ENDBRANCH  26  27
ENDBRANCH  23  26
ENDBRANCH  19  20
ENDBRANCH  18  19
ENDBRANCH   1  18
TORSDOF 13
ENDMDL
MODEL 2
REMARK VINA RESULT:     -11.7      2.546      5.191
REMARK  Name = 9888484
REMARK  13 active torsions:
REMARK  status: ('A' for Active; 'I' for Inactive)
REMARK    1  A    between atoms: C_1  and  C_2
REMARK    2  A    between atoms: C_1  and  C_18
REMARK    3  A    between atoms: C_2  and  O_3
REMARK    4  A    between atoms: O_3  and  C_7
REMARK    5  A    between atoms: C_4  and  C_10
REMARK    6  A    between atoms: C_10  and  C_11
REMARK    7  A    between atoms: C_11  and  O_12
REMARK    8  A    between atoms: C_11  and  C_15
REMARK    9  A    between atoms: C_15  and  O_16
REMARK   10  A    between atoms: C_18  and  O_19
REMARK   11  A    between atoms: O_19  and  C_20
REMARK   12  A    between atoms: C_23  and  O_26
REMARK   13  A    between atoms: O_26  and  C_27
REMARK                            x       y       z     vdW  Elec       q    Type
REMARK                         _______ _______ _______ _____ _____    ______ ____
ROOT
ATOM      1  C   UNL     1      35.280 -20.468 -19.961  0.00  0.00    +0.095 C 
ENDROOT
BRANCH   1   2
ATOM      2  C   UNL     1      34.763 -21.735 -19.300  0.00  0.00    +0.209 C 
BRANCH   2   3
ATOM      3  O   UNL     1      34.394 -21.435 -17.960  0.00  0.00    -0.475 OA
BRANCH   3   7
ATOM      4  C   UNL     1      36.758 -23.064 -14.962  0.00  0.00    -0.019 C 
ATOM      5  C   UNL     1      37.303 -22.141 -15.855  0.00  0.00    -0.001 C 
ATOM      6  C   UNL     1      35.421 -23.440 -15.077  0.00  0.00    -0.001 C 
ATOM      7  C   UNL     1      35.176 -21.973 -16.970  0.00  0.00    +0.139 C 
ATOM      8  C   UNL     1      36.508 -21.593 -16.863  0.00  0.00    +0.037 C 
ATOM      9  C   UNL     1      34.626 -22.893 -16.085  0.00  0.00    +0.037 C 
BRANCH   4  10
ATOM     10  C   UNL     1      37.608 -23.650 -13.885  0.00  0.00    +0.067 C 
BRANCH  10  11
ATOM     11  C   UNL     1      38.201 -25.014 -14.276  0.00  0.00    +0.218 C 
BRANCH  11  12
ATOM     12  O   UNL     1      38.172 -25.862 -13.136  0.00  0.00    -0.342 OA
ATOM     13  C   UNL     1      37.114 -25.513 -12.255  0.00  0.00    +0.175 C 
ENDBRANCH  11  12
BRANCH  11  15
ATOM     14  O   UNL     1      40.518 -24.303 -14.075  0.00  0.00    -0.248 OA
ATOM     15  C   UNL     1      39.647 -24.882 -14.711  0.00  0.00    +0.342 C 
BRANCH  15  16
ATOM     16  O   UNL     1      39.884 -25.504 -15.894  0.00  0.00    -0.479 OA
ATOM     17  H   UNL     1      40.739 -25.837 -16.084  0.00  0.00    +0.295 HD
ENDBRANCH  15  16
ENDBRANCH  11  15
ENDBRANCH  10  11
ENDBRANCH   4  10
ENDBRANCH   3   7
ENDBRANCH   2   3
ENDBRANCH   1   2
BRANCH   1  18
ATOM     18  C   UNL     1      34.170 -19.689 -20.648  0.00  0.00    +0.209 C 
BRANCH  18  19
ATOM     19  O   UNL     1      34.585 -19.305 -21.951  0.00  0.00    -0.475 OA
BRANCH  19  20
ATOM     20  C   UNL     1      34.509 -17.971 -22.257  0.00  0.00    +0.139 C 
ATOM     21  C   UNL     1      34.249 -17.579 -23.565  0.00  0.00    +0.040 C 
ATOM     22  C   UNL     1      34.691 -17.023 -21.256  0.00  0.00    +0.040 C 
ATOM     23  C   UNL     1      34.353 -15.265 -22.879  0.00  0.00    +0.145 C 
ATOM     24  C   UNL     1      34.171 -16.222 -23.878  0.00  0.00    +0.041 C 
ATOM     25  C   UNL     1      34.613 -15.666 -21.568  0.00  0.00    +0.041 C 
BRANCH  23  26
ATOM     26  O   UNL     1      34.276 -13.941 -23.183  0.00  0.00    -0.453 OA
BRANCH  26  27
ATOM     27  C   UNL     1      33.343 -13.177 -22.501  0.00  0.00    +0.145 C 
ATOM     28  C   UNL     1      32.942 -11.966 -23.035  0.00  0.00    +0.037 C 
ATOM     29  C   UNL     1      32.836 -13.646 -21.302  0.00  0.00    +0.037 C 
ATOM     30  C   UNL     1      32.003 -11.197 -22.347  0.00  0.00    +0.003 C 
ATOM     31  C   UNL     1      31.897 -12.877 -20.615  0.00  0.00    +0.003 C 
ATOM     32  C   UNL     1      31.480 -11.653 -21.137  0.00  0.00    +0.000 C 
ENDBRANCH  26  27
ENDBRANCH  23  26
ENDBRANCH  19  20
ENDBRANCH  18  19
ENDBRANCH   1  18
TORSDOF 13
ENDMDL
MODEL 3
REMARK VINA RESULT:     -11.6      2.468      5.200
REMARK  Name = 9888484
REMARK  13 active torsions:
REMARK  status: ('A' for Active; 'I' for Inactive)
REMARK    1  A    between atoms: C_1  and  C_2
REMARK    2  A    between atoms: C_1  and  C_18
REMARK    3  A    between atoms: C_2  and  O_3
REMARK    4  A    between atoms: O_3  and  C_7
REMARK    5  A    between atoms: C_4  and  C_10
REMARK    6  A    between atoms: C_10  and  C_11
REMARK    7  A    between atoms: C_11  and  O_12
REMARK    8  A    between atoms: C_11  and  C_15
REMARK    9  A    between atoms: C_15  and  O_16
REMARK   10  A    between atoms: C_18  and  O_19
REMARK   11  A    between atoms: O_19  and  C_20
REMARK   12  A    between atoms: C_23  and  O_26
REMARK   13  A    between atoms: O_26  and  C_27
REMARK                            x       y       z     vdW  Elec       q    Type
REMARK                         _______ _______ _______ _____ _____    ______ ____
ROOT
ATOM      1  C   UNL     1      33.606 -20.753 -19.771  0.00  0.00    +0.095 C 
ENDROOT
BRANCH   1   2
ATOM      2  C   UNL     1      34.026 -22.014 -19.032  0.00  0.00    +0.209 C 
BRANCH   2   3
ATOM      3  O   UNL     1      33.691 -21.873 -17.658  0.00  0.00    -0.475 OA
BRANCH   3   7
ATOM      4  C   UNL     1      36.520 -23.150 -14.903  0.00  0.00    -0.019 C 
ATOM      5  C   UNL     1      35.209 -23.619 -14.824  0.00  0.00    -0.001 C 
ATOM      6  C   UNL     1      36.880 -22.251 -15.907  0.00  0.00    -0.001 C 
ATOM      7  C   UNL     1      34.625 -22.295 -16.748  0.00  0.00    +0.139 C 
ATOM      8  C   UNL     1      34.258 -23.190 -15.750  0.00  0.00    +0.037 C 
ATOM      9  C   UNL     1      35.929 -21.822 -16.833  0.00  0.00    +0.037 C 
BRANCH   4  10
ATOM     10  C   UNL     1      37.537 -23.607 -13.912  0.00  0.00    +0.067 C 
BRANCH  10  11
ATOM     11  C   UNL     1      38.156 -24.966 -14.284  0.00  0.00    +0.218 C 
BRANCH  11  12
ATOM     12  O   UNL     1      38.175 -25.786 -13.123  0.00  0.00    -0.342 OA
ATOM     13  C   UNL     1      37.037 -25.553 -12.304  0.00  0.00    +0.175 C 
ENDBRANCH  11  12
BRANCH  11  15
ATOM     14  O   UNL     1      40.446 -24.154 -14.181  0.00  0.00    -0.248 OA
ATOM     15  C   UNL     1      39.587 -24.809 -14.757  0.00  0.00    +0.342 C 
BRANCH  15  16
ATOM     16  O   UNL     1      39.827 -25.502 -15.899  0.00  0.00    -0.479 OA
ATOM     17  H   UNL     1      40.039 -25.044 -16.689  0.00  0.00    +0.295 HD
ENDBRANCH  15  16
ENDBRANCH  11  15
ENDBRANCH  10  11
ENDBRANCH   4  10
ENDBRANCH   3   7
ENDBRANCH   2   3
ENDBRANCH   1   2
BRANCH   1  18
ATOM     18  C   UNL     1      34.782 -20.073 -20.452  0.00  0.00    +0.209 C 
BRANCH  18  19
ATOM     19  O   UNL     1      34.429 -19.710 -21.779  0.00  0.00    -0.475 OA
BRANCH  19  20
ATOM     20  C   UNL     1      34.442 -18.373 -22.080  0.00  0.00    +0.139 C 
ATOM     21  C   UNL     1      34.821 -17.454 -21.109  0.00  0.00    +0.040 C 
ATOM     22  C   UNL     1      34.075 -17.950 -23.353  0.00  0.00    +0.040 C 
ATOM     23  C   UNL     1      34.468 -15.661 -22.689  0.00  0.00    +0.145 C 
ATOM     24  C   UNL     1      34.834 -16.093 -21.413  0.00  0.00    +0.041 C 
ATOM     25  C   UNL     1      34.088 -16.589 -23.658  0.00  0.00    +0.041 C 
BRANCH  23  26
ATOM     26  O   UNL     1      34.482 -14.333 -22.988  0.00  0.00    -0.453 OA
BRANCH  26  27
ATOM     27  C   UNL     1      33.494 -13.537 -22.432  0.00  0.00    +0.145 C 
ATOM     28  C   UNL     1      33.025 -13.832 -21.165  0.00  0.00    +0.037 C 
ATOM     29  C   UNL     1      33.003 -12.468 -23.158  0.00  0.00    +0.037 C 
ATOM     30  C   UNL     1      32.029 -13.032 -20.605  0.00  0.00    +0.003 C 
ATOM     31  C   UNL     1      32.007 -11.667 -22.599  0.00  0.00    +0.003 C 
ATOM     32  C   UNL     1      31.520 -11.949 -21.322  0.00  0.00    +0.000 C 
ENDBRANCH  26  27
ENDBRANCH  23  26
ENDBRANCH  19  20
ENDBRANCH  18  19
ENDBRANCH   1  18
TORSDOF 13
ENDMDL
MODEL 4
REMARK VINA RESULT:     -11.6      3.072      6.309
REMARK  Name = 9888484
REMARK  13 active torsions:
REMARK  status: ('A' for Active; 'I' for Inactive)
REMARK    1  A    between atoms: C_1  and  C_2
REMARK    2  A    between atoms: C_1  and  C_18
REMARK    3  A    between atoms: C_2  and  O_3
REMARK    4  A    between atoms: O_3  and  C_7
REMARK    5  A    between atoms: C_4  and  C_10
REMARK    6  A    between atoms: C_10  and  C_11
REMARK    7  A    between atoms: C_11  and  O_12
REMARK    8  A    between atoms: C_11  and  C_15
REMARK    9  A    between atoms: C_15  and  O_16
REMARK   10  A    between atoms: C_18  and  O_19
REMARK   11  A    between atoms: O_19  and  C_20
REMARK   12  A    between atoms: C_23  and  O_26
REMARK   13  A    between atoms: O_26  and  C_27
REMARK                            x       y       z     vdW  Elec       q    Type
REMARK                         _______ _______ _______ _____ _____    ______ ____
ROOT
ATOM      1  C   UNL     1      35.950 -21.208 -16.743  0.00  0.00    +0.095 C 
ENDROOT
BRANCH   1   2
ATOM      2  C   UNL     1      35.670 -22.431 -15.885  0.00  0.00    +0.209 C 
BRANCH   2   3
ATOM      3  O   UNL     1      34.625 -23.184 -16.487  0.00  0.00    -0.475 OA
BRANCH   3   7
ATOM      4  C   UNL     1      30.757 -22.361 -15.228  0.00  0.00    -0.019 C 
ATOM      5  C   UNL     1      31.737 -22.697 -14.294  0.00  0.00    -0.001 C 
ATOM      6  C   UNL     1      31.076 -22.301 -16.584  0.00  0.00    -0.001 C 
ATOM      7  C   UNL     1      33.348 -22.912 -16.070  0.00  0.00    +0.139 C 
ATOM      8  C   UNL     1      33.038 -22.974 -14.717  0.00  0.00    +0.037 C 
ATOM      9  C   UNL     1      32.377 -22.578 -17.007  0.00  0.00    +0.037 C 
BRANCH   4  10
ATOM     10  C   UNL     1      29.366 -22.066 -14.776  0.00  0.00    +0.067 C 
BRANCH  10  11
ATOM     11  C   UNL     1      28.372 -23.175 -15.159  0.00  0.00    +0.218 C 
BRANCH  11  12
ATOM     12  O   UNL     1      29.103 -24.370 -15.403  0.00  0.00    -0.342 OA
ATOM     13  C   UNL     1      28.928 -25.310 -14.352  0.00  0.00    +0.175 C 
ENDBRANCH  11  12
BRANCH  11  15
ATOM     14  O   UNL     1      27.324 -23.630 -17.305  0.00  0.00    -0.248 OA
ATOM     15  C   UNL     1      27.623 -22.829 -16.430  0.00  0.00    +0.342 C 
BRANCH  15  16
ATOM     16  O   UNL     1      27.294 -21.513 -16.488  0.00  0.00    -0.479 OA
ATOM     17  H   UNL     1      27.858 -20.908 -16.929  0.00  0.00    +0.295 HD
ENDBRANCH  15  16
ENDBRANCH  11  15
ENDBRANCH  10  11
ENDBRANCH   4  10
ENDBRANCH   3   7
ENDBRANCH   2   3
ENDBRANCH   1   2
BRANCH   1  18
ATOM     18  C   UNL     1      36.072 -21.560 -18.217  0.00  0.00    +0.209 C 
BRANCH  18  19
ATOM     19  O   UNL     1      34.858 -21.253 -18.888  0.00  0.00    -0.475 OA
BRANCH  19  20
ATOM     20  C   UNL     1      34.907 -20.260 -19.832  0.00  0.00    +0.139 C 
ATOM     21  C   UNL     1      33.773 -19.965 -20.580  0.00  0.00    +0.040 C 
ATOM     22  C   UNL     1      36.090 -19.557 -20.031  0.00  0.00    +0.040 C 
ATOM     23  C   UNL     1      35.006 -18.246 -21.745  0.00  0.00    +0.145 C 
ATOM     24  C   UNL     1      33.822 -18.956 -21.541  0.00  0.00    +0.041 C 
ATOM     25  C   UNL     1      36.140 -18.547 -20.991  0.00  0.00    +0.041 C 
BRANCH  23  26
ATOM     26  O   UNL     1      35.055 -17.259 -22.682  0.00  0.00    -0.453 OA
BRANCH  26  27
ATOM     27  C   UNL     1      34.557 -16.015 -22.332  0.00  0.00    +0.145 C 
ATOM     28  C   UNL     1      34.290 -15.744 -21.003  0.00  0.00    +0.037 C 
ATOM     29  C   UNL     1      34.339 -15.074 -23.323  0.00  0.00    +0.037 C 
ATOM     30  C   UNL     1      33.787 -14.492 -20.651  0.00  0.00    +0.003 C 
ATOM     31  C   UNL     1      33.837 -13.821 -22.971  0.00  0.00    +0.003 C 
ATOM     32  C   UNL     1      33.562 -13.530 -21.635  0.00  0.00    +0.000 C 
ENDBRANCH  26  27
ENDBRANCH  23  26
ENDBRANCH  19  20
ENDBRANCH  18  19
ENDBRANCH   1  18
TORSDOF 13
ENDMDL
MODEL 5
REMARK VINA RESULT:     -11.5      1.361     11.273
REMARK  Name = 9888484
REMARK  13 active torsions:
REMARK  status: ('A' for Active; 'I' for Inactive)
REMARK    1  A    between atoms: C_1  and  C_2
REMARK    2  A    between atoms: C_1  and  C_18
REMARK    3  A    between atoms: C_2  and  O_3
REMARK    4  A    between atoms: O_3  and  C_7
REMARK    5  A    between atoms: C_4  and  C_10
REMARK    6  A    between atoms: C_10  and  C_11
REMARK    7  A    between atoms: C_11  and  O_12
REMARK    8  A    between atoms: C_11  and  C_15
REMARK    9  A    between atoms: C_15  and  O_16
REMARK   10  A    between atoms: C_18  and  O_19
REMARK   11  A    between atoms: O_19  and  C_20
REMARK   12  A    between atoms: C_23  and  O_26
REMARK   13  A    between atoms: O_26  and  C_27
REMARK                            x       y       z     vdW  Elec       q    Type
REMARK                         _______ _______ _______ _____ _____    ______ ____
ROOT
ATOM      1  C   UNL     1      34.352 -17.254 -23.095  0.00  0.00    +0.095 C 
ENDROOT
BRANCH   1   2
ATOM      2  C   UNL     1      34.592 -16.216 -22.011  0.00  0.00    +0.209 C 
BRANCH   2   3
ATOM      3  O   UNL     1      34.746 -14.942 -22.621  0.00  0.00    -0.475 OA
BRANCH   3   7
ATOM      4  C   UNL     1      31.842 -12.101 -21.772  0.00  0.00    -0.019 C 
ATOM      5  C   UNL     1      32.344 -12.218 -23.068  0.00  0.00    -0.001 C 
ATOM      6  C   UNL     1      32.316 -12.937 -20.761  0.00  0.00    -0.001 C 
ATOM      7  C   UNL     1      33.786 -14.004 -22.341  0.00  0.00    +0.139 C 
ATOM      8  C   UNL     1      33.320 -13.173 -23.354  0.00  0.00    +0.037 C 
ATOM      9  C   UNL     1      33.292 -13.892 -21.047  0.00  0.00    +0.037 C 
BRANCH   4  10
ATOM     10  C   UNL     1      30.799 -11.079 -21.465  0.00  0.00    +0.067 C 
BRANCH  10  11
ATOM     11  C   UNL     1      31.400  -9.739 -21.010  0.00  0.00    +0.218 C 
BRANCH  11  12
ATOM     12  O   UNL     1      30.704  -9.304 -19.849  0.00  0.00    -0.342 OA
ATOM     13  C   UNL     1      31.415  -9.632 -18.664  0.00  0.00    +0.175 C 
ENDBRANCH  11  12
BRANCH  11  15
ATOM     14  O   UNL     1      31.279  -8.870 -23.278  0.00  0.00    -0.248 OA
ATOM     15  C   UNL     1      31.230  -8.670 -22.071  0.00  0.00    +0.342 C 
BRANCH  15  16
ATOM     16  O   UNL     1      30.993  -7.447 -21.533  0.00  0.00    -0.479 OA
ATOM     17  H   UNL     1      31.460  -7.173 -20.768  0.00  0.00    +0.295 HD
ENDBRANCH  15  16
ENDBRANCH  11  15
ENDBRANCH  10  11
ENDBRANCH   4  10
ENDBRANCH   3   7
ENDBRANCH   2   3
ENDBRANCH   1   2
BRANCH   1  18
ATOM     18  C   UNL     1      34.283 -18.664 -22.530  0.00  0.00    +0.209 C 
BRANCH  18  19
ATOM     19  O   UNL     1      34.558 -18.639 -21.136  0.00  0.00    -0.475 OA
BRANCH  19  20
ATOM     20  C   UNL     1      34.212 -19.753 -20.417  0.00  0.00    +0.139 C 
ATOM     21  C   UNL     1      32.870 -20.072 -20.245  0.00  0.00    +0.040 C 
ATOM     22  C   UNL     1      35.207 -20.555 -19.868  0.00  0.00    +0.040 C 
ATOM     23  C   UNL     1      33.510 -22.015 -18.960  0.00  0.00    +0.145 C 
ATOM     24  C   UNL     1      32.517 -21.205 -19.513  0.00  0.00    +0.041 C 
ATOM     25  C   UNL     1      34.855 -21.689 -19.137  0.00  0.00    +0.041 C 
BRANCH  23  26
ATOM     26  O   UNL     1      33.167 -23.123 -18.247  0.00  0.00    -0.453 OA
BRANCH  26  27
ATOM     27  C   UNL     1      32.756 -22.943 -16.937  0.00  0.00    +0.145 C 
ATOM     28  C   UNL     1      31.420 -22.698 -16.676  0.00  0.00    +0.037 C 
ATOM     29  C   UNL     1      33.693 -23.012 -15.922  0.00  0.00    +0.037 C 
ATOM     30  C   UNL     1      31.007 -22.516 -15.356  0.00  0.00    +0.003 C 
ATOM     31  C   UNL     1      33.281 -22.831 -14.602  0.00  0.00    +0.003 C 
ATOM     32  C   UNL     1      31.937 -22.583 -14.319  0.00  0.00    +0.000 C 
ENDBRANCH  26  27
ENDBRANCH  23  26
ENDBRANCH  19  20
ENDBRANCH  18  19
ENDBRANCH   1  18
TORSDOF 13
ENDMDL
MODEL 6
REMARK VINA RESULT:     -11.3      4.479      8.266
REMARK  Name = 9888484
REMARK  13 active torsions:
REMARK  status: ('A' for Active; 'I' for Inactive)
REMARK    1  A    between atoms: C_1  and  C_2
REMARK    2  A    between atoms: C_1  and  C_18
REMARK    3  A    between atoms: C_2  and  O_3
REMARK    4  A    between atoms: O_3  and  C_7
REMARK    5  A    between atoms: C_4  and  C_10
REMARK    6  A    between atoms: C_10  and  C_11
REMARK    7  A    between atoms: C_11  and  O_12
REMARK    8  A    between atoms: C_11  and  C_15
REMARK    9  A    between atoms: C_15  and  O_16
REMARK   10  A    between atoms: C_18  and  O_19
REMARK   11  A    between atoms: O_19  and  C_20
REMARK   12  A    between atoms: C_23  and  O_26
REMARK   13  A    between atoms: O_26  and  C_27
REMARK                            x       y       z     vdW  Elec       q    Type
REMARK                         _______ _______ _______ _____ _____    ______ ____
ROOT
ATOM      1  C   UNL     1      31.214 -22.940 -15.851  0.00  0.00    +0.095 C 
ENDROOT
BRANCH   1   2
ATOM      2  C   UNL     1      31.717 -23.598 -14.577  0.00  0.00    +0.209 C 
BRANCH   2   3
ATOM      3  O   UNL     1      32.586 -22.695 -13.906  0.00  0.00    -0.475 OA
BRANCH   3   7
ATOM      4  C   UNL     1      36.488 -23.968 -13.287  0.00  0.00    -0.019 C 
ATOM      5  C   UNL     1      36.173 -23.208 -14.413  0.00  0.00    -0.001 C 
ATOM      6  C   UNL     1      35.492 -24.301 -12.369  0.00  0.00    -0.001 C 
ATOM      7  C   UNL     1      33.875 -23.115 -13.702  0.00  0.00    +0.139 C 
ATOM      8  C   UNL     1      34.862 -22.780 -14.622  0.00  0.00    +0.037 C 
ATOM      9  C   UNL     1      34.181 -23.873 -12.578  0.00  0.00    +0.037 C 
BRANCH   4  10
ATOM     10  C   UNL     1      37.890 -24.426 -13.064  0.00  0.00    +0.067 C 
BRANCH  10  11
ATOM     11  C   UNL     1      38.483 -25.134 -14.294  0.00  0.00    +0.218 C 
BRANCH  11  12
ATOM     12  O   UNL     1      38.114 -26.507 -14.246  0.00  0.00    -0.342 OA
ATOM     13  C   UNL     1      36.857 -26.729 -14.870  0.00  0.00    +0.175 C 
ENDBRANCH  11  12
BRANCH  11  15
ATOM     14  O   UNL     1      40.651 -24.042 -14.158  0.00  0.00    -0.248 OA
ATOM     15  C   UNL     1      39.997 -25.067 -14.292  0.00  0.00    +0.342 C 
BRANCH  15  16
ATOM     16  O   UNL     1      40.563 -26.293 -14.436  0.00  0.00    -0.479 OA
ATOM     17  H   UNL     1      40.844 -26.771 -13.681  0.00  0.00    +0.295 HD
ENDBRANCH  15  16
ENDBRANCH  11  15
ENDBRANCH  10  11
ENDBRANCH   4  10
ENDBRANCH   3   7
ENDBRANCH   2   3
ENDBRANCH   1   2
BRANCH   1  18
ATOM     18  C   UNL     1      32.317 -22.778 -16.884  0.00  0.00    +0.209 C 
BRANCH  18  19
ATOM     19  O   UNL     1      31.812 -22.104 -18.029  0.00  0.00    -0.475 OA
BRANCH  19  20
ATOM     20  C   UNL     1      32.719 -21.423 -18.796  0.00  0.00    +0.139 C 
ATOM     21  C   UNL     1      34.072 -21.729 -18.696  0.00  0.00    +0.040 C 
ATOM     22  C   UNL     1      32.279 -20.433 -19.669  0.00  0.00    +0.040 C 
ATOM     23  C   UNL     1      34.562 -20.041 -20.354  0.00  0.00    +0.145 C 
ATOM     24  C   UNL     1      34.997 -21.035 -19.477  0.00  0.00    +0.041 C 
ATOM     25  C   UNL     1      33.203 -19.740 -20.449  0.00  0.00    +0.041 C 
BRANCH  23  26
ATOM     26  O   UNL     1      35.464 -19.365 -21.118  0.00  0.00    -0.453 OA
BRANCH  26  27
ATOM     27  C   UNL     1      34.982 -18.376 -21.959  0.00  0.00    +0.145 C 
ATOM     28  C   UNL     1      35.082 -17.053 -21.571  0.00  0.00    +0.037 C 
ATOM     29  C   UNL     1      34.412 -18.738 -23.166  0.00  0.00    +0.037 C 
ATOM     30  C   UNL     1      34.595 -16.057 -22.417  0.00  0.00    +0.003 C 
ATOM     31  C   UNL     1      33.925 -17.743 -24.013  0.00  0.00    +0.003 C 
ATOM     32  C   UNL     1      34.018 -16.402 -23.639  0.00  0.00    +0.000 C 
ENDBRANCH  26  27
ENDBRANCH  23  26
ENDBRANCH  19  20
ENDBRANCH  18  19
ENDBRANCH   1  18
TORSDOF 13
ENDMDL
MODEL 7
REMARK VINA RESULT:     -11.2      2.931      6.618
REMARK  Name = 9888484
REMARK  13 active torsions:
REMARK  status: ('A' for Active; 'I' for Inactive)
REMARK    1  A    between atoms: C_1  and  C_2
REMARK    2  A    between atoms: C_1  and  C_18
REMARK    3  A    between atoms: C_2  and  O_3
REMARK    4  A    between atoms: O_3  and  C_7
REMARK    5  A    between atoms: C_4  and  C_10
REMARK    6  A    between atoms: C_10  and  C_11
REMARK    7  A    between atoms: C_11  and  O_12
REMARK    8  A    between atoms: C_11  and  C_15
REMARK    9  A    between atoms: C_15  and  O_16
REMARK   10  A    between atoms: C_18  and  O_19
REMARK   11  A    between atoms: O_19  and  C_20
REMARK   12  A    between atoms: C_23  and  O_26
REMARK   13  A    between atoms: O_26  and  C_27
REMARK                            x       y       z     vdW  Elec       q    Type
REMARK                         _______ _______ _______ _____ _____    ______ ____
ROOT
ATOM      1  C   UNL     1      33.333 -22.925 -18.682  0.00  0.00    +0.095 C 
ENDROOT
BRANCH   1   2
ATOM      2  C   UNL     1      32.846 -23.294 -17.290  0.00  0.00    +0.209 C 
BRANCH   2   3
ATOM      3  O   UNL     1      33.396 -22.377 -16.354  0.00  0.00    -0.475 OA
BRANCH   3   7
ATOM      4  C   UNL     1      36.957 -23.479 -14.529  0.00  0.00    -0.019 C 
ATOM      5  C   UNL     1      35.802 -24.230 -14.312  0.00  0.00    -0.001 C 
ATOM      6  C   UNL     1      36.916 -22.359 -15.357  0.00  0.00    -0.001 C 
ATOM      7  C   UNL     1      34.573 -22.742 -15.751  0.00  0.00    +0.139 C 
ATOM      8  C   UNL     1      34.605 -23.860 -14.926  0.00  0.00    +0.037 C 
ATOM      9  C   UNL     1      35.719 -21.988 -15.971  0.00  0.00    +0.037 C 
BRANCH   4  10
ATOM     10  C   UNL     1      38.237 -23.874 -13.872  0.00  0.00    +0.067 C 
BRANCH  10  11
ATOM     11  C   UNL     1      38.457 -25.396 -13.873  0.00  0.00    +0.218 C 
BRANCH  11  12
ATOM     12  O   UNL     1      38.456 -25.853 -12.526  0.00  0.00    -0.342 OA
ATOM     13  C   UNL     1      37.169 -25.728 -11.936  0.00  0.00    +0.175 C 
ENDBRANCH  11  12
BRANCH  11  15
ATOM     14  O   UNL     1      40.721 -26.283 -13.867  0.00  0.00    -0.248 OA
ATOM     15  C   UNL     1      39.798 -25.759 -14.477  0.00  0.00    +0.342 C 
BRANCH  15  16
ATOM     16  O   UNL     1      39.864 -25.455 -15.799  0.00  0.00    -0.479 OA
ATOM     17  H   UNL     1      40.695 -25.302 -16.203  0.00  0.00    +0.295 HD
ENDBRANCH  15  16
ENDBRANCH  11  15
ENDBRANCH  10  11
ENDBRANCH   4  10
ENDBRANCH   3   7
ENDBRANCH   2   3
ENDBRANCH   1   2
BRANCH   1  18
ATOM     18  C   UNL     1      33.496 -21.424 -18.850  0.00  0.00    +0.209 C 
BRANCH  18  19
ATOM     19  O   UNL     1      34.785 -21.134 -19.374  0.00  0.00    -0.475 OA
BRANCH  19  20
ATOM     20  C   UNL     1      34.877 -20.078 -20.243  0.00  0.00    +0.139 C 
ATOM     21  C   UNL     1      36.081 -19.394 -20.369  0.00  0.00    +0.040 C 
ATOM     22  C   UNL     1      33.767 -19.702 -20.990  0.00  0.00    +0.040 C 
ATOM     23  C   UNL     1      35.065 -17.937 -22.006  0.00  0.00    +0.145 C 
ATOM     24  C   UNL     1      36.176 -18.319 -21.252  0.00  0.00    +0.041 C 
ATOM     25  C   UNL     1      33.861 -18.628 -21.874  0.00  0.00    +0.041 C 
BRANCH  23  26
ATOM     26  O   UNL     1      35.157 -16.889 -22.870  0.00  0.00    -0.453 OA
BRANCH  26  27
ATOM     27  C   UNL     1      34.544 -15.701 -22.508  0.00  0.00    +0.145 C 
ATOM     28  C   UNL     1      34.301 -15.447 -21.171  0.00  0.00    +0.037 C 
ATOM     29  C   UNL     1      34.189 -14.799 -23.495  0.00  0.00    +0.037 C 
ATOM     30  C   UNL     1      33.682 -14.251 -20.807  0.00  0.00    +0.003 C 
ATOM     31  C   UNL     1      33.570 -13.603 -23.132  0.00  0.00    +0.003 C 
ATOM     32  C   UNL     1      33.317 -13.329 -21.788  0.00  0.00    +0.000 C 
ENDBRANCH  26  27
ENDBRANCH  23  26
ENDBRANCH  19  20
ENDBRANCH  18  19
ENDBRANCH   1  18
TORSDOF 13
ENDMDL
MODEL 8
REMARK VINA RESULT:     -11.2      0.894      1.537
REMARK  Name = 9888484
REMARK  13 active torsions:
REMARK  status: ('A' for Active; 'I' for Inactive)
REMARK    1  A    between atoms: C_1  and  C_2
REMARK    2  A    between atoms: C_1  and  C_18
REMARK    3  A    between atoms: C_2  and  O_3
REMARK    4  A    between atoms: O_3  and  C_7
REMARK    5  A    between atoms: C_4  and  C_10
REMARK    6  A    between atoms: C_10  and  C_11
REMARK    7  A    between atoms: C_11  and  O_12
REMARK    8  A    between atoms: C_11  and  C_15
REMARK    9  A    between atoms: C_15  and  O_16
REMARK   10  A    between atoms: C_18  and  O_19
REMARK   11  A    between atoms: O_19  and  C_20
REMARK   12  A    between atoms: C_23  and  O_26
REMARK   13  A    between atoms: O_26  and  C_27
REMARK                            x       y       z     vdW  Elec       q    Type
REMARK                         _______ _______ _______ _____ _____    ______ ____
ROOT
ATOM      1  C   UNL     1      35.210 -17.308 -21.420  0.00  0.00    +0.095 C 
ENDROOT
BRANCH   1   2
ATOM      2  C   UNL     1      34.486 -18.639 -21.538  0.00  0.00    +0.209 C 
BRANCH   2   3
ATOM      3  O   UNL     1      35.248 -19.636 -20.871  0.00  0.00    -0.475 OA
BRANCH   3   7
ATOM      4  C   UNL     1      33.241 -21.974 -18.090  0.00  0.00    -0.019 C 
ATOM      5  C   UNL     1      34.636 -21.964 -18.115  0.00  0.00    -0.001 C 
ATOM      6  C   UNL     1      32.521 -21.199 -18.999  0.00  0.00    -0.001 C 
ATOM      7  C   UNL     1      34.586 -20.408 -19.952  0.00  0.00    +0.139 C 
ATOM      8  C   UNL     1      35.311 -21.178 -19.050  0.00  0.00    +0.037 C 
ATOM      9  C   UNL     1      33.196 -20.414 -19.934  0.00  0.00    +0.037 C 
BRANCH   4  10
ATOM     10  C   UNL     1      32.519 -22.814 -17.091  0.00  0.00    +0.067 C 
BRANCH  10  11
ATOM     11  C   UNL     1      33.237 -22.865 -15.732  0.00  0.00    +0.218 C 
BRANCH  11  12
ATOM     12  O   UNL     1      34.113 -23.985 -15.727  0.00  0.00    -0.342 OA
ATOM     13  C   UNL     1      35.275 -23.732 -14.949  0.00  0.00    +0.175 C 
ENDBRANCH  11  12
BRANCH  11  15
ATOM     14  O   UNL     1      31.717 -24.110 -14.299  0.00  0.00    -0.248 OA
ATOM     15  C   UNL     1      32.252 -23.049 -14.596  0.00  0.00    +0.342 C 
BRANCH  15  16
ATOM     16  O   UNL     1      32.035 -21.896 -13.913  0.00  0.00    -0.479 OA
ATOM     17  H   UNL     1      31.357 -21.310 -14.187  0.00  0.00    +0.295 HD
ENDBRANCH  15  16
ENDBRANCH  11  15
ENDBRANCH  10  11
ENDBRANCH   4  10
ENDBRANCH   3   7
ENDBRANCH   2   3
ENDBRANCH   1   2
BRANCH   1  18
ATOM     18  C   UNL     1      34.371 -16.154 -21.945  0.00  0.00    +0.209 C 
BRANCH  18  19
ATOM     19  O   UNL     1      34.405 -15.073 -21.023  0.00  0.00    -0.475 OA
BRANCH  19  20
ATOM     20  C   UNL     1      33.553 -14.028 -21.264  0.00  0.00    +0.139 C 
ATOM     21  C   UNL     1      32.483 -13.801 -20.406  0.00  0.00    +0.040 C 
ATOM     22  C   UNL     1      33.767 -13.203 -22.363  0.00  0.00    +0.040 C 
ATOM     23  C   UNL     1      31.823 -11.906 -21.752  0.00  0.00    +0.145 C 
ATOM     24  C   UNL     1      31.614 -12.737 -20.650  0.00  0.00    +0.041 C 
ATOM     25  C   UNL     1      32.899 -12.140 -22.608  0.00  0.00    +0.041 C 
BRANCH  23  26
ATOM     26  O   UNL     1      30.977 -10.866 -21.990  0.00  0.00    -0.453 OA
BRANCH  26  27
ATOM     27  C   UNL     1      31.279  -9.645 -21.410  0.00  0.00    +0.145 C 
ATOM     28  C   UNL     1      31.759  -8.621 -22.206  0.00  0.00    +0.037 C 
ATOM     29  C   UNL     1      31.092  -9.482 -20.050  0.00  0.00    +0.037 C 
ATOM     30  C   UNL     1      32.064  -7.392 -21.621  0.00  0.00    +0.003 C 
ATOM     31  C   UNL     1      31.396  -8.253 -19.465  0.00  0.00    +0.003 C 
ATOM     32  C   UNL     1      31.881  -7.207 -20.251  0.00  0.00    +0.000 C 
ENDBRANCH  26  27
ENDBRANCH  23  26
ENDBRANCH  19  20
ENDBRANCH  18  19
ENDBRANCH   1  18
TORSDOF 13
ENDMDL
MODEL 9
REMARK VINA RESULT:     -11.1      2.044      3.417
REMARK  Name = 9888484
REMARK  13 active torsions:
REMARK  status: ('A' for Active; 'I' for Inactive)
REMARK    1  A    between atoms: C_1  and  C_2
REMARK    2  A    between atoms: C_1  and  C_18
REMARK    3  A    between atoms: C_2  and  O_3
REMARK    4  A    between atoms: O_3  and  C_7
REMARK    5  A    between atoms: C_4  and  C_10
REMARK    6  A    between atoms: C_10  and  C_11
REMARK    7  A    between atoms: C_11  and  O_12
REMARK    8  A    between atoms: C_11  and  C_15
REMARK    9  A    between atoms: C_15  and  O_16
REMARK   10  A    between atoms: C_18  and  O_19
REMARK   11  A    between atoms: O_19  and  C_20
REMARK   12  A    between atoms: C_23  and  O_26
REMARK   13  A    between atoms: O_26  and  C_27
REMARK                            x       y       z     vdW  Elec       q    Type
REMARK                         _______ _______ _______ _____ _____    ______ ____
ROOT
ATOM      1  C   UNL     1      34.488 -18.764 -21.084  0.00  0.00    +0.095 C 
ENDROOT
BRANCH   1   2
ATOM      2  C   UNL     1      35.364 -19.817 -20.423  0.00  0.00    +0.209 C 
BRANCH   2   3
ATOM      3  O   UNL     1      34.540 -20.888 -19.983  0.00  0.00    -0.475 OA
BRANCH   3   7
ATOM      4  C   UNL     1      35.279 -22.379 -16.181  0.00  0.00    -0.019 C 
ATOM      5  C   UNL     1      36.281 -21.692 -16.867  0.00  0.00    -0.001 C 
ATOM      6  C   UNL     1      34.030 -22.565 -16.772  0.00  0.00    -0.001 C 
ATOM      7  C   UNL     1      34.785 -21.380 -18.727  0.00  0.00    +0.139 C 
ATOM      8  C   UNL     1      36.033 -21.191 -18.145  0.00  0.00    +0.037 C 
ATOM      9  C   UNL     1      33.782 -22.064 -18.050  0.00  0.00    +0.037 C 
BRANCH   4  10
ATOM     10  C   UNL     1      35.544 -22.916 -14.814  0.00  0.00    +0.067 C 
BRANCH  10  11
ATOM     11  C   UNL     1      36.507 -24.115 -14.827  0.00  0.00    +0.218 C 
BRANCH  11  12
ATOM     12  O   UNL     1      35.927 -25.166 -14.064  0.00  0.00    -0.342 OA
ATOM     13  C   UNL     1      36.630 -26.387 -14.244  0.00  0.00    +0.175 C 
ENDBRANCH  11  12
BRANCH  11  15
ATOM     14  O   UNL     1      37.989 -23.493 -13.002  0.00  0.00    -0.248 OA
ATOM     15  C   UNL     1      37.834 -23.763 -14.186  0.00  0.00    +0.342 C 
BRANCH  15  16
ATOM     16  O   UNL     1      38.858 -23.800 -15.076  0.00  0.00    -0.479 OA
ATOM     17  H   UNL     1      38.722 -24.157 -15.932  0.00  0.00    +0.295 HD
ENDBRANCH  15  16
ENDBRANCH  11  15
ENDBRANCH  10  11
ENDBRANCH   4  10
ENDBRANCH   3   7
ENDBRANCH   2   3
ENDBRANCH   1   2
BRANCH   1  18
ATOM     18  C   UNL     1      35.256 -17.485 -21.375  0.00  0.00    +0.209 C 
BRANCH  18  19
ATOM     19  O   UNL     1      34.698 -16.408 -20.634  0.00  0.00    -0.475 OA
BRANCH  19  20
ATOM     20  C   UNL     1      34.255 -15.327 -21.351  0.00  0.00    +0.139 C 
ATOM     21  C   UNL     1      34.228 -15.388 -22.739  0.00  0.00    +0.040 C 
ATOM     22  C   UNL     1      33.838 -14.181 -20.682  0.00  0.00    +0.040 C 
ATOM     23  C   UNL     1      33.357 -13.135 -22.806  0.00  0.00    +0.145 C 
ATOM     24  C   UNL     1      33.779 -14.288 -23.470  0.00  0.00    +0.041 C 
ATOM     25  C   UNL     1      33.388 -13.082 -21.413  0.00  0.00    +0.041 C 
BRANCH  23  26
ATOM     26  O   UNL     1      32.917 -12.062 -23.518  0.00  0.00    -0.453 OA
BRANCH  26  27
ATOM     27  C   UNL     1      32.224 -11.076 -22.835  0.00  0.00    +0.145 C 
ATOM     28  C   UNL     1      31.205 -11.441 -21.975  0.00  0.00    +0.037 C 
ATOM     29  C   UNL     1      32.570  -9.752 -23.032  0.00  0.00    +0.037 C 
ATOM     30  C   UNL     1      30.507 -10.448 -21.288  0.00  0.00    +0.003 C 
ATOM     31  C   UNL     1      31.873  -8.758 -22.345  0.00  0.00    +0.003 C 
ATOM     32  C   UNL     1      30.841  -9.106 -21.473  0.00  0.00    +0.000 C 
ENDBRANCH  26  27
ENDBRANCH  23  26
ENDBRANCH  19  20
ENDBRANCH  18  19
ENDBRANCH   1  18
TORSDOF 13
ENDMDL
