MODEL 1
REMARK VINA RESULT:     -12.6      0.000      0.000
REMARK  Name = 24958200
REMARK  3 active torsions:
REMARK  status: ('A' for Active; 'I' for Inactive)
REMARK    1  A    between atoms: N_1  and  C_13
REMARK    2  A    between atoms: C_6  and  C_26
REMARK    3  A    between atoms: C_10  and  C_17
REMARK                            x       y       z     vdW  Elec       q    Type
REMARK                         _______ _______ _______ _____ _____    ______ ____
ROOT
ATOM      1  N   UNL     1      31.966 -22.484 -16.912  0.00  0.00    -0.189 N 
ATOM      2  N   UNL     1      30.623 -22.578 -16.961  0.00  0.00    -0.174 NA
ATOM      3  C   UNL     1      31.488 -23.584 -15.117  0.00  0.00    +0.036 C 
ATOM      4  C   UNL     1      32.541 -23.073 -15.823  0.00  0.00    +0.091 C 
ATOM      5  C   UNL     1      30.288 -23.261 -15.852  0.00  0.00    +0.105 C 
ATOM      6  C   UNL     1      29.027 -23.658 -15.372  0.00  0.00    +0.072 C 
ATOM      7  C   UNL     1      31.578 -24.280 -13.919  0.00  0.00    +0.003 C 
ATOM      8  C   UNL     1      29.085 -24.370 -14.154  0.00  0.00    +0.006 C 
ATOM      9  C   UNL     1      30.303 -24.666 -13.463  0.00  0.00    +0.000 C 
ENDROOT
BRANCH   1  13
ATOM     10  C   UNL     1      34.035 -20.514 -19.953  0.00  0.00    -0.024 C 
ATOM     11  C   UNL     1      34.726 -21.317 -19.046  0.00  0.00    -0.003 C 
ATOM     12  C   UNL     1      32.651 -20.370 -19.844  0.00  0.00    -0.003 C 
ATOM     13  C   UNL     1      32.652 -21.831 -17.919  0.00  0.00    +0.074 C 
ATOM     14  C   UNL     1      34.035 -21.975 -18.029  0.00  0.00    +0.016 C 
ATOM     15  C   UNL     1      31.960 -21.028 -18.827  0.00  0.00    +0.016 C 
BRANCH  10  17
ATOM     16  N   UNL     1      34.588 -18.290 -23.021  0.00  0.00    +0.384 N 
ATOM     17  C   UNL     1      34.787 -19.795 -21.058  0.00  0.00    +0.001 C 
ATOM     18  C   UNL     1      35.930 -18.931 -20.502  0.00  0.00    +0.000 C 
ATOM     19  C   UNL     1      33.849 -18.953 -21.943  0.00  0.00    -0.077 C 
ATOM     20  C   UNL     1      36.632 -18.185 -21.635  0.00  0.00    -0.023 C 
ATOM     21  C   UNL     1      35.633 -17.413 -22.494  0.00  0.00    -0.082 C 
ATOM     22  H   UNL     1      33.937 -17.735 -23.576  0.00  0.00    -0.085 HD
ATOM     23  H   UNL     1      35.032 -19.009 -23.594  0.00  0.00    -0.085 HD
ENDBRANCH  10  17
ENDBRANCH   1  13
BRANCH   6  26
ATOM     24  O   UNL     1      27.386 -24.061 -17.012  0.00  0.00    -0.270 OA
ATOM     25  N   UNL     1      27.024 -22.291 -15.602  0.00  0.00    -0.325 N 
ATOM     26  C   UNL     1      27.785 -23.368 -16.055  0.00  0.00    +0.244 C 
ATOM     27  H   UNL     1      26.173 -22.067 -16.045  0.00  0.00    +0.145 HD
ATOM     28  H   UNL     1      27.336 -21.754 -14.837  0.00  0.00    +0.145 HD
ENDBRANCH   6  26
TORSDOF 3
ENDMDL
MODEL 2
REMARK VINA RESULT:     -12.1      1.087      1.379
REMARK  Name = 24958200
REMARK  3 active torsions:
REMARK  status: ('A' for Active; 'I' for Inactive)
REMARK    1  A    between atoms: N_1  and  C_13
REMARK    2  A    between atoms: C_6  and  C_26
REMARK    3  A    between atoms: C_10  and  C_17
REMARK                            x       y       z     vdW  Elec       q    Type
REMARK                         _______ _______ _______ _____ _____    ______ ____
ROOT
ATOM      1  N   UNL     1      32.777 -22.125 -17.342  0.00  0.00    -0.189 N 
ATOM      2  N   UNL     1      31.467 -22.374 -17.151  0.00  0.00    -0.174 NA
ATOM      3  C   UNL     1      32.762 -23.288 -15.523  0.00  0.00    +0.036 C 
ATOM      4  C   UNL     1      33.603 -22.652 -16.392  0.00  0.00    +0.091 C 
ATOM      5  C   UNL     1      31.420 -23.101 -16.019  0.00  0.00    +0.105 C 
ATOM      6  C   UNL     1      30.320 -23.646 -15.332  0.00  0.00    +0.072 C 
ATOM      7  C   UNL     1      33.147 -23.979 -14.382  0.00  0.00    +0.003 C 
ATOM      8  C   UNL     1      30.679 -24.356 -14.166  0.00  0.00    +0.006 C 
ATOM      9  C   UNL     1      32.028 -24.513 -13.714  0.00  0.00    +0.000 C 
ENDROOT
BRANCH   1  13
ATOM     10  C   UNL     1      34.021 -19.903 -20.647  0.00  0.00    -0.024 C 
ATOM     11  C   UNL     1      34.959 -20.580 -19.868  0.00  0.00    -0.003 C 
ATOM     12  C   UNL     1      32.665 -19.969 -20.321  0.00  0.00    -0.003 C 
ATOM     13  C   UNL     1      33.189 -21.388 -18.436  0.00  0.00    +0.074 C 
ATOM     14  C   UNL     1      34.544 -21.323 -18.763  0.00  0.00    +0.016 C 
ATOM     15  C   UNL     1      32.250 -20.712 -19.216  0.00  0.00    +0.016 C 
BRANCH  10  17
ATOM     16  N   UNL     1      33.865 -18.289 -24.116  0.00  0.00    +0.384 N 
ATOM     17  C   UNL     1      34.473 -19.093 -21.848  0.00  0.00    +0.001 C 
ATOM     18  C   UNL     1      34.898 -17.670 -21.450  0.00  0.00    +0.000 C 
ATOM     19  C   UNL     1      33.400 -19.050 -22.954  0.00  0.00    -0.077 C 
ATOM     20  C   UNL     1      35.298 -16.870 -22.688  0.00  0.00    -0.023 C 
ATOM     21  C   UNL     1      34.206 -16.913 -23.754  0.00  0.00    -0.082 C 
ATOM     22  H   UNL     1      33.126 -18.274 -24.819  0.00  0.00    -0.085 HD
ATOM     23  H   UNL     1      34.704 -18.742 -24.481  0.00  0.00    -0.085 HD
ENDBRANCH  10  17
ENDBRANCH   1  13
BRANCH   6  26
ATOM     24  O   UNL     1      28.065 -24.315 -15.449  0.00  0.00    -0.270 OA
ATOM     25  N   UNL     1      28.631 -22.392 -16.562  0.00  0.00    -0.325 N 
ATOM     26  C   UNL     1      28.949 -23.497 -15.772  0.00  0.00    +0.244 C 
ATOM     27  H   UNL     1      27.708 -22.261 -16.877  0.00  0.00    +0.145 HD
ATOM     28  H   UNL     1      29.330 -21.742 -16.803  0.00  0.00    +0.145 HD
ENDBRANCH   6  26
TORSDOF 3
ENDMDL
MODEL 3
REMARK VINA RESULT:     -12.1      4.264      5.464
REMARK  Name = 24958200
REMARK  3 active torsions:
REMARK  status: ('A' for Active; 'I' for Inactive)
REMARK    1  A    between atoms: N_1  and  C_13
REMARK    2  A    between atoms: C_6  and  C_26
REMARK    3  A    between atoms: C_10  and  C_17
REMARK                            x       y       z     vdW  Elec       q    Type
REMARK                         _______ _______ _______ _____ _____    ______ ____
ROOT
ATOM      1  N   UNL     1      35.446 -22.720 -15.510  0.00  0.00    -0.189 N 
ATOM      2  N   UNL     1      36.370 -23.676 -15.290  0.00  0.00    -0.174 NA
ATOM      3  C   UNL     1      35.054 -23.317 -13.474  0.00  0.00    +0.036 C 
ATOM      4  C   UNL     1      34.626 -22.462 -14.451  0.00  0.00    +0.091 C 
ATOM      5  C   UNL     1      36.153 -24.073 -14.023  0.00  0.00    +0.105 C 
ATOM      6  C   UNL     1      36.811 -25.046 -13.248  0.00  0.00    +0.072 C 
ATOM      7  C   UNL     1      34.515 -23.423 -12.198  0.00  0.00    +0.003 C 
ATOM      8  C   UNL     1      36.287 -25.177 -11.943  0.00  0.00    +0.006 C 
ATOM      9  C   UNL     1      35.192 -24.402 -11.445  0.00  0.00    +0.000 C 
ENDROOT
BRANCH   1  13
ATOM     10  C   UNL     1      35.266 -20.804 -19.213  0.00  0.00    -0.024 C 
ATOM     11  C   UNL     1      36.385 -20.641 -18.396  0.00  0.00    -0.003 C 
ATOM     12  C   UNL     1      34.207 -21.610 -18.792  0.00  0.00    -0.003 C 
ATOM     13  C   UNL     1      35.387 -22.085 -16.737  0.00  0.00    +0.074 C 
ATOM     14  C   UNL     1      36.445 -21.280 -17.159  0.00  0.00    +0.016 C 
ATOM     15  C   UNL     1      34.267 -22.250 -17.554  0.00  0.00    +0.016 C 
BRANCH  10  17
ATOM     16  N   UNL     1      33.723 -18.989 -22.211  0.00  0.00    +0.384 N 
ATOM     17  C   UNL     1      35.200 -20.107 -20.559  0.00  0.00    +0.001 C 
ATOM     18  C   UNL     1      36.193 -18.936 -20.645  0.00  0.00    +0.000 C 
ATOM     19  C   UNL     1      33.773 -19.634 -20.896  0.00  0.00    -0.077 C 
ATOM     20  C   UNL     1      36.063 -18.228 -21.991  0.00  0.00    -0.023 C 
ATOM     21  C   UNL     1      34.616 -17.833 -22.274  0.00  0.00    -0.082 C 
ATOM     22  H   UNL     1      32.767 -18.681 -22.392  0.00  0.00    -0.085 HD
ATOM     23  H   UNL     1      34.025 -19.667 -22.911  0.00  0.00    -0.085 HD
ENDBRANCH  10  17
ENDBRANCH   1  13
BRANCH   6  26
ATOM     24  O   UNL     1      37.738 -26.872 -14.409  0.00  0.00    -0.270 OA
ATOM     25  N   UNL     1      39.213 -25.407 -13.443  0.00  0.00    -0.325 N 
ATOM     26  C   UNL     1      37.919 -25.839 -13.735  0.00  0.00    +0.244 C 
ATOM     27  H   UNL     1      39.989 -25.924 -13.759  0.00  0.00    +0.145 HD
ATOM     28  H   UNL     1      39.351 -24.584 -12.921  0.00  0.00    +0.145 HD
ENDBRANCH   6  26
TORSDOF 3
ENDMDL
MODEL 4
REMARK VINA RESULT:     -12.0      3.520      4.853
REMARK  Name = 24958200
REMARK  3 active torsions:
REMARK  status: ('A' for Active; 'I' for Inactive)
REMARK    1  A    between atoms: N_1  and  C_13
REMARK    2  A    between atoms: C_6  and  C_26
REMARK    3  A    between atoms: C_10  and  C_17
REMARK                            x       y       z     vdW  Elec       q    Type
REMARK                         _______ _______ _______ _____ _____    ______ ____
ROOT
ATOM      1  N   UNL     1      34.363 -21.813 -17.690  0.00  0.00    -0.189 N 
ATOM      2  N   UNL     1      35.475 -22.057 -16.970  0.00  0.00    -0.174 NA
ATOM      3  C   UNL     1      33.636 -23.040 -16.070  0.00  0.00    +0.036 C 
ATOM      4  C   UNL     1      33.225 -22.380 -17.194  0.00  0.00    +0.091 C 
ATOM      5  C   UNL     1      35.057 -22.824 -15.947  0.00  0.00    +0.105 C 
ATOM      6  C   UNL     1      35.777 -23.384 -14.875  0.00  0.00    +0.072 C 
ATOM      7  C   UNL     1      32.821 -23.776 -15.221  0.00  0.00    +0.003 C 
ATOM      8  C   UNL     1      34.974 -24.139 -13.991  0.00  0.00    +0.006 C 
ATOM      9  C   UNL     1      33.565 -24.324 -14.158  0.00  0.00    +0.000 C 
ENDROOT
BRANCH   1  13
ATOM     10  C   UNL     1      34.578 -19.472 -21.138  0.00  0.00    -0.024 C 
ATOM     11  C   UNL     1      33.338 -19.880 -20.647  0.00  0.00    -0.003 C 
ATOM     12  C   UNL     1      35.748 -19.846 -20.474  0.00  0.00    -0.003 C 
ATOM     13  C   UNL     1      34.434 -21.038 -18.833  0.00  0.00    +0.074 C 
ATOM     14  C   UNL     1      33.266 -20.663 -19.495  0.00  0.00    +0.016 C 
ATOM     15  C   UNL     1      35.676 -20.629 -19.322  0.00  0.00    +0.016 C 
BRANCH  10  17
ATOM     16  N   UNL     1      33.616 -18.117 -24.587  0.00  0.00    +0.384 N 
ATOM     17  C   UNL     1      34.657 -18.622 -22.393  0.00  0.00    +0.001 C 
ATOM     18  C   UNL     1      34.706 -17.121 -22.063  0.00  0.00    +0.000 C 
ATOM     19  C   UNL     1      33.507 -18.926 -23.371  0.00  0.00    -0.077 C 
ATOM     20  C   UNL     1      34.734 -16.296 -23.347  0.00  0.00    -0.023 C 
ATOM     21  C   UNL     1      33.593 -16.686 -24.284  0.00  0.00    -0.082 C 
ATOM     22  H   UNL     1      32.833 -18.338 -25.203  0.00  0.00    -0.085 HD
ATOM     23  H   UNL     1      34.505 -18.335 -25.038  0.00  0.00    -0.085 HD
ENDBRANCH  10  17
ENDBRANCH   1  13
BRANCH   6  26
ATOM     24  O   UNL     1      37.728 -23.275 -13.562  0.00  0.00    -0.270 OA
ATOM     25  N   UNL     1      37.984 -22.976 -15.821  0.00  0.00    -0.325 N 
ATOM     26  C   UNL     1      37.200 -23.208 -14.690  0.00  0.00    +0.244 C 
ATOM     27  H   UNL     1      38.957 -22.852 -15.729  0.00  0.00    +0.145 HD
ATOM     28  H   UNL     1      37.565 -22.936 -16.711  0.00  0.00    +0.145 HD
ENDBRANCH   6  26
TORSDOF 3
ENDMDL
MODEL 5
REMARK VINA RESULT:     -12.0      2.171      3.223
REMARK  Name = 24958200
REMARK  3 active torsions:
REMARK  status: ('A' for Active; 'I' for Inactive)
REMARK    1  A    between atoms: N_1  and  C_13
REMARK    2  A    between atoms: C_6  and  C_26
REMARK    3  A    between atoms: C_10  and  C_17
REMARK                            x       y       z     vdW  Elec       q    Type
REMARK                         _______ _______ _______ _____ _____    ______ ____
ROOT
ATOM      1  N   UNL     1      32.350 -22.458 -16.809  0.00  0.00    -0.189 N 
ATOM      2  N   UNL     1      33.102 -22.869 -15.770  0.00  0.00    -0.174 NA
ATOM      3  C   UNL     1      30.908 -23.394 -15.505  0.00  0.00    +0.036 C 
ATOM      4  C   UNL     1      31.021 -22.747 -16.703  0.00  0.00    +0.091 C 
ATOM      5  C   UNL     1      32.231 -23.460 -14.932  0.00  0.00    +0.105 C 
ATOM      6  C   UNL     1      32.441 -24.076 -13.684  0.00  0.00    +0.072 C 
ATOM      7  C   UNL     1      29.730 -23.888 -14.960  0.00  0.00    +0.003 C 
ATOM      8  C   UNL     1      31.261 -24.588 -13.103  0.00  0.00    +0.006 C 
ATOM      9  C   UNL     1      29.969 -24.498 -13.712  0.00  0.00    +0.000 C 
ENDROOT
BRANCH   1  13
ATOM     10  C   UNL     1      34.130 -20.461 -20.012  0.00  0.00    -0.024 C 
ATOM     11  C   UNL     1      32.747 -20.404 -19.835  0.00  0.00    -0.003 C 
ATOM     12  C   UNL     1      34.918 -21.186 -19.117  0.00  0.00    -0.003 C 
ATOM     13  C   UNL     1      32.940 -21.797 -17.871  0.00  0.00    +0.074 C 
ATOM     14  C   UNL     1      32.152 -21.071 -18.765  0.00  0.00    +0.016 C 
ATOM     15  C   UNL     1      34.323 -21.854 -18.047  0.00  0.00    +0.016 C 
BRANCH  10  17
ATOM     16  N   UNL     1      34.380 -18.348 -23.195  0.00  0.00    +0.384 N 
ATOM     17  C   UNL     1      34.777 -19.736 -21.178  0.00  0.00    +0.001 C 
ATOM     18  C   UNL     1      35.863 -18.755 -20.708  0.00  0.00    +0.000 C 
ATOM     19  C   UNL     1      33.740 -19.017 -22.060  0.00  0.00    -0.077 C 
ATOM     20  C   UNL     1      36.456 -18.009 -21.900  0.00  0.00    -0.023 C 
ATOM     21  C   UNL     1      35.365 -17.363 -22.751  0.00  0.00    -0.082 C 
ATOM     22  H   UNL     1      33.664 -17.875 -23.748  0.00  0.00    -0.085 HD
ATOM     23  H   UNL     1      34.861 -19.054 -23.754  0.00  0.00    -0.085 HD
ENDBRANCH  10  17
ENDBRANCH   1  13
BRANCH   6  26
ATOM     24  O   UNL     1      33.916 -23.847 -11.863  0.00  0.00    -0.270 OA
ATOM     25  N   UNL     1      34.798 -24.679 -13.809  0.00  0.00    -0.325 N 
ATOM     26  C   UNL     1      33.738 -24.178 -13.053  0.00  0.00    +0.244 C 
ATOM     27  H   UNL     1      35.694 -24.762 -13.409  0.00  0.00    +0.145 HD
ATOM     28  H   UNL     1      34.650 -24.951 -14.744  0.00  0.00    +0.145 HD
ENDBRANCH   6  26
TORSDOF 3
ENDMDL
MODEL 6
REMARK VINA RESULT:     -11.3      2.841      3.829
REMARK  Name = 24958200
REMARK  3 active torsions:
REMARK  status: ('A' for Active; 'I' for Inactive)
REMARK    1  A    between atoms: N_1  and  C_13
REMARK    2  A    between atoms: C_6  and  C_26
REMARK    3  A    between atoms: C_10  and  C_17
REMARK                            x       y       z     vdW  Elec       q    Type
REMARK                         _______ _______ _______ _____ _____    ______ ____
ROOT
ATOM      1  N   UNL     1      35.276 -22.433 -15.887  0.00  0.00    -0.189 N 
ATOM      2  N   UNL     1      34.127 -22.675 -15.228  0.00  0.00    -0.174 NA
ATOM      3  C   UNL     1      35.948 -23.398 -14.078  0.00  0.00    +0.036 C 
ATOM      4  C   UNL     1      36.405 -22.847 -15.242  0.00  0.00    +0.091 C 
ATOM      5  C   UNL     1      34.510 -23.279 -14.088  0.00  0.00    +0.105 C 
ATOM      6  C   UNL     1      33.744 -23.762 -13.011  0.00  0.00    +0.072 C 
ATOM      7  C   UNL     1      36.738 -23.960 -13.083  0.00  0.00    +0.003 C 
ATOM      8  C   UNL     1      34.519 -24.341 -11.983  0.00  0.00    +0.006 C 
ATOM      9  C   UNL     1      35.946 -24.435 -12.019  0.00  0.00    +0.000 C 
ENDROOT
BRANCH   1  13
ATOM     10  C   UNL     1      35.190 -20.552 -19.611  0.00  0.00    -0.024 C 
ATOM     11  C   UNL     1      34.094 -21.300 -19.182  0.00  0.00    -0.003 C 
ATOM     12  C   UNL     1      36.316 -20.432 -18.795  0.00  0.00    -0.003 C 
ATOM     13  C   UNL     1      35.248 -21.810 -17.122  0.00  0.00    +0.074 C 
ATOM     14  C   UNL     1      34.123 -21.929 -17.937  0.00  0.00    +0.016 C 
ATOM     15  C   UNL     1      36.344 -21.061 -17.550  0.00  0.00    +0.016 C 
BRANCH  10  17
ATOM     16  N   UNL     1      33.718 -18.841 -22.705  0.00  0.00    +0.384 N 
ATOM     17  C   UNL     1      35.160 -19.869 -20.966  0.00  0.00    +0.001 C 
ATOM     18  C   UNL     1      36.094 -18.649 -21.011  0.00  0.00    +0.000 C 
ATOM     19  C   UNL     1      33.730 -19.473 -21.383  0.00  0.00    -0.077 C 
ATOM     20  C   UNL     1      36.001 -17.958 -22.370  0.00  0.00    -0.023 C 
ATOM     21  C   UNL     1      34.552 -17.641 -22.733  0.00  0.00    -0.082 C 
ATOM     22  H   UNL     1      32.759 -18.585 -22.940  0.00  0.00    -0.085 HD
ATOM     23  H   UNL     1      34.091 -19.508 -23.382  0.00  0.00    -0.085 HD
ENDBRANCH  10  17
ENDBRANCH   1  13
BRANCH   6  26
ATOM     24  O   UNL     1      31.593 -24.676 -12.725  0.00  0.00    -0.270 OA
ATOM     25  N   UNL     1      31.711 -22.426 -13.150  0.00  0.00    -0.325 N 
ATOM     26  C   UNL     1      32.301 -23.676 -12.955  0.00  0.00    +0.244 C 
ATOM     27  H   UNL     1      30.731 -22.333 -13.118  0.00  0.00    +0.145 HD
ATOM     28  H   UNL     1      32.275 -21.637 -13.319  0.00  0.00    +0.145 HD
ENDBRANCH   6  26
TORSDOF 3
ENDMDL
MODEL 7
REMARK VINA RESULT:     -11.2      4.273      9.100
REMARK  Name = 24958200
REMARK  3 active torsions:
REMARK  status: ('A' for Active; 'I' for Inactive)
REMARK    1  A    between atoms: N_1  and  C_13
REMARK    2  A    between atoms: C_6  and  C_26
REMARK    3  A    between atoms: C_10  and  C_17
REMARK                            x       y       z     vdW  Elec       q    Type
REMARK                         _______ _______ _______ _____ _____    ______ ____
ROOT
ATOM      1  N   UNL     1      34.330 -18.799 -21.308  0.00  0.00    -0.189 N 
ATOM      2  N   UNL     1      34.284 -17.482 -21.030  0.00  0.00    -0.174 NA
ATOM      3  C   UNL     1      34.096 -17.897 -23.255  0.00  0.00    +0.036 C 
ATOM      4  C   UNL     1      34.222 -19.108 -22.633  0.00  0.00    +0.091 C 
ATOM      5  C   UNL     1      34.138 -16.886 -22.227  0.00  0.00    +0.105 C 
ATOM      6  C   UNL     1      34.032 -15.523 -22.559  0.00  0.00    +0.072 C 
ATOM      7  C   UNL     1      33.955 -17.701 -24.623  0.00  0.00    +0.003 C 
ATOM      8  C   UNL     1      33.888 -15.289 -23.944  0.00  0.00    +0.006 C 
ATOM      9  C   UNL     1      33.851 -16.329 -24.927  0.00  0.00    +0.000 C 
ENDROOT
BRANCH   1  13
ATOM     10  C   UNL     1      34.780 -21.574 -18.225  0.00  0.00    -0.024 C 
ATOM     11  C   UNL     1      33.512 -21.295 -18.732  0.00  0.00    -0.003 C 
ATOM     12  C   UNL     1      35.900 -20.926 -18.749  0.00  0.00    -0.003 C 
ATOM     13  C   UNL     1      34.479 -19.718 -20.286  0.00  0.00    +0.074 C 
ATOM     14  C   UNL     1      33.361 -20.367 -19.763  0.00  0.00    +0.016 C 
ATOM     15  C   UNL     1      35.749 -19.998 -19.779  0.00  0.00    +0.016 C 
BRANCH  10  17
ATOM     16  N   UNL     1      36.276 -23.221 -15.108  0.00  0.00    +0.384 N 
ATOM     17  C   UNL     1      34.944 -22.582 -17.102  0.00  0.00    +0.001 C 
ATOM     18  C   UNL     1      33.645 -22.759 -16.299  0.00  0.00    +0.000 C 
ATOM     19  C   UNL     1      36.115 -22.222 -16.167  0.00  0.00    -0.077 C 
ATOM     20  C   UNL     1      33.861 -23.741 -15.150  0.00  0.00    -0.023 C 
ATOM     21  C   UNL     1      35.064 -23.343 -14.298  0.00  0.00    -0.082 C 
ATOM     22  H   UNL     1      37.051 -22.943 -14.505  0.00  0.00    -0.085 HD
ATOM     23  H   UNL     1      36.463 -24.124 -15.545  0.00  0.00    -0.085 HD
ENDBRANCH  10  17
ENDBRANCH   1  13
BRANCH   6  26
ATOM     24  O   UNL     1      34.230 -14.688 -20.366  0.00  0.00    -0.270 OA
ATOM     25  N   UNL     1      33.925 -13.146 -22.035  0.00  0.00    -0.325 N 
ATOM     26  C   UNL     1      34.065 -14.457 -21.581  0.00  0.00    +0.244 C 
ATOM     27  H   UNL     1      33.943 -12.398 -21.395  0.00  0.00    +0.145 HD
ATOM     28  H   UNL     1      33.808 -12.968 -22.996  0.00  0.00    +0.145 HD
ENDBRANCH   6  26
TORSDOF 3
ENDMDL
MODEL 8
REMARK VINA RESULT:     -11.1      7.689     12.234
REMARK  Name = 24958200
REMARK  3 active torsions:
REMARK  status: ('A' for Active; 'I' for Inactive)
REMARK    1  A    between atoms: N_1  and  C_13
REMARK    2  A    between atoms: C_6  and  C_26
REMARK    3  A    between atoms: C_10  and  C_17
REMARK                            x       y       z     vdW  Elec       q    Type
REMARK                         _______ _______ _______ _____ _____    ______ ____
ROOT
ATOM      1  N   UNL     1      32.614 -11.345 -22.447  0.00  0.00    -0.189 N 
ATOM      2  N   UNL     1      32.325 -10.703 -21.299  0.00  0.00    -0.174 NA
ATOM      3  C   UNL     1      31.857  -9.443 -23.130  0.00  0.00    +0.036 C 
ATOM      4  C   UNL     1      32.352 -10.634 -23.582  0.00  0.00    +0.091 C 
ATOM      5  C   UNL     1      31.848  -9.507 -21.688  0.00  0.00    +0.105 C 
ATOM      6  C   UNL     1      31.387  -8.417 -20.926  0.00  0.00    +0.072 C 
ATOM      7  C   UNL     1      31.445  -8.383 -23.927  0.00  0.00    +0.003 C 
ATOM      8  C   UNL     1      30.961  -7.322 -21.709  0.00  0.00    +0.006 C 
ATOM      9  C   UNL     1      30.989  -7.308 -23.140  0.00  0.00    +0.000 C 
ENDROOT
BRANCH   1  13
ATOM     10  C   UNL     1      34.189 -15.208 -22.340  0.00  0.00    -0.024 C 
ATOM     11  C   UNL     1      33.945 -14.587 -23.565  0.00  0.00    -0.003 C 
ATOM     12  C   UNL     1      33.906 -14.537 -21.150  0.00  0.00    -0.003 C 
ATOM     13  C   UNL     1      33.135 -12.625 -22.412  0.00  0.00    +0.074 C 
ATOM     14  C   UNL     1      33.419 -13.297 -23.601  0.00  0.00    +0.016 C 
ATOM     15  C   UNL     1      33.380 -13.246 -21.185  0.00  0.00    +0.016 C 
BRANCH  10  17
ATOM     16  N   UNL     1      35.453 -18.497 -20.841  0.00  0.00    +0.384 N 
ATOM     17  C   UNL     1      34.760 -16.614 -22.300  0.00  0.00    +0.001 C 
ATOM     18  C   UNL     1      33.954 -17.583 -23.180  0.00  0.00    +0.000 C 
ATOM     19  C   UNL     1      34.873 -17.152 -20.862  0.00  0.00    -0.077 C 
ATOM     20  C   UNL     1      34.525 -18.994 -23.077  0.00  0.00    -0.023 C 
ATOM     21  C   UNL     1      34.650 -19.439 -21.622  0.00  0.00    -0.082 C 
ATOM     22  H   UNL     1      35.500 -18.823 -19.876  0.00  0.00    -0.085 HD
ATOM     23  H   UNL     1      36.385 -18.451 -21.255  0.00  0.00    -0.085 HD
ENDBRANCH  10  17
ENDBRANCH   1  13
BRANCH   6  26
ATOM     24  O   UNL     1      31.498  -7.363 -18.824  0.00  0.00    -0.270 OA
ATOM     25  N   UNL     1      31.124  -9.625 -18.827  0.00  0.00    -0.325 N 
ATOM     26  C   UNL     1      31.350  -8.413 -19.480  0.00  0.00    +0.244 C 
ATOM     27  H   UNL     1      31.093  -9.657 -17.843  0.00  0.00    +0.145 HD
ATOM     28  H   UNL     1      30.995 -10.449 -19.350  0.00  0.00    +0.145 HD
ENDBRANCH   6  26
TORSDOF 3
ENDMDL
MODEL 9
REMARK VINA RESULT:     -11.0      8.591     12.749
REMARK  Name = 24958200
REMARK  3 active torsions:
REMARK  status: ('A' for Active; 'I' for Inactive)
REMARK    1  A    between atoms: N_1  and  C_13
REMARK    2  A    between atoms: C_6  and  C_26
REMARK    3  A    between atoms: C_10  and  C_17
REMARK                            x       y       z     vdW  Elec       q    Type
REMARK                         _______ _______ _______ _____ _____    ______ ____
ROOT
ATOM      1  N   UNL     1      32.737 -12.289 -23.016  0.00  0.00    -0.189 N 
ATOM      2  N   UNL     1      33.191 -13.147 -22.082  0.00  0.00    -0.174 NA
ATOM      3  C   UNL     1      33.209 -14.054 -24.165  0.00  0.00    +0.036 C 
ATOM      4  C   UNL     1      32.726 -12.782 -24.288  0.00  0.00    +0.091 C 
ATOM      5  C   UNL     1      33.496 -14.264 -22.766  0.00  0.00    +0.105 C 
ATOM      6  C   UNL     1      34.013 -15.494 -22.318  0.00  0.00    +0.072 C 
ATOM      7  C   UNL     1      33.384 -14.958 -25.204  0.00  0.00    +0.003 C 
ATOM      8  C   UNL     1      34.202 -16.436 -23.353  0.00  0.00    +0.006 C 
ATOM      9  C   UNL     1      33.902 -16.179 -24.728  0.00  0.00    +0.000 C 
ENDROOT
BRANCH   1  13
ATOM     10  C   UNL     1      31.501  -8.460 -21.909  0.00  0.00    -0.024 C 
ATOM     11  C   UNL     1      31.000  -9.576 -21.239  0.00  0.00    -0.003 C 
ATOM     12  C   UNL     1      32.416  -8.624 -22.950  0.00  0.00    -0.003 C 
ATOM     13  C   UNL     1      32.327 -11.020 -22.650  0.00  0.00    +0.074 C 
ATOM     14  C   UNL     1      31.412 -10.856 -21.609  0.00  0.00    +0.016 C 
ATOM     15  C   UNL     1      32.829  -9.904 -23.320  0.00  0.00    +0.016 C 
BRANCH  10  17
ATOM     16  N   UNL     1      31.735  -4.915 -20.479  0.00  0.00    +0.384 N 
ATOM     17  C   UNL     1      31.050  -7.067 -21.508  0.00  0.00    +0.001 C 
ATOM     18  C   UNL     1      30.419  -6.310 -22.687  0.00  0.00    +0.000 C 
ATOM     19  C   UNL     1      32.195  -6.246 -20.886  0.00  0.00    -0.077 C 
ATOM     20  C   UNL     1      30.024  -4.898 -22.261  0.00  0.00    -0.023 C 
ATOM     21  C   UNL     1      31.196  -4.165 -21.613  0.00  0.00    -0.082 C 
ATOM     22  H   UNL     1      32.522  -4.400 -20.083  0.00  0.00    -0.085 HD
ATOM     23  H   UNL     1      30.993  -5.031 -19.788  0.00  0.00    -0.085 HD
ENDBRANCH  10  17
ENDBRANCH   1  13
BRANCH   6  26
ATOM     24  O   UNL     1      35.004 -16.764 -20.601  0.00  0.00    -0.270 OA
ATOM     25  N   UNL     1      33.853 -14.886 -19.965  0.00  0.00    -0.325 N 
ATOM     26  C   UNL     1      34.324 -15.773 -20.933  0.00  0.00    +0.244 C 
ATOM     27  H   UNL     1      34.047 -15.047 -19.013  0.00  0.00    +0.145 HD
ATOM     28  H   UNL     1      33.327 -14.098 -20.233  0.00  0.00    +0.145 HD
ENDBRANCH   6  26
TORSDOF 3
ENDMDL
