MODEL 1
REMARK VINA RESULT:     -10.6      0.000      0.000
REMARK  Name = 5834
REMARK  6 active torsions:
REMARK  status: ('A' for Active; 'I' for Inactive)
REMARK    1  A    between atoms: C_6  and  O_21
REMARK    2  A    between atoms: C_6  and  C_26
REMARK    3  A    between atoms: C_9  and  O_23
REMARK    4  A    between atoms: C_26  and  C_27
REMARK    5  A    between atoms: C_27  and  O_28
REMARK    6  A    between atoms: O_28  and  C_30
REMARK                            x       y       z     vdW  Elec       q    Type
REMARK                         _______ _______ _______ _____ _____    ______ ____
ROOT
ATOM      1  O   UNL     1      39.485 -26.149 -14.244  0.00  0.00    -0.287 OA
ATOM      2  C   UNL     1      31.800 -23.222 -14.457  0.00  0.00    +0.031 C 
ATOM      3  C   UNL     1      32.896 -23.122 -15.539  0.00  0.00    +0.003 C 
ATOM      4  C   UNL     1      34.285 -22.782 -14.979  0.00  0.00    +0.003 C 
ATOM      5  C   UNL     1      34.714 -23.910 -13.974  0.00  0.00    +0.034 C 
ATOM      6  C   UNL     1      30.571 -23.502 -15.364  0.00  0.00    +0.143 C 
ATOM      7  C   UNL     1      32.204 -24.358 -13.493  0.00  0.00    +0.032 C 
ATOM      8  C   UNL     1      32.278 -22.200 -16.586  0.00  0.00    +0.003 C 
ATOM      9  C   UNL     1      33.616 -24.175 -12.896  0.00  0.00    +0.111 C 
ATOM     10  C   UNL     1      36.183 -23.698 -13.432  0.00  0.00    +0.036 C 
ATOM     11  C   UNL     1      30.781 -22.573 -16.583  0.00  0.00    +0.034 C 
ATOM     12  C   UNL     1      35.307 -22.638 -16.122  0.00  0.00    +0.004 C 
ATOM     13  C   UNL     1      31.581 -21.894 -13.679  0.00  0.00    +0.003 C 
ATOM     14  C   UNL     1      36.726 -22.428 -15.608  0.00  0.00    +0.022 C 
ATOM     15  C   UNL     1      37.100 -23.528 -14.648  0.00  0.00    -0.038 C 
ATOM     16  C   UNL     1      36.348 -22.456 -12.527  0.00  0.00    +0.009 C 
ATOM     17  C   UNL     1      36.604 -24.895 -12.589  0.00  0.00    -0.020 C 
ATOM     18  C   UNL     1      38.154 -24.318 -14.905  0.00  0.00    +0.034 C 
ATOM     19  C   UNL     1      37.652 -25.686 -12.841  0.00  0.00    +0.038 C 
ATOM     20  C   UNL     1      38.510 -25.441 -14.013  0.00  0.00    +0.195 C 
ENDROOT
BRANCH   6  21
ATOM     21  O   UNL     1      30.549 -24.857 -15.802  0.00  0.00    -0.380 OA
ATOM     22  H   UNL     1      29.643 -25.103 -16.048  0.00  0.00    +0.211 HD
ENDBRANCH   6  21
BRANCH   9  23
ATOM     23  O   UNL     1      33.591 -23.141 -11.920  0.00  0.00    -0.384 OA
ATOM     24  H   UNL     1      33.720 -22.284 -12.354  0.00  0.00    +0.210 HD
ENDBRANCH   9  23
BRANCH   6  26
ATOM     25  O   UNL     1      28.803 -24.127 -13.896  0.00  0.00    -0.290 OA
ATOM     26  C   UNL     1      29.243 -23.305 -14.697  0.00  0.00    +0.218 C 
BRANCH  26  27
ATOM     27  C   UNL     1      28.487 -22.047 -15.067  0.00  0.00    +0.274 C 
BRANCH  27  28
ATOM     28  O   UNL     1      27.163 -22.356 -15.449  0.00  0.00    -0.440 OA
BRANCH  28  30
ATOM     29  O   UNL     1      27.367 -23.108 -17.625  0.00  0.00    -0.250 OA
ATOM     30  C   UNL     1      26.904 -22.336 -16.797  0.00  0.00    +0.318 C 
ATOM     31  C   UNL     1      25.958 -21.221 -17.126  0.00  0.00    +0.121 C 
ENDBRANCH  28  30
ENDBRANCH  27  28
ENDBRANCH  26  27
ENDBRANCH   6  26
TORSDOF 6
ENDMDL
MODEL 2
REMARK VINA RESULT:      -8.2     15.533     18.174
REMARK  Name = 5834
REMARK  6 active torsions:
REMARK  status: ('A' for Active; 'I' for Inactive)
REMARK    1  A    between atoms: C_6  and  O_21
REMARK    2  A    between atoms: C_6  and  C_26
REMARK    3  A    between atoms: C_9  and  O_23
REMARK    4  A    between atoms: C_26  and  C_27
REMARK    5  A    between atoms: C_27  and  O_28
REMARK    6  A    between atoms: O_28  and  C_30
REMARK                            x       y       z     vdW  Elec       q    Type
REMARK                         _______ _______ _______ _____ _____    ______ ____
ROOT
ATOM      1  O   UNL     1      29.678  -1.843 -23.806  0.00  0.00    -0.287 OA
ATOM      2  C   UNL     1      31.808  -9.581 -22.002  0.00  0.00    +0.031 C 
ATOM      3  C   UNL     1      31.397  -8.448 -21.036  0.00  0.00    +0.003 C 
ATOM      4  C   UNL     1      32.024  -7.089 -21.379  0.00  0.00    +0.003 C 
ATOM      5  C   UNL     1      31.566  -6.671 -22.822  0.00  0.00    +0.034 C 
ATOM      6  C   UNL     1      31.065 -10.769 -21.331  0.00  0.00    +0.143 C 
ATOM      7  C   UNL     1      31.322  -9.187 -23.412  0.00  0.00    +0.032 C 
ATOM      8  C   UNL     1      31.648  -9.050 -19.656  0.00  0.00    +0.003 C 
ATOM      9  C   UNL     1      31.834  -7.802 -23.866  0.00  0.00    +0.111 C 
ATOM     10  C   UNL     1      32.077  -5.229 -23.215  0.00  0.00    +0.036 C 
ATOM     11  C   UNL     1      31.268 -10.536 -19.816  0.00  0.00    +0.034 C 
ATOM     12  C   UNL     1      31.617  -6.030 -20.339  0.00  0.00    +0.004 C 
ATOM     13  C   UNL     1      33.337  -9.860 -22.005  0.00  0.00    +0.003 C 
ATOM     14  C   UNL     1      32.111  -4.636 -20.707  0.00  0.00    +0.022 C 
ATOM     15  C   UNL     1      31.652  -4.272 -22.096  0.00  0.00    -0.038 C 
ATOM     16  C   UNL     1      33.611  -5.126 -23.379  0.00  0.00    +0.009 C 
ATOM     17  C   UNL     1      31.479  -4.811 -24.552  0.00  0.00    -0.020 C 
ATOM     18  C   UNL     1      30.881  -3.191 -22.290  0.00  0.00    +0.034 C 
ATOM     19  C   UNL     1      30.709  -3.737 -24.751  0.00  0.00    +0.038 C 
ATOM     20  C   UNL     1      30.368  -2.842 -23.631  0.00  0.00    +0.195 C 
ENDROOT
BRANCH   6  21
ATOM     21  O   UNL     1      29.672 -10.744 -21.630  0.00  0.00    -0.380 OA
ATOM     22  H   UNL     1      29.377  -9.823 -21.715  0.00  0.00    +0.211 HD
ENDBRANCH   6  21
BRANCH   9  23
ATOM     23  O   UNL     1      33.214  -7.887 -24.192  0.00  0.00    -0.384 OA
ATOM     24  H   UNL     1      33.311  -8.171 -25.115  0.00  0.00    +0.210 HD
ENDBRANCH   9  23
BRANCH   6  26
ATOM     25  O   UNL     1      31.399 -12.480 -22.955  0.00  0.00    -0.290 OA
ATOM     26  C   UNL     1      31.518 -12.125 -21.783  0.00  0.00    +0.218 C 
BRANCH  26  27
ATOM     27  C   UNL     1      32.122 -13.019 -20.722  0.00  0.00    +0.274 C 
BRANCH  27  28
ATOM     28  O   UNL     1      33.503 -13.201 -20.950  0.00  0.00    -0.440 OA
BRANCH  28  30
ATOM     29  O   UNL     1      34.179 -15.297 -20.248  0.00  0.00    -0.250 OA
ATOM     30  C   UNL     1      33.919 -14.495 -21.136  0.00  0.00    +0.318 C 
ATOM     31  C   UNL     1      34.014 -14.804 -22.599  0.00  0.00    +0.121 C 
ENDBRANCH  28  30
ENDBRANCH  27  28
ENDBRANCH  26  27
ENDBRANCH   6  26
TORSDOF 6
ENDMDL
MODEL 3
REMARK VINA RESULT:      -7.7     18.584     20.911
REMARK  Name = 5834
REMARK  6 active torsions:
REMARK  status: ('A' for Active; 'I' for Inactive)
REMARK    1  A    between atoms: C_6  and  O_21
REMARK    2  A    between atoms: C_6  and  C_26
REMARK    3  A    between atoms: C_9  and  O_23
REMARK    4  A    between atoms: C_26  and  C_27
REMARK    5  A    between atoms: C_27  and  O_28
REMARK    6  A    between atoms: O_28  and  C_30
REMARK                            x       y       z     vdW  Elec       q    Type
REMARK                         _______ _______ _______ _____ _____    ______ ____
ROOT
ATOM      1  O   UNL     1      31.869  -1.986 -30.000  0.00  0.00    -0.287 OA
ATOM      2  C   UNL     1      32.258  -6.400 -23.070  0.00  0.00    +0.031 C 
ATOM      3  C   UNL     1      31.678  -4.984 -23.275  0.00  0.00    +0.003 C 
ATOM      4  C   UNL     1      32.548  -4.085 -24.166  0.00  0.00    +0.003 C 
ATOM      5  C   UNL     1      32.681  -4.752 -25.581  0.00  0.00    +0.034 C 
ATOM      6  C   UNL     1      31.187  -6.977 -22.104  0.00  0.00    +0.143 C 
ATOM      7  C   UNL     1      32.350  -7.068 -24.457  0.00  0.00    +0.032 C 
ATOM      8  C   UNL     1      31.353  -4.525 -21.857  0.00  0.00    +0.003 C 
ATOM      9  C   UNL     1      33.156  -6.236 -25.480  0.00  0.00    +0.111 C 
ATOM     10  C   UNL     1      33.471  -3.838 -26.599  0.00  0.00    +0.036 C 
ATOM     11  C   UNL     1      30.873  -5.806 -21.144  0.00  0.00    +0.034 C 
ATOM     12  C   UNL     1      31.936  -2.676 -24.271  0.00  0.00    +0.004 C 
ATOM     13  C   UNL     1      33.645  -6.399 -22.367  0.00  0.00    +0.003 C 
ATOM     14  C   UNL     1      32.695  -1.786 -25.246  0.00  0.00    +0.022 C 
ATOM     15  C   UNL     1      32.802  -2.459 -26.591  0.00  0.00    -0.038 C 
ATOM     16  C   UNL     1      34.965  -3.650 -26.249  0.00  0.00    +0.009 C 
ATOM     17  C   UNL     1      33.436  -4.457 -27.990  0.00  0.00    -0.020 C 
ATOM     18  C   UNL     1      32.288  -1.872 -27.683  0.00  0.00    +0.034 C 
ATOM     19  C   UNL     1      32.924  -3.879 -29.080  0.00  0.00    +0.038 C 
ATOM     20  C   UNL     1      32.325  -2.534 -29.003  0.00  0.00    +0.195 C 
ENDROOT
BRANCH   6  21
ATOM     21  O   UNL     1      30.002  -7.343 -22.806  0.00  0.00    -0.380 OA
ATOM     22  H   UNL     1      29.778  -8.265 -22.602  0.00  0.00    +0.211 HD
ENDBRANCH   6  21
BRANCH   9  23
ATOM     23  O   UNL     1      34.541  -6.316 -25.174  0.00  0.00    -0.384 OA
ATOM     24  H   UNL     1      35.006  -6.769 -25.895  0.00  0.00    +0.210 HD
ENDBRANCH   9  23
BRANCH   6  26
ATOM     25  O   UNL     1      31.671  -8.269 -20.163  0.00  0.00    -0.290 OA
ATOM     26  C   UNL     1      31.598  -8.228 -21.390  0.00  0.00    +0.218 C 
BRANCH  26  27
ATOM     27  C   UNL     1      31.916  -9.424 -22.261  0.00  0.00    +0.274 C 
BRANCH  27  28
ATOM     28  O   UNL     1      31.163 -10.549 -21.858  0.00  0.00    -0.440 OA
BRANCH  28  30
ATOM     29  O   UNL     1      32.283 -12.255 -22.944  0.00  0.00    -0.250 OA
ATOM     30  C   UNL     1      31.802 -11.761 -21.933  0.00  0.00    +0.318 C 
ATOM     31  C   UNL     1      31.832 -12.415 -20.584  0.00  0.00    +0.121 C 
ENDBRANCH  28  30
ENDBRANCH  27  28
ENDBRANCH  26  27
ENDBRANCH   6  26
TORSDOF 6
ENDMDL
MODEL 4
REMARK VINA RESULT:      -7.6      1.272      1.736
REMARK  Name = 5834
REMARK  6 active torsions:
REMARK  status: ('A' for Active; 'I' for Inactive)
REMARK    1  A    between atoms: C_6  and  O_21
REMARK    2  A    between atoms: C_6  and  C_26
REMARK    3  A    between atoms: C_9  and  O_23
REMARK    4  A    between atoms: C_26  and  C_27
REMARK    5  A    between atoms: C_27  and  O_28
REMARK    6  A    between atoms: O_28  and  C_30
REMARK                            x       y       z     vdW  Elec       q    Type
REMARK                         _______ _______ _______ _____ _____    ______ ____
ROOT
ATOM      1  O   UNL     1      40.369 -26.253 -13.965  0.00  0.00    -0.287 OA
ATOM      2  C   UNL     1      33.057 -22.893 -15.669  0.00  0.00    +0.031 C 
ATOM      3  C   UNL     1      34.381 -22.760 -16.452  0.00  0.00    +0.003 C 
ATOM      4  C   UNL     1      35.609 -22.548 -15.554  0.00  0.00    +0.003 C 
ATOM      5  C   UNL     1      35.749 -23.782 -14.593  0.00  0.00    +0.034 C 
ATOM      6  C   UNL     1      32.068 -23.023 -16.860  0.00  0.00    +0.143 C 
ATOM      7  C   UNL     1      33.182 -24.129 -14.754  0.00  0.00    +0.032 C 
ATOM      8  C   UNL     1      34.058 -21.717 -17.519  0.00  0.00    +0.003 C 
ATOM      9  C   UNL     1      34.419 -24.077 -13.830  0.00  0.00    +0.111 C 
ATOM     10  C   UNL     1      37.055 -23.701 -13.706  0.00  0.00    +0.036 C 
ATOM     11  C   UNL     1      32.591 -22.005 -17.900  0.00  0.00    +0.034 C 
ATOM     12  C   UNL     1      36.875 -22.363 -16.409  0.00  0.00    +0.004 C 
ATOM     13  C   UNL     1      32.705 -21.627 -14.838  0.00  0.00    +0.003 C 
ATOM     14  C   UNL     1      38.139 -22.278 -15.562  0.00  0.00    +0.022 C 
ATOM     15  C   UNL     1      38.238 -23.477 -14.654  0.00  0.00    -0.038 C 
ATOM     16  C   UNL     1      37.043 -22.553 -12.671  0.00  0.00    +0.009 C 
ATOM     17  C   UNL     1      37.224 -24.988 -12.910  0.00  0.00    -0.020 C 
ATOM     18  C   UNL     1      39.296 -24.299 -14.734  0.00  0.00    +0.034 C 
ATOM     19  C   UNL     1      38.273 -25.811 -12.987  0.00  0.00    +0.038 C 
ATOM     20  C   UNL     1      39.392 -25.514 -13.899  0.00  0.00    +0.195 C 
ENDROOT
BRANCH   6  21
ATOM     21  O   UNL     1      32.104 -24.332 -17.421  0.00  0.00    -0.380 OA
ATOM     22  H   UNL     1      32.465 -24.288 -18.321  0.00  0.00    +0.211 HD
ENDBRANCH   6  21
BRANCH   9  23
ATOM     23  O   UNL     1      34.199 -23.133 -12.791  0.00  0.00    -0.384 OA
ATOM     24  H   UNL     1      33.717 -22.369 -13.145  0.00  0.00    +0.210 HD
ENDBRANCH   9  23
BRANCH   6  26
ATOM     25  O   UNL     1      30.030 -21.791 -16.841  0.00  0.00    -0.290 OA
ATOM     26  C   UNL     1      30.628 -22.811 -16.503  0.00  0.00    +0.218 C 
BRANCH  26  27
ATOM     27  C   UNL     1      29.964 -23.915 -15.710  0.00  0.00    +0.274 C 
BRANCH  27  28
ATOM     28  O   UNL     1      28.756 -23.461 -15.136  0.00  0.00    -0.440 OA
BRANCH  28  30
ATOM     29  O   UNL     1      27.422 -24.100 -16.913  0.00  0.00    -0.250 OA
ATOM     30  C   UNL     1      27.689 -23.340 -15.991  0.00  0.00    +0.318 C 
ATOM     31  C   UNL     1      26.878 -22.130 -15.639  0.00  0.00    +0.121 C 
ENDBRANCH  28  30
ENDBRANCH  27  28
ENDBRANCH  26  27
ENDBRANCH   6  26
TORSDOF 6
ENDMDL
