MODEL 1
REMARK VINA RESULT:      -9.8      0.000      0.000
REMARK  Name = 5805243
REMARK  7 active torsions:
REMARK  status: ('A' for Active; 'I' for Inactive)
REMARK    1  A    between atoms: C_1  and  C_4
REMARK    2  A    between atoms: C_1  and  C_14
REMARK    3  A    between atoms: C_9  and  O_10
REMARK    4  A    between atoms: O_10  and  C_12
REMARK    5  A    between atoms: C_14  and  C_17
REMARK    6  A    between atoms: C_22  and  O_23
REMARK    7  A    between atoms: O_23  and  C_25
REMARK                            x       y       z     vdW  Elec       q    Type
REMARK                         _______ _______ _______ _____ _____    ______ ____
ROOT
ATOM      1  C   UNL     1      33.432 -22.992 -18.038  0.00  0.00    -0.005 C 
ATOM      2  C   UNL     1      33.384 -24.208 -18.623  0.00  0.00    -0.026 C 
ATOM      3  C   UNL     1      33.497 -24.525 -20.082  0.00  0.00    +0.031 C 
ENDROOT
BRANCH   1   4
ATOM      4  C   UNL     1      33.617 -21.831 -18.941  0.00  0.00    -0.000 C 
ATOM      5  C   UNL     1      34.898 -21.455 -19.295  0.00  0.00    +0.003 C 
ATOM      6  C   UNL     1      32.502 -21.160 -19.405  0.00  0.00    +0.003 C 
ATOM      7  C   UNL     1      35.071 -20.363 -20.145  0.00  0.00    +0.038 C 
ATOM      8  C   UNL     1      32.676 -20.068 -20.256  0.00  0.00    +0.038 C 
ATOM      9  C   UNL     1      33.960 -19.670 -20.626  0.00  0.00    +0.148 C 
BRANCH   9  10
ATOM     10  O   UNL     1      34.130 -18.605 -21.457  0.00  0.00    -0.424 OA
BRANCH  10  12
ATOM     11  O   UNL     1      34.987 -16.744 -20.324  0.00  0.00    -0.250 OA
ATOM     12  C   UNL     1      35.139 -17.717 -21.050  0.00  0.00    +0.322 C 
ATOM     13  C   UNL     1      36.455 -18.131 -21.641  0.00  0.00    +0.122 C 
ENDBRANCH  10  12
ENDBRANCH   9  10
ENDBRANCH   1   4
BRANCH   1  14
ATOM     14  C   UNL     1      33.348 -22.785 -16.588  0.00  0.00    -0.005 C 
ATOM     15  C   UNL     1      32.221 -22.396 -15.953  0.00  0.00    -0.026 C 
ATOM     16  C   UNL     1      32.045 -22.123 -14.491  0.00  0.00    +0.031 C 
BRANCH  14  17
ATOM     17  C   UNL     1      34.554 -22.966 -15.744  0.00  0.00    -0.000 C 
ATOM     18  C   UNL     1      34.668 -24.105 -14.972  0.00  0.00    +0.003 C 
ATOM     19  C   UNL     1      35.531 -21.989 -15.756  0.00  0.00    +0.003 C 
ATOM     20  C   UNL     1      35.802 -24.274 -14.180  0.00  0.00    +0.038 C 
ATOM     21  C   UNL     1      36.666 -22.159 -14.964  0.00  0.00    +0.038 C 
ATOM     22  C   UNL     1      36.802 -23.302 -14.176  0.00  0.00    +0.148 C 
BRANCH  22  23
ATOM     23  O   UNL     1      37.910 -23.468 -13.402  0.00  0.00    -0.424 OA
BRANCH  23  25
ATOM     24  O   UNL     1      38.424 -25.694 -12.892  0.00  0.00    -0.250 OA
ATOM     25  C   UNL     1      38.561 -24.698 -13.590  0.00  0.00    +0.322 C 
ATOM     26  C   UNL     1      39.466 -24.623 -14.783  0.00  0.00    +0.122 C 
ENDBRANCH  23  25
ENDBRANCH  22  23
ENDBRANCH  14  17
ENDBRANCH   1  14
TORSDOF 7
ENDMDL
MODEL 2
REMARK VINA RESULT:      -9.8      0.026      7.557
REMARK  Name = 5805243
REMARK  7 active torsions:
REMARK  status: ('A' for Active; 'I' for Inactive)
REMARK    1  A    between atoms: C_1  and  C_4
REMARK    2  A    between atoms: C_1  and  C_14
REMARK    3  A    between atoms: C_9  and  O_10
REMARK    4  A    between atoms: O_10  and  C_12
REMARK    5  A    between atoms: C_14  and  C_17
REMARK    6  A    between atoms: C_22  and  O_23
REMARK    7  A    between atoms: O_23  and  C_25
REMARK                            x       y       z     vdW  Elec       q    Type
REMARK                         _______ _______ _______ _____ _____    ______ ____
ROOT
ATOM      1  C   UNL     1      33.355 -22.768 -16.588  0.00  0.00    -0.005 C 
ATOM      2  C   UNL     1      32.232 -22.369 -15.952  0.00  0.00    -0.026 C 
ATOM      3  C   UNL     1      32.060 -22.090 -14.491  0.00  0.00    +0.031 C 
ENDROOT
BRANCH   1   4
ATOM      4  C   UNL     1      34.561 -22.954 -15.746  0.00  0.00    -0.000 C 
ATOM      5  C   UNL     1      34.658 -24.080 -14.952  0.00  0.00    +0.003 C 
ATOM      6  C   UNL     1      35.554 -21.995 -15.781  0.00  0.00    +0.003 C 
ATOM      7  C   UNL     1      35.793 -24.253 -14.161  0.00  0.00    +0.038 C 
ATOM      8  C   UNL     1      36.690 -22.169 -14.989  0.00  0.00    +0.038 C 
ATOM      9  C   UNL     1      36.809 -23.298 -14.180  0.00  0.00    +0.148 C 
BRANCH   9  10
ATOM     10  O   UNL     1      37.917 -23.469 -13.407  0.00  0.00    -0.424 OA
BRANCH  10  12
ATOM     11  O   UNL     1      38.431 -25.695 -12.894  0.00  0.00    -0.250 OA
ATOM     12  C   UNL     1      38.564 -24.701 -13.597  0.00  0.00    +0.322 C 
ATOM     13  C   UNL     1      39.459 -24.632 -14.799  0.00  0.00    +0.122 C 
ENDBRANCH  10  12
ENDBRANCH   9  10
ENDBRANCH   1   4
BRANCH   1  14
ATOM     14  C   UNL     1      33.434 -22.982 -18.037  0.00  0.00    -0.005 C 
ATOM     15  C   UNL     1      33.385 -24.202 -18.616  0.00  0.00    -0.026 C 
ATOM     16  C   UNL     1      33.494 -24.526 -20.074  0.00  0.00    +0.031 C 
BRANCH  14  17
ATOM     17  C   UNL     1      33.617 -21.825 -18.946  0.00  0.00    -0.000 C 
ATOM     18  C   UNL     1      34.896 -21.457 -19.314  0.00  0.00    +0.003 C 
ATOM     19  C   UNL     1      32.501 -21.149 -19.401  0.00  0.00    +0.003 C 
ATOM     20  C   UNL     1      35.067 -20.369 -20.170  0.00  0.00    +0.038 C 
ATOM     21  C   UNL     1      32.673 -20.061 -20.257  0.00  0.00    +0.038 C 
ATOM     22  C   UNL     1      33.955 -19.672 -20.642  0.00  0.00    +0.148 C 
BRANCH  22  23
ATOM     23  O   UNL     1      34.123 -18.610 -21.478  0.00  0.00    -0.424 OA
BRANCH  23  25
ATOM     24  O   UNL     1      34.997 -16.766 -20.331  0.00  0.00    -0.250 OA
ATOM     25  C   UNL     1      35.137 -17.723 -21.081  0.00  0.00    +0.322 C 
ATOM     26  C   UNL     1      36.438 -18.114 -21.714  0.00  0.00    +0.122 C 
ENDBRANCH  23  25
ENDBRANCH  22  23
ENDBRANCH  14  17
ENDBRANCH   1  14
TORSDOF 7
ENDMDL
MODEL 3
REMARK VINA RESULT:      -9.6      3.569      6.750
REMARK  Name = 5805243
REMARK  7 active torsions:
REMARK  status: ('A' for Active; 'I' for Inactive)
REMARK    1  A    between atoms: C_1  and  C_4
REMARK    2  A    between atoms: C_1  and  C_14
REMARK    3  A    between atoms: C_9  and  O_10
REMARK    4  A    between atoms: O_10  and  C_12
REMARK    5  A    between atoms: C_14  and  C_17
REMARK    6  A    between atoms: C_22  and  O_23
REMARK    7  A    between atoms: O_23  and  C_25
REMARK                            x       y       z     vdW  Elec       q    Type
REMARK                         _______ _______ _______ _____ _____    ______ ____
ROOT
ATOM      1  C   UNL     1      34.297 -18.086 -22.431  0.00  0.00    -0.005 C 
ATOM      2  C   UNL     1      33.784 -18.824 -23.440  0.00  0.00    -0.026 C 
ATOM      3  C   UNL     1      33.106 -18.329 -24.680  0.00  0.00    +0.031 C 
ENDROOT
BRANCH   1   4
ATOM      4  C   UNL     1      34.177 -16.614 -22.561  0.00  0.00    -0.000 C 
ATOM      5  C   UNL     1      34.115 -16.055 -23.822  0.00  0.00    +0.003 C 
ATOM      6  C   UNL     1      34.127 -15.844 -21.415  0.00  0.00    +0.003 C 
ATOM      7  C   UNL     1      34.002 -14.671 -23.943  0.00  0.00    +0.038 C 
ATOM      8  C   UNL     1      34.013 -14.459 -21.536  0.00  0.00    +0.038 C 
ATOM      9  C   UNL     1      33.950 -13.872 -22.800  0.00  0.00    +0.148 C 
BRANCH   9  10
ATOM     10  O   UNL     1      33.838 -12.521 -22.919  0.00  0.00    -0.424 OA
BRANCH  10  12
ATOM     11  O   UNL     1      31.567 -12.687 -22.376  0.00  0.00    -0.250 OA
ATOM     12  C   UNL     1      32.528 -12.038 -22.769  0.00  0.00    +0.322 C 
ATOM     13  C   UNL     1      32.464 -10.593 -23.167  0.00  0.00    +0.122 C 
ENDBRANCH  10  12
ENDBRANCH   9  10
ENDBRANCH   1   4
BRANCH   1  14
ATOM     14  C   UNL     1      34.979 -18.665 -21.268  0.00  0.00    -0.005 C 
ATOM     15  C   UNL     1      36.197 -18.265 -20.841  0.00  0.00    -0.026 C 
ATOM     16  C   UNL     1      36.988 -18.815 -19.694  0.00  0.00    +0.031 C 
BRANCH  14  17
ATOM     17  C   UNL     1      34.347 -19.776 -20.517  0.00  0.00    -0.000 C 
ATOM     18  C   UNL     1      32.991 -19.725 -20.260  0.00  0.00    +0.003 C 
ATOM     19  C   UNL     1      35.132 -20.832 -20.097  0.00  0.00    +0.003 C 
ATOM     20  C   UNL     1      32.397 -20.771 -19.554  0.00  0.00    +0.038 C 
ATOM     21  C   UNL     1      34.538 -21.878 -19.392  0.00  0.00    +0.038 C 
ATOM     22  C   UNL     1      33.170 -21.848 -19.121  0.00  0.00    +0.148 C 
BRANCH  22  23
ATOM     23  O   UNL     1      32.590 -22.869 -18.432  0.00  0.00    -0.424 OA
BRANCH  23  25
ATOM     24  O   UNL     1      33.932 -22.962 -16.515  0.00  0.00    -0.250 OA
ATOM     25  C   UNL     1      32.837 -22.841 -17.050  0.00  0.00    +0.322 C 
ATOM     26  C   UNL     1      31.552 -22.640 -16.302  0.00  0.00    +0.122 C 
ENDBRANCH  23  25
ENDBRANCH  22  23
ENDBRANCH  14  17
ENDBRANCH   1  14
TORSDOF 7
ENDMDL
MODEL 4
REMARK VINA RESULT:      -9.5      3.589      9.813
REMARK  Name = 5805243
REMARK  7 active torsions:
REMARK  status: ('A' for Active; 'I' for Inactive)
REMARK    1  A    between atoms: C_1  and  C_4
REMARK    2  A    between atoms: C_1  and  C_14
REMARK    3  A    between atoms: C_9  and  O_10
REMARK    4  A    between atoms: O_10  and  C_12
REMARK    5  A    between atoms: C_14  and  C_17
REMARK    6  A    between atoms: C_22  and  O_23
REMARK    7  A    between atoms: O_23  and  C_25
REMARK                            x       y       z     vdW  Elec       q    Type
REMARK                         _______ _______ _______ _____ _____    ______ ____
ROOT
ATOM      1  C   UNL     1      34.958 -18.647 -21.316  0.00  0.00    -0.005 C 
ATOM      2  C   UNL     1      36.199 -18.291 -20.920  0.00  0.00    -0.026 C 
ATOM      3  C   UNL     1      37.001 -18.871 -19.796  0.00  0.00    +0.031 C 
ENDROOT
BRANCH   1   4
ATOM      4  C   UNL     1      34.308 -19.739 -20.552  0.00  0.00    -0.000 C 
ATOM      5  C   UNL     1      35.072 -20.807 -20.126  0.00  0.00    +0.003 C 
ATOM      6  C   UNL     1      32.955 -19.654 -20.286  0.00  0.00    +0.003 C 
ATOM      7  C   UNL     1      34.460 -21.832 -19.407  0.00  0.00    +0.038 C 
ATOM      8  C   UNL     1      32.343 -20.681 -19.566  0.00  0.00    +0.038 C 
ATOM      9  C   UNL     1      33.095 -21.769 -19.126  0.00  0.00    +0.148 C 
BRANCH   9  10
ATOM     10  O   UNL     1      32.498 -22.771 -18.423  0.00  0.00    -0.424 OA
BRANCH  10  12
ATOM     11  O   UNL     1      33.939 -22.852 -16.580  0.00  0.00    -0.250 OA
ATOM     12  C   UNL     1      32.813 -22.777 -17.055  0.00  0.00    +0.322 C 
ATOM     13  C   UNL     1      31.559 -22.681 -16.239  0.00  0.00    +0.122 C 
ENDBRANCH  10  12
ENDBRANCH   9  10
ENDBRANCH   1   4
BRANCH   1  14
ATOM     14  C   UNL     1      34.266 -18.041 -22.460  0.00  0.00    -0.005 C 
ATOM     15  C   UNL     1      33.743 -18.756 -23.480  0.00  0.00    -0.026 C 
ATOM     16  C   UNL     1      33.054 -18.232 -24.702  0.00  0.00    +0.031 C 
BRANCH  14  17
ATOM     17  C   UNL     1      34.147 -16.567 -22.555  0.00  0.00    -0.000 C 
ATOM     18  C   UNL     1      34.049 -15.981 -23.802  0.00  0.00    +0.003 C 
ATOM     19  C   UNL     1      34.135 -15.821 -21.393  0.00  0.00    +0.003 C 
ATOM     20  C   UNL     1      33.937 -14.594 -23.890  0.00  0.00    +0.038 C 
ATOM     21  C   UNL     1      34.022 -14.433 -21.481  0.00  0.00    +0.038 C 
ATOM     22  C   UNL     1      33.922 -13.820 -22.730  0.00  0.00    +0.148 C 
BRANCH  22  23
ATOM     23  O   UNL     1      33.812 -12.466 -22.817  0.00  0.00    -0.424 OA
BRANCH  23  25
ATOM     24  O   UNL     1      31.569 -12.616 -22.161  0.00  0.00    -0.250 OA
ATOM     25  C   UNL     1      32.505 -11.984 -22.634  0.00  0.00    +0.322 C 
ATOM     26  C   UNL     1      32.410 -10.565 -23.108  0.00  0.00    +0.122 C 
ENDBRANCH  23  25
ENDBRANCH  22  23
ENDBRANCH  14  17
ENDBRANCH   1  14
TORSDOF 7
ENDMDL
MODEL 5
REMARK VINA RESULT:      -9.3      3.789      5.909
REMARK  Name = 5805243
REMARK  7 active torsions:
REMARK  status: ('A' for Active; 'I' for Inactive)
REMARK    1  A    between atoms: C_1  and  C_4
REMARK    2  A    between atoms: C_1  and  C_14
REMARK    3  A    between atoms: C_9  and  O_10
REMARK    4  A    between atoms: O_10  and  C_12
REMARK    5  A    between atoms: C_14  and  C_17
REMARK    6  A    between atoms: C_22  and  O_23
REMARK    7  A    between atoms: O_23  and  C_25
REMARK                            x       y       z     vdW  Elec       q    Type
REMARK                         _______ _______ _______ _____ _____    ______ ____
ROOT
ATOM      1  C   UNL     1      31.771 -23.643 -14.592  0.00  0.00    -0.005 C 
ATOM      2  C   UNL     1      31.971 -24.354 -13.462  0.00  0.00    -0.026 C 
ATOM      3  C   UNL     1      30.937 -24.841 -12.495  0.00  0.00    +0.031 C 
ENDROOT
BRANCH   1   4
ATOM      4  C   UNL     1      30.366 -23.301 -14.919  0.00  0.00    -0.000 C 
ATOM      5  C   UNL     1      29.894 -22.040 -14.613  0.00  0.00    +0.003 C 
ATOM      6  C   UNL     1      29.569 -24.255 -15.522  0.00  0.00    +0.003 C 
ATOM      7  C   UNL     1      28.573 -21.720 -14.921  0.00  0.00    +0.038 C 
ATOM      8  C   UNL     1      28.247 -23.934 -15.831  0.00  0.00    +0.038 C 
ATOM      9  C   UNL     1      27.749 -22.666 -15.531  0.00  0.00    +0.148 C 
BRANCH   9  10
ATOM     10  O   UNL     1      26.459 -22.352 -15.831  0.00  0.00    -0.424 OA
BRANCH  10  12
ATOM     11  O   UNL     1      26.601 -22.580 -18.157  0.00  0.00    -0.250 OA
ATOM     12  C   UNL     1      26.262 -21.952 -17.163  0.00  0.00    +0.322 C 
ATOM     13  C   UNL     1      25.569 -20.622 -17.202  0.00  0.00    +0.122 C 
ENDBRANCH  10  12
ENDBRANCH   9  10
ENDBRANCH   1   4
BRANCH   1  14
ATOM     14  C   UNL     1      32.852 -23.241 -15.500  0.00  0.00    -0.005 C 
ATOM     15  C   UNL     1      32.643 -22.775 -16.751  0.00  0.00    -0.026 C 
ATOM     16  C   UNL     1      33.674 -22.376 -17.761  0.00  0.00    +0.031 C 
BRANCH  14  17
ATOM     17  C   UNL     1      34.265 -23.373 -15.072  0.00  0.00    -0.000 C 
ATOM     18  C   UNL     1      34.864 -24.617 -15.111  0.00  0.00    +0.003 C 
ATOM     19  C   UNL     1      34.943 -22.247 -14.647  0.00  0.00    +0.003 C 
ATOM     20  C   UNL     1      36.193 -24.741 -14.708  0.00  0.00    +0.038 C 
ATOM     21  C   UNL     1      36.274 -22.371 -14.244  0.00  0.00    +0.038 C 
ATOM     22  C   UNL     1      36.898 -23.617 -14.276  0.00  0.00    +0.148 C 
BRANCH  22  23
ATOM     23  O   UNL     1      38.196 -23.739 -13.883  0.00  0.00    -0.424 OA
BRANCH  23  25
ATOM     24  O   UNL     1      38.083 -25.783 -12.747  0.00  0.00    -0.250 OA
ATOM     25  C   UNL     1      38.587 -25.057 -13.594  0.00  0.00    +0.322 C 
ATOM     26  C   UNL     1      39.728 -25.460 -14.479  0.00  0.00    +0.122 C 
ENDBRANCH  23  25
ENDBRANCH  22  23
ENDBRANCH  14  17
ENDBRANCH   1  14
TORSDOF 7
ENDMDL
MODEL 6
REMARK VINA RESULT:      -9.3      3.951      8.460
REMARK  Name = 5805243
REMARK  7 active torsions:
REMARK  status: ('A' for Active; 'I' for Inactive)
REMARK    1  A    between atoms: C_1  and  C_4
REMARK    2  A    between atoms: C_1  and  C_14
REMARK    3  A    between atoms: C_9  and  O_10
REMARK    4  A    between atoms: O_10  and  C_12
REMARK    5  A    between atoms: C_14  and  C_17
REMARK    6  A    between atoms: C_22  and  O_23
REMARK    7  A    between atoms: O_23  and  C_25
REMARK                            x       y       z     vdW  Elec       q    Type
REMARK                         _______ _______ _______ _____ _____    ______ ____
ROOT
ATOM      1  C   UNL     1      32.343 -23.091 -15.732  0.00  0.00    -0.005 C 
ATOM      2  C   UNL     1      32.178 -22.649 -16.997  0.00  0.00    -0.026 C 
ATOM      3  C   UNL     1      33.244 -22.293 -17.986  0.00  0.00    +0.031 C 
ENDROOT
BRANCH   1   4
ATOM      4  C   UNL     1      33.741 -23.244 -15.262  0.00  0.00    -0.000 C 
ATOM      5  C   UNL     1      34.453 -22.118 -14.899  0.00  0.00    +0.003 C 
ATOM      6  C   UNL     1      34.290 -24.510 -15.199  0.00  0.00    +0.003 C 
ATOM      7  C   UNL     1      35.768 -22.264 -14.457  0.00  0.00    +0.038 C 
ATOM      8  C   UNL     1      35.605 -24.655 -14.756  0.00  0.00    +0.038 C 
ATOM      9  C   UNL     1      36.343 -23.532 -14.385  0.00  0.00    +0.148 C 
BRANCH   9  10
ATOM     10  O   UNL     1      37.627 -23.673 -13.953  0.00  0.00    -0.424 OA
BRANCH  10  12
ATOM     11  O   UNL     1      38.302 -25.750 -13.110  0.00  0.00    -0.250 OA
ATOM     12  C   UNL     1      37.792 -24.648 -12.956  0.00  0.00    +0.322 C 
ATOM     13  C   UNL     1      37.246 -24.148 -11.652  0.00  0.00    +0.122 C 
ENDBRANCH  10  12
ENDBRANCH   9  10
ENDBRANCH   1   4
BRANCH   1  14
ATOM     14  C   UNL     1      31.230 -23.451 -14.846  0.00  0.00    -0.005 C 
ATOM     15  C   UNL     1      31.385 -24.133 -13.690  0.00  0.00    -0.026 C 
ATOM     16  C   UNL     1      30.315 -24.577 -12.741  0.00  0.00    +0.031 C 
BRANCH  14  17
ATOM     17  C   UNL     1      29.841 -23.096 -15.223  0.00  0.00    -0.000 C 
ATOM     18  C   UNL     1      29.129 -23.950 -16.043  0.00  0.00    +0.003 C 
ATOM     19  C   UNL     1      29.296 -21.921 -14.741  0.00  0.00    +0.003 C 
ATOM     20  C   UNL     1      27.823 -23.616 -16.396  0.00  0.00    +0.038 C 
ATOM     21  C   UNL     1      27.989 -21.587 -15.095  0.00  0.00    +0.038 C 
ATOM     22  C   UNL     1      27.252 -22.435 -15.922  0.00  0.00    +0.148 C 
BRANCH  22  23
ATOM     23  O   UNL     1      25.976 -22.109 -16.267  0.00  0.00    -0.424 OA
BRANCH  23  25
ATOM     24  O   UNL     1      25.824 -19.974 -17.215  0.00  0.00    -0.250 OA
ATOM     25  C   UNL     1      25.885 -21.192 -17.326  0.00  0.00    +0.322 C 
ATOM     26  C   UNL     1      25.871 -21.920 -18.637  0.00  0.00    +0.122 C 
ENDBRANCH  23  25
ENDBRANCH  22  23
ENDBRANCH  14  17
ENDBRANCH   1  14
TORSDOF 7
ENDMDL
MODEL 7
REMARK VINA RESULT:      -9.1      8.130     14.158
REMARK  Name = 5805243
REMARK  7 active torsions:
REMARK  status: ('A' for Active; 'I' for Inactive)
REMARK    1  A    between atoms: C_1  and  C_4
REMARK    2  A    between atoms: C_1  and  C_14
REMARK    3  A    between atoms: C_9  and  O_10
REMARK    4  A    between atoms: O_10  and  C_12
REMARK    5  A    between atoms: C_14  and  C_17
REMARK    6  A    between atoms: C_22  and  O_23
REMARK    7  A    between atoms: O_23  and  C_25
REMARK                            x       y       z     vdW  Elec       q    Type
REMARK                         _______ _______ _______ _____ _____    ______ ____
ROOT
ATOM      1  C   UNL     1      32.476 -12.176 -22.914  0.00  0.00    -0.005 C 
ATOM      2  C   UNL     1      32.316 -12.192 -24.254  0.00  0.00    -0.026 C 
ATOM      3  C   UNL     1      32.710 -13.277 -25.208  0.00  0.00    +0.031 C 
ENDROOT
BRANCH   1   4
ATOM      4  C   UNL     1      33.118 -13.368 -22.310  0.00  0.00    -0.000 C 
ATOM      5  C   UNL     1      33.914 -14.174 -23.100  0.00  0.00    +0.003 C 
ATOM      6  C   UNL     1      32.903 -13.638 -20.972  0.00  0.00    +0.003 C 
ATOM      7  C   UNL     1      34.517 -15.294 -22.531  0.00  0.00    +0.038 C 
ATOM      8  C   UNL     1      33.507 -14.759 -20.403  0.00  0.00    +0.038 C 
ATOM      9  C   UNL     1      34.315 -15.587 -21.182  0.00  0.00    +0.148 C 
BRANCH   9  10
ATOM     10  O   UNL     1      34.905 -16.681 -20.628  0.00  0.00    -0.424 OA
BRANCH  10  12
ATOM     11  O   UNL     1      34.137 -18.349 -22.081  0.00  0.00    -0.250 OA
ATOM     12  C   UNL     1      35.049 -17.764 -21.510  0.00  0.00    +0.322 C 
ATOM     13  C   UNL     1      36.500 -18.114 -21.661  0.00  0.00    +0.122 C 
ENDBRANCH  10  12
ENDBRANCH   9  10
ENDBRANCH   1   4
BRANCH   1  14
ATOM     14  C   UNL     1      32.021 -11.076 -22.055  0.00  0.00    -0.005 C 
ATOM     15  C   UNL     1      31.594 -11.248 -20.785  0.00  0.00    -0.026 C 
ATOM     16  C   UNL     1      31.079 -10.201 -19.846  0.00  0.00    +0.031 C 
BRANCH  14  17
ATOM     17  C   UNL     1      31.977  -9.693 -22.587  0.00  0.00    -0.000 C 
ATOM     18  C   UNL     1      33.157  -9.075 -22.948  0.00  0.00    +0.003 C 
ATOM     19  C   UNL     1      30.753  -9.062 -22.707  0.00  0.00    +0.003 C 
ATOM     20  C   UNL     1      33.114  -7.774 -23.448  0.00  0.00    +0.038 C 
ATOM     21  C   UNL     1      30.711  -7.761 -23.208  0.00  0.00    +0.038 C 
ATOM     22  C   UNL     1      31.891  -7.117 -23.579  0.00  0.00    +0.148 C 
BRANCH  22  23
ATOM     23  O   UNL     1      31.850  -5.847 -24.068  0.00  0.00    -0.424 OA
BRANCH  23  25
ATOM     24  O   UNL     1      30.080  -4.428 -23.490  0.00  0.00    -0.250 OA
ATOM     25  C   UNL     1      31.165  -4.938 -23.245  0.00  0.00    +0.322 C 
ATOM     26  C   UNL     1      31.961  -4.671 -22.003  0.00  0.00    +0.122 C 
ENDBRANCH  23  25
ENDBRANCH  22  23
ENDBRANCH  14  17
ENDBRANCH   1  14
TORSDOF 7
ENDMDL
MODEL 8
REMARK VINA RESULT:      -9.1      7.499     12.099
REMARK  Name = 5805243
REMARK  7 active torsions:
REMARK  status: ('A' for Active; 'I' for Inactive)
REMARK    1  A    between atoms: C_1  and  C_4
REMARK    2  A    between atoms: C_1  and  C_14
REMARK    3  A    between atoms: C_9  and  O_10
REMARK    4  A    between atoms: O_10  and  C_12
REMARK    5  A    between atoms: C_14  and  C_17
REMARK    6  A    between atoms: C_22  and  O_23
REMARK    7  A    between atoms: O_23  and  C_25
REMARK                            x       y       z     vdW  Elec       q    Type
REMARK                         _______ _______ _______ _____ _____    ______ ____
ROOT
ATOM      1  C   UNL     1      32.372 -12.024 -22.503  0.00  0.00    -0.005 C 
ATOM      2  C   UNL     1      32.119 -12.524 -21.274  0.00  0.00    -0.026 C 
ATOM      3  C   UNL     1      31.682 -11.772 -20.055  0.00  0.00    +0.031 C 
ENDROOT
BRANCH   1   4
ATOM      4  C   UNL     1      32.198 -10.562 -22.671  0.00  0.00    -0.000 C 
ATOM      5  C   UNL     1      30.957 -10.003 -22.440  0.00  0.00    +0.003 C 
ATOM      6  C   UNL     1      33.285  -9.799 -23.053  0.00  0.00    +0.003 C 
ATOM      7  C   UNL     1      30.795  -8.627 -22.598  0.00  0.00    +0.038 C 
ATOM      8  C   UNL     1      33.123  -8.422 -23.210  0.00  0.00    +0.038 C 
ATOM      9  C   UNL     1      31.878  -7.836 -22.982  0.00  0.00    +0.148 C 
BRANCH   9  10
ATOM     10  O   UNL     1      31.720  -6.493 -23.135  0.00  0.00    -0.424 OA
BRANCH  10  12
ATOM     11  O   UNL     1      29.957  -5.407 -22.043  0.00  0.00    -0.250 OA
ATOM     12  C   UNL     1      31.093  -5.862 -22.048  0.00  0.00    +0.322 C 
ATOM     13  C   UNL     1      32.024  -5.819 -20.873  0.00  0.00    +0.122 C 
ENDBRANCH  10  12
ENDBRANCH   9  10
ENDBRANCH   1   4
BRANCH   1  14
ATOM     14  C   UNL     1      32.762 -12.852 -23.651  0.00  0.00    -0.005 C 
ATOM     15  C   UNL     1      32.562 -12.488 -24.936  0.00  0.00    -0.026 C 
ATOM     16  C   UNL     1      32.890 -13.272 -26.169  0.00  0.00    +0.031 C 
BRANCH  14  17
ATOM     17  C   UNL     1      33.378 -14.182 -23.428  0.00  0.00    -0.000 C 
ATOM     18  C   UNL     1      33.325 -15.123 -24.437  0.00  0.00    +0.003 C 
ATOM     19  C   UNL     1      33.990 -14.440 -22.216  0.00  0.00    +0.003 C 
ATOM     20  C   UNL     1      33.905 -16.373 -24.226  0.00  0.00    +0.038 C 
ATOM     21  C   UNL     1      34.571 -15.691 -22.006  0.00  0.00    +0.038 C 
ATOM     22  C   UNL     1      34.529 -16.657 -23.011  0.00  0.00    +0.148 C 
BRANCH  22  23
ATOM     23  O   UNL     1      35.095 -17.878 -22.807  0.00  0.00    -0.424 OA
BRANCH  23  25
ATOM     24  O   UNL     1      36.031 -17.896 -20.661  0.00  0.00    -0.250 OA
ATOM     25  C   UNL     1      35.172 -18.255 -21.456  0.00  0.00    +0.322 C 
ATOM     26  C   UNL     1      34.039 -19.177 -21.115  0.00  0.00    +0.122 C 
ENDBRANCH  23  25
ENDBRANCH  22  23
ENDBRANCH  14  17
ENDBRANCH   1  14
TORSDOF 7
ENDMDL
MODEL 9
REMARK VINA RESULT:      -9.1      7.504     13.479
REMARK  Name = 5805243
REMARK  7 active torsions:
REMARK  status: ('A' for Active; 'I' for Inactive)
REMARK    1  A    between atoms: C_1  and  C_4
REMARK    2  A    between atoms: C_1  and  C_14
REMARK    3  A    between atoms: C_9  and  O_10
REMARK    4  A    between atoms: O_10  and  C_12
REMARK    5  A    between atoms: C_14  and  C_17
REMARK    6  A    between atoms: C_22  and  O_23
REMARK    7  A    between atoms: O_23  and  C_25
REMARK                            x       y       z     vdW  Elec       q    Type
REMARK                         _______ _______ _______ _____ _____    ______ ____
ROOT
ATOM      1  C   UNL     1      32.754 -12.861 -23.642  0.00  0.00    -0.005 C 
ATOM      2  C   UNL     1      32.550 -12.496 -24.926  0.00  0.00    -0.026 C 
ATOM      3  C   UNL     1      32.880 -13.276 -26.161  0.00  0.00    +0.031 C 
ENDROOT
BRANCH   1   4
ATOM      4  C   UNL     1      33.376 -14.188 -23.423  0.00  0.00    -0.000 C 
ATOM      5  C   UNL     1      33.986 -14.451 -22.212  0.00  0.00    +0.003 C 
ATOM      6  C   UNL     1      33.327 -15.125 -24.437  0.00  0.00    +0.003 C 
ATOM      7  C   UNL     1      34.571 -15.700 -22.007  0.00  0.00    +0.038 C 
ATOM      8  C   UNL     1      33.912 -16.375 -24.231  0.00  0.00    +0.038 C 
ATOM      9  C   UNL     1      34.533 -16.663 -23.016  0.00  0.00    +0.148 C 
BRANCH   9  10
ATOM     10  O   UNL     1      35.104 -17.882 -22.814  0.00  0.00    -0.424 OA
BRANCH  10  12
ATOM     11  O   UNL     1      36.042 -17.902 -20.669  0.00  0.00    -0.250 OA
ATOM     12  C   UNL     1      35.184 -18.261 -21.465  0.00  0.00    +0.322 C 
ATOM     13  C   UNL     1      34.054 -19.187 -21.124  0.00  0.00    +0.122 C 
ENDBRANCH  10  12
ENDBRANCH   9  10
ENDBRANCH   1   4
BRANCH   1  14
ATOM     14  C   UNL     1      32.361 -12.038 -22.492  0.00  0.00    -0.005 C 
ATOM     15  C   UNL     1      32.112 -12.541 -21.263  0.00  0.00    -0.026 C 
ATOM     16  C   UNL     1      31.673 -11.794 -20.042  0.00  0.00    +0.031 C 
BRANCH  14  17
ATOM     17  C   UNL     1      32.180 -10.576 -22.657  0.00  0.00    -0.000 C 
ATOM     18  C   UNL     1      30.941 -10.020 -22.404  0.00  0.00    +0.003 C 
ATOM     19  C   UNL     1      33.257  -9.810 -23.058  0.00  0.00    +0.003 C 
ATOM     20  C   UNL     1      30.772  -8.645 -22.559  0.00  0.00    +0.038 C 
ATOM     21  C   UNL     1      33.088  -8.433 -23.212  0.00  0.00    +0.038 C 
ATOM     22  C   UNL     1      31.846  -7.851 -22.962  0.00  0.00    +0.148 C 
BRANCH  22  23
ATOM     23  O   UNL     1      31.680  -6.508 -23.113  0.00  0.00    -0.424 OA
BRANCH  23  25
ATOM     24  O   UNL     1      32.107  -5.831 -20.913  0.00  0.00    -0.250 OA
ATOM     25  C   UNL     1      31.406  -5.827 -21.916  0.00  0.00    +0.322 C 
ATOM     26  C   UNL     1      30.110  -5.081 -22.035  0.00  0.00    +0.122 C 
ENDBRANCH  23  25
ENDBRANCH  22  23
ENDBRANCH  14  17
ENDBRANCH   1  14
TORSDOF 7
ENDMDL
