MODEL 1
REMARK VINA RESULT:     -12.5      0.000      0.000
REMARK  Name = 68109743
REMARK  6 active torsions:
REMARK  status: ('A' for Active; 'I' for Inactive)
REMARK    1  A    between atoms: N_1  and  C_13
REMARK    2  A    between atoms: C_8  and  C_25
REMARK    3  A    between atoms: C_16  and  O_18
REMARK    4  A    between atoms: O_18  and  C_19
REMARK    5  A    between atoms: C_19  and  C_20
REMARK    6  A    between atoms: N_24  and  S_27
REMARK                            x       y       z     vdW  Elec       q    Type
REMARK                         _______ _______ _______ _____ _____    ______ ____
ROOT
ATOM      1  N   UNL     1      33.925 -21.079 -18.871  0.00  0.00    -0.228 N 
ATOM      2  N   UNL     1      32.695 -21.568 -18.640  0.00  0.00    -0.169 NA
ATOM      3  C   UNL     1      34.861 -21.453 -17.943  0.00  0.00    +0.084 A 
ATOM      4  C   UNL     1      34.177 -22.253 -17.035  0.00  0.00    +0.033 A 
ATOM      5  C   UNL     1      32.852 -22.282 -17.522  0.00  0.00    +0.081 A 
ATOM      6  C   UNL     1      34.870 -22.803 -15.945  0.00  0.00    +0.007 C 
ATOM      7  C   UNL     1      36.222 -21.163 -17.829  0.00  0.00    +0.019 C 
ATOM      8  C   UNL     1      36.236 -22.524 -15.810  0.00  0.00    +0.055 C 
ATOM      9  C   UNL     1      36.898 -21.718 -16.737  0.00  0.00    +0.006 C 
ATOM     10  C   UNL     1      31.694 -22.985 -16.944  0.00  0.00    +0.054 C 
ENDROOT
BRANCH   1  13
ATOM     11 CL   UNL     1      37.134 -18.234 -21.669  0.00  0.00    -0.077 Cl
ATOM     12  N   UNL     1      33.266 -19.200 -21.967  0.00  0.00    -0.208 NA
ATOM     13  C   UNL     1      34.145 -20.266 -19.983  0.00  0.00    +0.103 C 
ATOM     14  C   UNL     1      35.399 -19.720 -20.236  0.00  0.00    +0.037 C 
ATOM     15  C   UNL     1      33.121 -19.978 -20.872  0.00  0.00    +0.121 C 
ATOM     16  C   UNL     1      34.498 -18.686 -22.180  0.00  0.00    +0.236 C 
ATOM     17  C   UNL     1      35.587 -18.913 -21.353  0.00  0.00    +0.112 C 
BRANCH  16  18
ATOM     18  O   UNL     1      34.635 -17.898 -23.293  0.00  0.00    -0.460 OA
BRANCH  18  19
ATOM     19  C   UNL     1      33.769 -16.773 -23.389  0.00  0.00    +0.207 C 
BRANCH  19  20
ATOM     20  C   UNL     1      34.452 -15.536 -22.803  0.00  0.00    +0.044 C 
ATOM     21  C   UNL     1      34.247 -15.480 -21.291  0.00  0.00    +0.004 C 
ATOM     22  C   UNL     1      33.938 -14.251 -23.457  0.00  0.00    +0.004 C 
ENDBRANCH  19  20
ENDBRANCH  18  19
ENDBRANCH  16  18
ENDBRANCH   1  13
BRANCH   8  25
ATOM     23  O   UNL     1      37.115 -22.465 -13.622  0.00  0.00    -0.269 OA
ATOM     24  N   UNL     1      37.537 -24.401 -14.875  0.00  0.00    -0.185 N 
ATOM     25  C   UNL     1      36.972 -23.084 -14.688  0.00  0.00    +0.264 C 
ATOM     26  H   UNL     1      37.388 -24.833 -15.746  0.00  0.00    +0.176 HD
BRANCH  24  27
ATOM     27  S   UNL     1      38.443 -25.275 -13.714  0.00  0.00    +0.058 S 
ATOM     28  O   UNL     1      38.918 -26.519 -14.286  0.00  0.00    -0.154 OA
ATOM     29  O   UNL     1      39.353 -24.361 -13.053  0.00  0.00    -0.154 OA
ATOM     30  C   UNL     1      37.147 -25.662 -12.562  0.00  0.00    +0.200 C 
ENDBRANCH  24  27
ENDBRANCH   8  25
TORSDOF 6
ENDMDL
MODEL 2
REMARK VINA RESULT:     -11.9      6.407     12.165
REMARK  Name = 68109743
REMARK  6 active torsions:
REMARK  status: ('A' for Active; 'I' for Inactive)
REMARK    1  A    between atoms: N_1  and  C_13
REMARK    2  A    between atoms: C_8  and  C_25
REMARK    3  A    between atoms: C_16  and  O_18
REMARK    4  A    between atoms: O_18  and  C_19
REMARK    5  A    between atoms: C_19  and  C_20
REMARK    6  A    between atoms: N_24  and  S_27
REMARK                            x       y       z     vdW  Elec       q    Type
REMARK                         _______ _______ _______ _____ _____    ______ ____
ROOT
ATOM      1  N   UNL     1      33.485 -14.631 -23.183  0.00  0.00    -0.228 N 
ATOM      2  N   UNL     1      33.515 -14.505 -24.519  0.00  0.00    -0.169 NA
ATOM      3  C   UNL     1      32.961 -13.548 -22.528  0.00  0.00    +0.084 A 
ATOM      4  C   UNL     1      32.624 -12.645 -23.529  0.00  0.00    +0.033 A 
ATOM      5  C   UNL     1      32.990 -13.295 -24.728  0.00  0.00    +0.081 A 
ATOM      6  C   UNL     1      32.052 -11.410 -23.178  0.00  0.00    +0.007 C 
ATOM      7  C   UNL     1      32.760 -13.292 -21.171  0.00  0.00    +0.019 C 
ATOM      8  C   UNL     1      31.842 -11.132 -21.822  0.00  0.00    +0.055 C 
ATOM      9  C   UNL     1      32.190 -12.058 -20.837  0.00  0.00    +0.006 C 
ATOM     10  C   UNL     1      32.855 -12.791 -26.105  0.00  0.00    +0.054 C 
ENDROOT
BRANCH   1  13
ATOM     11 CL   UNL     1      34.625 -19.610 -23.567  0.00  0.00    -0.077 Cl
ATOM     12  N   UNL     1      34.860 -16.904 -20.633  0.00  0.00    -0.208 NA
ATOM     13  C   UNL     1      33.967 -15.799 -22.590  0.00  0.00    +0.103 C 
ATOM     14  C   UNL     1      34.044 -16.989 -23.306  0.00  0.00    +0.037 C 
ATOM     15  C   UNL     1      34.384 -15.810 -21.267  0.00  0.00    +0.121 C 
ATOM     16  C   UNL     1      34.920 -18.041 -21.361  0.00  0.00    +0.236 C 
ATOM     17  C   UNL     1      34.528 -18.136 -22.687  0.00  0.00    +0.112 C 
BRANCH  16  18
ATOM     18  O   UNL     1      35.404 -19.145 -20.708  0.00  0.00    -0.460 OA
BRANCH  18  19
ATOM     19  C   UNL     1      34.443 -20.006 -20.109  0.00  0.00    +0.207 C 
BRANCH  19  20
ATOM     20  C   UNL     1      35.124 -21.282 -19.610  0.00  0.00    +0.044 C 
ATOM     21  C   UNL     1      34.080 -22.326 -19.220  0.00  0.00    +0.004 C 
ATOM     22  C   UNL     1      36.054 -20.993 -18.429  0.00  0.00    +0.004 C 
ENDBRANCH  19  20
ENDBRANCH  18  19
ENDBRANCH  16  18
ENDBRANCH   1  13
BRANCH   8  25
ATOM     23  O   UNL     1      30.182  -9.797 -20.810  0.00  0.00    -0.269 OA
ATOM     24  N   UNL     1      31.969  -8.667 -21.823  0.00  0.00    -0.185 N 
ATOM     25  C   UNL     1      31.251  -9.861 -21.436  0.00  0.00    +0.264 C 
ATOM     26  H   UNL     1      32.808  -8.792 -22.321  0.00  0.00    +0.176 HD
BRANCH  24  27
ATOM     27  S   UNL     1      31.487  -7.058 -21.491  0.00  0.00    +0.058 S 
ATOM     28  O   UNL     1      30.393  -6.676 -22.361  0.00  0.00    -0.154 OA
ATOM     29  O   UNL     1      31.392  -6.890 -20.054  0.00  0.00    -0.154 OA
ATOM     30  C   UNL     1      32.944  -6.198 -22.032  0.00  0.00    +0.200 C 
ENDBRANCH  24  27
ENDBRANCH   8  25
TORSDOF 6
ENDMDL
MODEL 3
REMARK VINA RESULT:     -11.2      6.980     11.336
REMARK  Name = 68109743
REMARK  6 active torsions:
REMARK  status: ('A' for Active; 'I' for Inactive)
REMARK    1  A    between atoms: N_1  and  C_13
REMARK    2  A    between atoms: C_8  and  C_25
REMARK    3  A    between atoms: C_16  and  O_18
REMARK    4  A    between atoms: O_18  and  C_19
REMARK    5  A    between atoms: C_19  and  C_20
REMARK    6  A    between atoms: N_24  and  S_27
REMARK                            x       y       z     vdW  Elec       q    Type
REMARK                         _______ _______ _______ _____ _____    ______ ____
ROOT
ATOM      1  N   UNL     1      32.603 -11.095 -23.384  0.00  0.00    -0.228 N 
ATOM      2  N   UNL     1      32.458 -11.306 -24.702  0.00  0.00    -0.169 NA
ATOM      3  C   UNL     1      33.025 -12.193 -22.682  0.00  0.00    +0.084 A 
ATOM      4  C   UNL     1      33.165 -13.200 -23.630  0.00  0.00    +0.033 A 
ATOM      5  C   UNL     1      32.801 -12.589 -24.849  0.00  0.00    +0.081 A 
ATOM      6  C   UNL     1      33.593 -14.475 -23.221  0.00  0.00    +0.007 C 
ATOM      7  C   UNL     1      33.291 -12.382 -21.324  0.00  0.00    +0.019 C 
ATOM      8  C   UNL     1      33.864 -14.686 -21.863  0.00  0.00    +0.055 C 
ATOM      9  C   UNL     1      33.715 -13.656 -20.933  0.00  0.00    +0.006 C 
ATOM     10  C   UNL     1      32.765 -13.199 -26.189  0.00  0.00    +0.054 C 
ENDROOT
BRANCH   1  13
ATOM     11 CL   UNL     1      33.996  -6.217 -22.683  0.00  0.00    -0.077 Cl
ATOM     12  N   UNL     1      30.828  -8.405 -21.604  0.00  0.00    -0.208 NA
ATOM     13  C   UNL     1      32.325  -9.834 -22.853  0.00  0.00    +0.103 C 
ATOM     14  C   UNL     1      33.210  -8.775 -23.021  0.00  0.00    +0.037 C 
ATOM     15  C   UNL     1      31.158  -9.599 -22.143  0.00  0.00    +0.121 C 
ATOM     16  C   UNL     1      31.713  -7.399 -21.787  0.00  0.00    +0.236 C 
ATOM     17  C   UNL     1      32.906  -7.530 -22.480  0.00  0.00    +0.112 C 
BRANCH  16  18
ATOM     18  O   UNL     1      31.369  -6.192 -21.236  0.00  0.00    -0.460 OA
BRANCH  18  19
ATOM     19  C   UNL     1      30.377  -5.436 -21.921  0.00  0.00    +0.207 C 
BRANCH  19  20
ATOM     20  C   UNL     1      31.043  -4.353 -22.773  0.00  0.00    +0.044 C 
ATOM     21  C   UNL     1      30.466  -2.979 -22.437  0.00  0.00    +0.004 C 
ATOM     22  C   UNL     1      30.886  -4.644 -24.268  0.00  0.00    +0.004 C 
ENDBRANCH  19  20
ENDBRANCH  18  19
ENDBRANCH  16  18
ENDBRANCH   1  13
BRANCH   8  25
ATOM     23  O   UNL     1      34.622 -16.219 -20.239  0.00  0.00    -0.269 OA
ATOM     24  N   UNL     1      34.371 -17.036 -22.422  0.00  0.00    -0.185 N 
ATOM     25  C   UNL     1      34.308 -15.998 -21.419  0.00  0.00    +0.264 C 
ATOM     26  H   UNL     1      34.111 -16.789 -23.338  0.00  0.00    +0.176 HD
BRANCH  24  27
ATOM     27  S   UNL     1      34.858 -18.655 -22.156  0.00  0.00    +0.058 S 
ATOM     28  O   UNL     1      34.292 -19.150 -20.917  0.00  0.00    -0.154 OA
ATOM     29  O   UNL     1      34.706 -19.394 -23.394  0.00  0.00    -0.154 OA
ATOM     30  C   UNL     1      36.598 -18.400 -21.899  0.00  0.00    +0.200 C 
ENDBRANCH  24  27
ENDBRANCH   8  25
TORSDOF 6
ENDMDL
MODEL 4
REMARK VINA RESULT:     -11.1      3.735      9.249
REMARK  Name = 68109743
REMARK  6 active torsions:
REMARK  status: ('A' for Active; 'I' for Inactive)
REMARK    1  A    between atoms: N_1  and  C_13
REMARK    2  A    between atoms: C_8  and  C_25
REMARK    3  A    between atoms: C_16  and  O_18
REMARK    4  A    between atoms: O_18  and  C_19
REMARK    5  A    between atoms: C_19  and  C_20
REMARK    6  A    between atoms: N_24  and  S_27
REMARK                            x       y       z     vdW  Elec       q    Type
REMARK                         _______ _______ _______ _____ _____    ______ ____
ROOT
ATOM      1  N   UNL     1      33.529 -23.250 -15.666  0.00  0.00    -0.228 N 
ATOM      2  N   UNL     1      32.226 -23.421 -15.392  0.00  0.00    -0.169 NA
ATOM      3  C   UNL     1      33.775 -22.492 -16.780  0.00  0.00    +0.084 A 
ATOM      4  C   UNL     1      32.521 -22.143 -17.267  0.00  0.00    +0.033 A 
ATOM      5  C   UNL     1      31.614 -22.745 -16.369  0.00  0.00    +0.081 A 
ATOM      6  C   UNL     1      32.429 -21.351 -18.424  0.00  0.00    +0.007 C 
ATOM      7  C   UNL     1      34.967 -22.093 -17.387  0.00  0.00    +0.019 C 
ATOM      8  C   UNL     1      33.612 -20.939 -19.049  0.00  0.00    +0.055 C 
ATOM      9  C   UNL     1      34.859 -21.305 -18.538  0.00  0.00    +0.006 C 
ATOM     10  C   UNL     1      30.142 -22.701 -16.407  0.00  0.00    +0.054 C 
ENDROOT
BRANCH   1  13
ATOM     11 CL   UNL     1      36.443 -22.989 -11.462  0.00  0.00    -0.077 Cl
ATOM     12  N   UNL     1      35.962 -25.691 -14.369  0.00  0.00    -0.208 NA
ATOM     13  C   UNL     1      34.489 -23.831 -14.836  0.00  0.00    +0.103 C 
ATOM     14  C   UNL     1      34.932 -23.182 -13.688  0.00  0.00    +0.037 C 
ATOM     15  C   UNL     1      35.031 -25.073 -15.129  0.00  0.00    +0.121 C 
ATOM     16  C   UNL     1      36.368 -25.030 -13.262  0.00  0.00    +0.236 C 
ATOM     17  C   UNL     1      35.890 -23.786 -12.881  0.00  0.00    +0.112 C 
BRANCH  16  18
ATOM     18  O   UNL     1      37.313 -25.666 -12.499  0.00  0.00    -0.460 OA
BRANCH  18  19
ATOM     19  C   UNL     1      38.652 -25.199 -12.619  0.00  0.00    +0.207 C 
BRANCH  19  20
ATOM     20  C   UNL     1      39.188 -25.509 -14.019  0.00  0.00    +0.044 C 
ATOM     21  C   UNL     1      40.523 -26.246 -13.926  0.00  0.00    +0.004 C 
ATOM     22  C   UNL     1      39.342 -24.235 -14.853  0.00  0.00    +0.004 C 
ENDBRANCH  19  20
ENDBRANCH  18  19
ENDBRANCH  16  18
ENDBRANCH   1  13
BRANCH   8  25
ATOM     23  O   UNL     1      32.518 -20.073 -20.950  0.00  0.00    -0.269 OA
ATOM     24  N   UNL     1      34.721 -19.359 -20.587  0.00  0.00    -0.185 N 
ATOM     25  C   UNL     1      33.540 -20.119 -20.248  0.00  0.00    +0.264 C 
ATOM     26  H   UNL     1      35.496 -19.445 -19.987  0.00  0.00    +0.176 HD
BRANCH  24  27
ATOM     27  S   UNL     1      34.890 -18.322 -21.939  0.00  0.00    +0.058 S 
ATOM     28  O   UNL     1      34.469 -19.005 -23.146  0.00  0.00    -0.154 OA
ATOM     29  O   UNL     1      34.358 -17.019 -21.593  0.00  0.00    -0.154 OA
ATOM     30  C   UNL     1      36.661 -18.179 -21.980  0.00  0.00    +0.200 C 
ENDBRANCH  24  27
ENDBRANCH   8  25
TORSDOF 6
ENDMDL
MODEL 5
REMARK VINA RESULT:     -11.0      6.751     11.037
REMARK  Name = 68109743
REMARK  6 active torsions:
REMARK  status: ('A' for Active; 'I' for Inactive)
REMARK    1  A    between atoms: N_1  and  C_13
REMARK    2  A    between atoms: C_8  and  C_25
REMARK    3  A    between atoms: C_16  and  O_18
REMARK    4  A    between atoms: O_18  and  C_19
REMARK    5  A    between atoms: C_19  and  C_20
REMARK    6  A    between atoms: N_24  and  S_27
REMARK                            x       y       z     vdW  Elec       q    Type
REMARK                         _______ _______ _______ _____ _____    ______ ____
ROOT
ATOM      1  N   UNL     1      32.515 -11.362 -23.066  0.00  0.00    -0.228 N 
ATOM      2  N   UNL     1      32.398 -11.469 -24.399  0.00  0.00    -0.169 NA
ATOM      3  C   UNL     1      32.996 -12.488 -22.452  0.00  0.00    +0.084 A 
ATOM      4  C   UNL     1      33.210 -13.400 -23.478  0.00  0.00    +0.033 A 
ATOM      5  C   UNL     1      32.822 -12.711 -24.648  0.00  0.00    +0.081 A 
ATOM      6  C   UNL     1      33.711 -14.677 -23.171  0.00  0.00    +0.007 C 
ATOM      7  C   UNL     1      33.257 -12.775 -21.111  0.00  0.00    +0.019 C 
ATOM      8  C   UNL     1      33.979 -14.985 -21.832  0.00  0.00    +0.055 C 
ATOM      9  C   UNL     1      33.756 -14.049 -20.821  0.00  0.00    +0.006 C 
ATOM     10  C   UNL     1      32.840 -13.206 -26.035  0.00  0.00    +0.054 C 
ENDROOT
BRANCH   1  13
ATOM     11 CL   UNL     1      30.484  -8.969 -19.018  0.00  0.00    -0.077 Cl
ATOM     12  N   UNL     1      32.044  -7.756 -22.494  0.00  0.00    -0.208 NA
ATOM     13  C   UNL     1      32.153 -10.170 -22.436  0.00  0.00    +0.103 C 
ATOM     14  C   UNL     1      31.564 -10.175 -21.176  0.00  0.00    +0.037 C 
ATOM     15  C   UNL     1      32.370  -8.945 -23.047  0.00  0.00    +0.121 C 
ATOM     16  C   UNL     1      31.474  -7.800 -21.269  0.00  0.00    +0.236 C 
ATOM     17  C   UNL     1      31.214  -8.970 -20.575  0.00  0.00    +0.112 C 
BRANCH  16  18
ATOM     18  O   UNL     1      31.147  -6.588 -20.717  0.00  0.00    -0.460 OA
BRANCH  18  19
ATOM     19  C   UNL     1      32.062  -5.520 -20.932  0.00  0.00    +0.207 C 
BRANCH  19  20
ATOM     20  C   UNL     1      31.354  -4.359 -21.634  0.00  0.00    +0.044 C 
ATOM     21  C   UNL     1      29.843  -4.582 -21.642  0.00  0.00    +0.004 C 
ATOM     22  C   UNL     1      31.871  -4.171 -23.062  0.00  0.00    +0.004 C 
ENDBRANCH  19  20
ENDBRANCH  18  19
ENDBRANCH  16  18
ENDBRANCH   1  13
BRANCH   8  25
ATOM     23  O   UNL     1      34.926 -16.564 -20.358  0.00  0.00    -0.269 OA
ATOM     24  N   UNL     1      34.498 -17.291 -22.545  0.00  0.00    -0.185 N 
ATOM     25  C   UNL     1      34.498 -16.301 -21.492  0.00  0.00    +0.264 C 
ATOM     26  H   UNL     1      34.148 -17.012 -23.421  0.00  0.00    +0.176 HD
BRANCH  24  27
ATOM     27  S   UNL     1      35.053 -18.904 -22.401  0.00  0.00    +0.058 S 
ATOM     28  O   UNL     1      34.643 -19.677 -23.556  0.00  0.00    -0.154 OA
ATOM     29  O   UNL     1      36.437 -18.881 -21.971  0.00  0.00    -0.154 OA
ATOM     30  C   UNL     1      34.074 -19.429 -21.015  0.00  0.00    +0.200 C 
ENDBRANCH  24  27
ENDBRANCH   8  25
TORSDOF 6
ENDMDL
MODEL 6
REMARK VINA RESULT:     -10.8      5.514     11.057
REMARK  Name = 68109743
REMARK  6 active torsions:
REMARK  status: ('A' for Active; 'I' for Inactive)
REMARK    1  A    between atoms: N_1  and  C_13
REMARK    2  A    between atoms: C_8  and  C_25
REMARK    3  A    between atoms: C_16  and  O_18
REMARK    4  A    between atoms: O_18  and  C_19
REMARK    5  A    between atoms: C_19  and  C_20
REMARK    6  A    between atoms: N_24  and  S_27
REMARK                            x       y       z     vdW  Elec       q    Type
REMARK                         _______ _______ _______ _____ _____    ______ ____
ROOT
ATOM      1  N   UNL     1      34.405 -16.600 -22.181  0.00  0.00    -0.228 N 
ATOM      2  N   UNL     1      34.562 -16.571 -23.514  0.00  0.00    -0.169 NA
ATOM      3  C   UNL     1      33.853 -15.462 -21.656  0.00  0.00    +0.084 A 
ATOM      4  C   UNL     1      33.634 -14.626 -22.744  0.00  0.00    +0.033 A 
ATOM      5  C   UNL     1      34.092 -15.368 -23.855  0.00  0.00    +0.081 A 
ATOM      6  C   UNL     1      33.067 -13.358 -22.534  0.00  0.00    +0.007 C 
ATOM      7  C   UNL     1      33.534 -15.105 -20.344  0.00  0.00    +0.019 C 
ATOM      8  C   UNL     1      32.740 -12.979 -21.227  0.00  0.00    +0.055 C 
ATOM      9  C   UNL     1      32.970 -13.840 -20.151  0.00  0.00    +0.006 C 
ATOM     10  C   UNL     1      34.099 -14.961 -25.270  0.00  0.00    +0.054 C 
ENDROOT
BRANCH   1  13
ATOM     11 CL   UNL     1      33.160 -21.030 -19.933  0.00  0.00    -0.077 Cl
ATOM     12  N   UNL     1      36.568 -18.993 -20.406  0.00  0.00    -0.208 NA
ATOM     13  C   UNL     1      34.798 -17.732 -21.466  0.00  0.00    +0.103 C 
ATOM     14  C   UNL     1      33.875 -18.706 -21.101  0.00  0.00    +0.037 C 
ATOM     15  C   UNL     1      36.121 -17.921 -21.097  0.00  0.00    +0.121 C 
ATOM     16  C   UNL     1      35.642 -19.918 -20.068  0.00  0.00    +0.236 C 
ATOM     17  C   UNL     1      34.297 -19.823 -20.387  0.00  0.00    +0.112 C 
BRANCH  16  18
ATOM     18  O   UNL     1      36.106 -21.001 -19.367  0.00  0.00    -0.460 OA
BRANCH  18  19
ATOM     19  C   UNL     1      35.476 -21.271 -18.120  0.00  0.00    +0.207 C 
BRANCH  19  20
ATOM     20  C   UNL     1      36.532 -21.614 -17.066  0.00  0.00    +0.044 C 
ATOM     21  C   UNL     1      35.896 -22.367 -15.899  0.00  0.00    +0.004 C 
ATOM     22  C   UNL     1      37.245 -20.357 -16.561  0.00  0.00    +0.004 C 
ENDBRANCH  19  20
ENDBRANCH  18  19
ENDBRANCH  16  18
ENDBRANCH   1  13
BRANCH   8  25
ATOM     23  O   UNL     1      31.679 -11.356 -19.884  0.00  0.00    -0.269 OA
ATOM     24  N   UNL     1      32.137 -10.751 -22.102  0.00  0.00    -0.185 N 
ATOM     25  C   UNL     1      32.151 -11.671 -20.987  0.00  0.00    +0.264 C 
ATOM     26  H   UNL     1      32.525 -11.069 -22.949  0.00  0.00    +0.176 HD
BRANCH  24  27
ATOM     27  S   UNL     1      31.505  -9.161 -22.079  0.00  0.00    +0.058 S 
ATOM     28  O   UNL     1      30.131  -9.163 -22.541  0.00  0.00    -0.154 OA
ATOM     29  O   UNL     1      31.869  -8.536 -20.822  0.00  0.00    -0.154 OA
ATOM     30  C   UNL     1      32.509  -8.427 -23.348  0.00  0.00    +0.200 C 
ENDBRANCH  24  27
ENDBRANCH   8  25
TORSDOF 6
ENDMDL
MODEL 7
REMARK VINA RESULT:     -10.7      8.375     14.261
REMARK  Name = 68109743
REMARK  6 active torsions:
REMARK  status: ('A' for Active; 'I' for Inactive)
REMARK    1  A    between atoms: N_1  and  C_13
REMARK    2  A    between atoms: C_8  and  C_25
REMARK    3  A    between atoms: C_16  and  O_18
REMARK    4  A    between atoms: O_18  and  C_19
REMARK    5  A    between atoms: C_19  and  C_20
REMARK    6  A    between atoms: N_24  and  S_27
REMARK                            x       y       z     vdW  Elec       q    Type
REMARK                         _______ _______ _______ _____ _____    ______ ____
ROOT
ATOM      1  N   UNL     1      32.270 -11.638 -21.228  0.00  0.00    -0.228 N 
ATOM      2  N   UNL     1      31.805 -11.488 -19.977  0.00  0.00    -0.169 NA
ATOM      3  C   UNL     1      32.090 -10.542 -22.029  0.00  0.00    +0.084 A 
ATOM      4  C   UNL     1      31.455  -9.602 -21.226  0.00  0.00    +0.033 A 
ATOM      5  C   UNL     1      31.310 -10.248 -19.978  0.00  0.00    +0.081 A 
ATOM      6  C   UNL     1      31.127  -8.347 -21.764  0.00  0.00    +0.007 C 
ATOM      7  C   UNL     1      32.425 -10.303 -23.364  0.00  0.00    +0.019 C 
ATOM      8  C   UNL     1      31.453  -8.086 -23.100  0.00  0.00    +0.055 C 
ATOM      9  C   UNL     1      32.091  -9.048 -23.885  0.00  0.00    +0.006 C 
ATOM     10  C   UNL     1      30.698  -9.710 -18.751  0.00  0.00    +0.054 C 
ENDROOT
BRANCH   1  13
ATOM     11 CL   UNL     1      33.397 -15.044 -24.883  0.00  0.00    -0.077 Cl
ATOM     12  N   UNL     1      34.124 -14.808 -20.959  0.00  0.00    -0.208 NA
ATOM     13  C   UNL     1      32.870 -12.842 -21.600  0.00  0.00    +0.103 C 
ATOM     14  C   UNL     1      32.833 -13.286 -22.917  0.00  0.00    +0.037 C 
ATOM     15  C   UNL     1      33.523 -13.633 -20.666  0.00  0.00    +0.121 C 
ATOM     16  C   UNL     1      34.068 -15.206 -22.249  0.00  0.00    +0.236 C 
ATOM     17  C   UNL     1      33.441 -14.490 -23.256  0.00  0.00    +0.112 C 
BRANCH  16  18
ATOM     18  O   UNL     1      34.680 -16.399 -22.534  0.00  0.00    -0.460 OA
BRANCH  18  19
ATOM     19  C   UNL     1      34.993 -17.237 -21.429  0.00  0.00    +0.207 C 
BRANCH  19  20
ATOM     20  C   UNL     1      34.802 -18.705 -21.816  0.00  0.00    +0.044 C 
ATOM     21  C   UNL     1      34.064 -18.813 -23.149  0.00  0.00    +0.004 C 
ATOM     22  C   UNL     1      34.050 -19.476 -20.728  0.00  0.00    +0.004 C 
ENDBRANCH  19  20
ENDBRANCH  18  19
ENDBRANCH  16  18
ENDBRANCH   1  13
BRANCH   8  25
ATOM     23  O   UNL     1      30.542  -6.690 -24.769  0.00  0.00    -0.269 OA
ATOM     24  N   UNL     1      31.506  -5.625 -22.917  0.00  0.00    -0.185 N 
ATOM     25  C   UNL     1      31.122  -6.792 -23.677  0.00  0.00    +0.264 C 
ATOM     26  H   UNL     1      31.965  -5.780 -22.061  0.00  0.00    +0.176 HD
BRANCH  24  27
ATOM     27  S   UNL     1      31.232  -3.998 -23.375  0.00  0.00    +0.058 S 
ATOM     28  O   UNL     1      29.982  -3.888 -24.099  0.00  0.00    -0.154 OA
ATOM     29  O   UNL     1      31.515  -3.143 -22.238  0.00  0.00    -0.154 OA
ATOM     30  C   UNL     1      32.560  -3.793 -24.538  0.00  0.00    +0.200 C 
ENDBRANCH  24  27
ENDBRANCH   8  25
TORSDOF 6
ENDMDL
MODEL 8
REMARK VINA RESULT:      -9.6      5.286      9.800
REMARK  Name = 68109743
REMARK  6 active torsions:
REMARK  status: ('A' for Active; 'I' for Inactive)
REMARK    1  A    between atoms: N_1  and  C_13
REMARK    2  A    between atoms: C_8  and  C_25
REMARK    3  A    between atoms: C_16  and  O_18
REMARK    4  A    between atoms: O_18  and  C_19
REMARK    5  A    between atoms: C_19  and  C_20
REMARK    6  A    between atoms: N_24  and  S_27
REMARK                            x       y       z     vdW  Elec       q    Type
REMARK                         _______ _______ _______ _____ _____    ______ ____
ROOT
ATOM      1  N   UNL     1      34.074 -22.591 -16.021  0.00  0.00    -0.228 N 
ATOM      2  N   UNL     1      34.419 -22.208 -17.261  0.00  0.00    -0.169 NA
ATOM      3  C   UNL     1      32.723 -22.696 -15.821  0.00  0.00    +0.084 A 
ATOM      4  C   UNL     1      32.146 -22.351 -17.037  0.00  0.00    +0.033 A 
ATOM      5  C   UNL     1      33.243 -22.063 -17.877  0.00  0.00    +0.081 A 
ATOM      6  C   UNL     1      30.746 -22.361 -17.162  0.00  0.00    +0.007 C 
ATOM      7  C   UNL     1      31.976 -23.057 -14.698  0.00  0.00    +0.019 C 
ATOM      8  C   UNL     1      29.978 -22.719 -16.047  0.00  0.00    +0.055 C 
ATOM      9  C   UNL     1      30.584 -23.062 -14.837  0.00  0.00    +0.006 C 
ATOM     10  C   UNL     1      33.211 -21.641 -19.289  0.00  0.00    +0.054 C 
ENDROOT
BRANCH   1  13
ATOM     11 CL   UNL     1      35.393 -24.257 -11.361  0.00  0.00    -0.077 Cl
ATOM     12  N   UNL     1      37.413 -22.787 -14.482  0.00  0.00    -0.208 NA
ATOM     13  C   UNL     1      35.070 -22.840 -15.075  0.00  0.00    +0.103 C 
ATOM     14  C   UNL     1      34.758 -23.368 -13.827  0.00  0.00    +0.037 C 
ATOM     15  C   UNL     1      36.401 -22.569 -15.351  0.00  0.00    +0.121 C 
ATOM     16  C   UNL     1      37.071 -23.300 -13.279  0.00  0.00    +0.236 C 
ATOM     17  C   UNL     1      35.772 -23.605 -12.905  0.00  0.00    +0.112 C 
BRANCH  16  18
ATOM     18  O   UNL     1      38.105 -23.516 -12.405  0.00  0.00    -0.460 OA
BRANCH  18  19
ATOM     19  C   UNL     1      38.690 -24.813 -12.415  0.00  0.00    +0.207 C 
BRANCH  19  20
ATOM     20  C   UNL     1      38.765 -25.341 -13.850  0.00  0.00    +0.044 C 
ATOM     21  C   UNL     1      37.765 -26.477 -14.053  0.00  0.00    +0.004 C 
ATOM     22  C   UNL     1      40.180 -25.809 -14.199  0.00  0.00    +0.004 C 
ENDBRANCH  19  20
ENDBRANCH  18  19
ENDBRANCH  16  18
ENDBRANCH   1  13
BRANCH   8  25
ATOM     23  O   UNL     1      27.846 -23.660 -15.684  0.00  0.00    -0.269 OA
ATOM     24  N   UNL     1      27.914 -21.623 -16.842  0.00  0.00    -0.185 N 
ATOM     25  C   UNL     1      28.528 -22.736 -16.154  0.00  0.00    +0.264 C 
ATOM     26  H   UNL     1      28.516 -20.928 -17.193  0.00  0.00    +0.176 HD
BRANCH  24  27
ATOM     27  S   UNL     1      26.236 -21.408 -17.100  0.00  0.00    +0.058 S 
ATOM     28  O   UNL     1      25.958 -20.030 -17.453  0.00  0.00    -0.154 OA
ATOM     29  O   UNL     1      25.749 -22.501 -17.918  0.00  0.00    -0.154 OA
ATOM     30  C   UNL     1      25.647 -21.679 -15.445  0.00  0.00    +0.200 C 
ENDBRANCH  24  27
ENDBRANCH   8  25
TORSDOF 6
ENDMDL
MODEL 9
REMARK VINA RESULT:      -9.5      3.883      5.292
REMARK  Name = 68109743
REMARK  6 active torsions:
REMARK  status: ('A' for Active; 'I' for Inactive)
REMARK    1  A    between atoms: N_1  and  C_13
REMARK    2  A    between atoms: C_8  and  C_25
REMARK    3  A    between atoms: C_16  and  O_18
REMARK    4  A    between atoms: O_18  and  C_19
REMARK    5  A    between atoms: C_19  and  C_20
REMARK    6  A    between atoms: N_24  and  S_27
REMARK                            x       y       z     vdW  Elec       q    Type
REMARK                         _______ _______ _______ _____ _____    ______ ____
ROOT
ATOM      1  N   UNL     1      34.741 -19.847 -20.064  0.00  0.00    -0.228 N 
ATOM      2  N   UNL     1      35.962 -20.180 -19.614  0.00  0.00    -0.169 NA
ATOM      3  C   UNL     1      33.711 -20.460 -19.402  0.00  0.00    +0.084 A 
ATOM      4  C   UNL     1      34.320 -21.258 -18.440  0.00  0.00    +0.033 A 
ATOM      5  C   UNL     1      35.702 -21.039 -18.625  0.00  0.00    +0.081 A 
ATOM      6  C   UNL     1      33.521 -22.031 -17.580  0.00  0.00    +0.007 C 
ATOM      7  C   UNL     1      32.327 -20.383 -19.563  0.00  0.00    +0.019 C 
ATOM      8  C   UNL     1      32.129 -21.968 -17.725  0.00  0.00    +0.055 C 
ATOM      9  C   UNL     1      31.544 -21.157 -18.700  0.00  0.00    +0.006 C 
ATOM     10  C   UNL     1      36.819 -21.636 -17.873  0.00  0.00    +0.054 C 
ENDROOT
BRANCH   1  13
ATOM     11 CL   UNL     1      34.567 -15.000 -21.712  0.00  0.00    -0.077 Cl
ATOM     12  N   UNL     1      34.339 -18.572 -23.495  0.00  0.00    -0.208 NA
ATOM     13  C   UNL     1      34.619 -18.945 -21.122  0.00  0.00    +0.103 C 
ATOM     14  C   UNL     1      34.652 -17.572 -20.902  0.00  0.00    +0.037 C 
ATOM     15  C   UNL     1      34.462 -19.390 -22.426  0.00  0.00    +0.121 C 
ATOM     16  C   UNL     1      34.375 -17.245 -23.242  0.00  0.00    +0.236 C 
ATOM     17  C   UNL     1      34.528 -16.698 -21.978  0.00  0.00    +0.112 C 
BRANCH  16  18
ATOM     18  O   UNL     1      34.249 -16.424 -24.333  0.00  0.00    -0.460 OA
BRANCH  18  19
ATOM     19  C   UNL     1      33.023 -15.713 -24.460  0.00  0.00    +0.207 C 
BRANCH  19  20
ATOM     20  C   UNL     1      33.299 -14.212 -24.565  0.00  0.00    +0.044 C 
ATOM     21  C   UNL     1      32.592 -13.459 -23.440  0.00  0.00    +0.004 C 
ATOM     22  C   UNL     1      32.868 -13.659 -25.927  0.00  0.00    +0.004 C 
ENDBRANCH  19  20
ENDBRANCH  18  19
ENDBRANCH  16  18
ENDBRANCH   1  13
BRANCH   8  25
ATOM     23  O   UNL     1      31.721 -23.736 -16.217  0.00  0.00    -0.269 OA
ATOM     24  N   UNL     1      29.899 -22.356 -16.740  0.00  0.00    -0.185 N 
ATOM     25  C   UNL     1      31.283 -22.759 -16.846  0.00  0.00    +0.264 C 
ATOM     26  H   UNL     1      29.620 -21.575 -17.269  0.00  0.00    +0.176 HD
BRANCH  24  27
ATOM     27  S   UNL     1      28.706 -23.118 -15.778  0.00  0.00    +0.058 S 
ATOM     28  O   UNL     1      28.235 -24.324 -16.429  0.00  0.00    -0.154 OA
ATOM     29  O   UNL     1      29.166 -23.143 -14.403  0.00  0.00    -0.154 OA
ATOM     30  C   UNL     1      27.419 -21.898 -15.886  0.00  0.00    +0.200 C 
ENDBRANCH  24  27
ENDBRANCH   8  25
TORSDOF 6
ENDMDL
