MODEL 1
REMARK VINA RESULT:     -10.9      0.000      0.000
REMARK  Name = 13373715
REMARK  1 active torsions:
REMARK  status: ('A' for Active; 'I' for Inactive)
REMARK    1  A    between atoms: C_6  and  C_16
REMARK                            x       y       z     vdW  Elec       q    Type
REMARK                         _______ _______ _______ _____ _____    ______ ____
ROOT
ATOM      1  N   UNL     1      35.033 -24.614 -15.565  0.00  0.00    -0.260 NA
ATOM      2  N   UNL     1      34.894 -22.603 -14.263  0.00  0.00    -0.260 NA
ATOM      3  N   UNL     1      35.785 -24.607 -13.287  0.00  0.00    -0.247 NA
ATOM      4  N   UNL     1      35.907 -26.556 -14.584  0.00  0.00    -0.282 N 
ATOM      5  N   UNL     1      35.636 -22.627 -12.038  0.00  0.00    -0.282 N 
ATOM      6  C   UNL     1      34.729 -23.325 -15.377  0.00  0.00    +0.163 C 
ATOM      7  C   UNL     1      35.558 -25.193 -14.473  0.00  0.00    +0.217 C 
ATOM      8  C   UNL     1      35.428 -23.312 -13.255  0.00  0.00    +0.217 C 
ATOM      9  H   UNL     1      35.762 -27.034 -15.432  0.00  0.00    +0.156 HD
ATOM     10  H   UNL     1      36.297 -27.029 -13.813  0.00  0.00    +0.156 HD
ATOM     11  H   UNL     1      35.391 -21.677 -11.961  0.00  0.00    +0.156 HD
ATOM     12  H   UNL     1      36.025 -23.099 -11.268  0.00  0.00    +0.156 HD
ENDROOT
BRANCH   6  16
ATOM     13 BR   UNL     1      31.536 -23.381 -15.543  0.00  0.00    -0.048 Br
ATOM     14  C   UNL     1      34.537 -21.321 -18.530  0.00  0.00    +0.001 C 
ATOM     15  C   UNL     1      33.140 -21.256 -18.743  0.00  0.00    +0.001 C 
ATOM     16  C   UNL     1      34.156 -22.628 -16.513  0.00  0.00    +0.093 C 
ATOM     17  C   UNL     1      35.029 -22.011 -17.409  0.00  0.00    +0.013 C 
ATOM     18  C   UNL     1      32.276 -21.883 -17.831  0.00  0.00    +0.007 C 
ATOM     19  C   UNL     1      32.782 -22.564 -16.723  0.00  0.00    +0.046 C 
ATOM     20  C   UNL     1      35.402 -20.694 -19.441  0.00  0.00    +0.000 C 
ATOM     21  C   UNL     1      32.648 -20.565 -19.862  0.00  0.00    +0.000 C 
ATOM     22  C   UNL     1      34.895 -20.013 -20.549  0.00  0.00    +0.000 C 
ATOM     23  C   UNL     1      33.521 -19.948 -20.759  0.00  0.00    +0.000 C 
ENDBRANCH   6  16
TORSDOF 1
ENDMDL
MODEL 2
REMARK VINA RESULT:     -10.9      0.128      1.862
REMARK  Name = 13373715
REMARK  1 active torsions:
REMARK  status: ('A' for Active; 'I' for Inactive)
REMARK    1  A    between atoms: C_6  and  C_16
REMARK                            x       y       z     vdW  Elec       q    Type
REMARK                         _______ _______ _______ _____ _____    ______ ____
ROOT
ATOM      1  N   UNL     1      34.910 -22.678 -14.172  0.00  0.00    -0.260 NA
ATOM      2  N   UNL     1      35.085 -24.671 -15.498  0.00  0.00    -0.260 NA
ATOM      3  N   UNL     1      35.851 -24.671 -13.224  0.00  0.00    -0.247 NA
ATOM      4  N   UNL     1      35.669 -22.709 -11.953  0.00  0.00    -0.282 N 
ATOM      5  N   UNL     1      36.009 -26.603 -14.544  0.00  0.00    -0.282 N 
ATOM      6  C   UNL     1      34.755 -23.391 -15.294  0.00  0.00    +0.163 C 
ATOM      7  C   UNL     1      35.467 -23.386 -13.176  0.00  0.00    +0.217 C 
ATOM      8  C   UNL     1      35.630 -25.249 -14.416  0.00  0.00    +0.217 C 
ATOM      9  H   UNL     1      35.404 -21.765 -11.865  0.00  0.00    +0.156 HD
ATOM     10  H   UNL     1      36.073 -23.181 -11.190  0.00  0.00    +0.156 HD
ATOM     11  H   UNL     1      35.870 -27.074 -15.397  0.00  0.00    +0.156 HD
ATOM     12  H   UNL     1      36.414 -27.075 -13.781  0.00  0.00    +0.156 HD
ENDROOT
BRANCH   6  16
ATOM     13 BR   UNL     1      31.559 -23.444 -15.390  0.00  0.00    -0.048 Br
ATOM     14  C   UNL     1      34.497 -21.390 -18.444  0.00  0.00    +0.001 C 
ATOM     15  C   UNL     1      33.095 -21.324 -18.627  0.00  0.00    +0.001 C 
ATOM     16  C   UNL     1      34.158 -22.695 -16.418  0.00  0.00    +0.093 C 
ATOM     17  C   UNL     1      35.012 -22.080 -17.334  0.00  0.00    +0.013 C 
ATOM     18  C   UNL     1      32.251 -21.949 -17.695  0.00  0.00    +0.007 C 
ATOM     19  C   UNL     1      32.780 -22.630 -16.598  0.00  0.00    +0.046 C 
ATOM     20  C   UNL     1      35.342 -20.766 -19.376  0.00  0.00    +0.000 C 
ATOM     21  C   UNL     1      32.580 -20.635 -19.737  0.00  0.00    +0.000 C 
ATOM     22  C   UNL     1      34.812 -20.086 -20.473  0.00  0.00    +0.000 C 
ATOM     23  C   UNL     1      33.434 -20.020 -20.653  0.00  0.00    +0.000 C 
ENDBRANCH   6  16
TORSDOF 1
ENDMDL
MODEL 3
REMARK VINA RESULT:     -10.7      1.741      2.051
REMARK  Name = 13373715
REMARK  1 active torsions:
REMARK  status: ('A' for Active; 'I' for Inactive)
REMARK    1  A    between atoms: C_6  and  C_16
REMARK                            x       y       z     vdW  Elec       q    Type
REMARK                         _______ _______ _______ _____ _____    ______ ____
ROOT
ATOM      1  N   UNL     1      37.451 -23.950 -14.615  0.00  0.00    -0.260 NA
ATOM      2  N   UNL     1      36.166 -22.537 -13.162  0.00  0.00    -0.260 NA
ATOM      3  N   UNL     1      38.043 -23.757 -12.298  0.00  0.00    -0.247 NA
ATOM      4  N   UNL     1      39.280 -25.130 -13.742  0.00  0.00    -0.282 N 
ATOM      5  N   UNL     1      36.768 -22.370 -10.902  0.00  0.00    -0.282 N 
ATOM      6  C   UNL     1      36.457 -23.098 -14.341  0.00  0.00    +0.163 C 
ATOM      7  C   UNL     1      38.205 -24.235 -13.542  0.00  0.00    +0.217 C 
ATOM      8  C   UNL     1      37.003 -22.915 -12.183  0.00  0.00    +0.217 C 
ATOM      9  H   UNL     1      39.443 -25.510 -14.635  0.00  0.00    +0.156 HD
ATOM     10  H   UNL     1      39.865 -25.373 -12.988  0.00  0.00    +0.156 HD
ATOM     11  H   UNL     1      36.018 -21.747 -10.763  0.00  0.00    +0.156 HD
ATOM     12  H   UNL     1      37.351 -22.613 -10.148  0.00  0.00    +0.156 HD
ENDROOT
BRANCH   6  16
ATOM     13 BR   UNL     1      33.413 -24.038 -14.066  0.00  0.00    -0.048 Br
ATOM     14  C   UNL     1      35.379 -21.654 -17.620  0.00  0.00    +0.001 C 
ATOM     15  C   UNL     1      34.007 -21.999 -17.647  0.00  0.00    +0.001 C 
ATOM     16  C   UNL     1      35.596 -22.738 -15.452  0.00  0.00    +0.093 C 
ATOM     17  C   UNL     1      36.160 -22.032 -16.515  0.00  0.00    +0.013 C 
ATOM     18  C   UNL     1      33.456 -22.710 -16.569  0.00  0.00    +0.007 C 
ATOM     19  C   UNL     1      34.247 -23.077 -15.479  0.00  0.00    +0.046 C 
ATOM     20  C   UNL     1      35.931 -20.943 -18.698  0.00  0.00    +0.000 C 
ATOM     21  C   UNL     1      33.227 -21.622 -18.752  0.00  0.00    +0.000 C 
ATOM     22  C   UNL     1      35.140 -20.577 -19.788  0.00  0.00    +0.000 C 
ATOM     23  C   UNL     1      33.791 -20.915 -19.814  0.00  0.00    +0.000 C 
ENDBRANCH   6  16
TORSDOF 1
ENDMDL
MODEL 4
REMARK VINA RESULT:     -10.7      1.754      2.688
REMARK  Name = 13373715
REMARK  1 active torsions:
REMARK  status: ('A' for Active; 'I' for Inactive)
REMARK    1  A    between atoms: C_6  and  C_16
REMARK                            x       y       z     vdW  Elec       q    Type
REMARK                         _______ _______ _______ _____ _____    ______ ____
ROOT
ATOM      1  N   UNL     1      36.221 -22.553 -13.168  0.00  0.00    -0.260 NA
ATOM      2  N   UNL     1      37.463 -23.993 -14.631  0.00  0.00    -0.260 NA
ATOM      3  N   UNL     1      38.082 -23.807 -12.320  0.00  0.00    -0.247 NA
ATOM      4  N   UNL     1      36.850 -22.392 -10.914  0.00  0.00    -0.282 N 
ATOM      5  N   UNL     1      39.278 -25.206 -13.774  0.00  0.00    -0.282 N 
ATOM      6  C   UNL     1      36.490 -23.120 -14.349  0.00  0.00    +0.163 C 
ATOM      7  C   UNL     1      37.062 -22.944 -12.197  0.00  0.00    +0.217 C 
ATOM      8  C   UNL     1      38.223 -24.291 -13.565  0.00  0.00    +0.217 C 
ATOM      9  H   UNL     1      36.115 -21.753 -10.769  0.00  0.00    +0.156 HD
ATOM     10  H   UNL     1      37.437 -22.645 -10.166  0.00  0.00    +0.156 HD
ATOM     11  H   UNL     1      39.426 -25.590 -14.668  0.00  0.00    +0.156 HD
ATOM     12  H   UNL     1      39.865 -25.459 -13.027  0.00  0.00    +0.156 HD
ENDROOT
BRANCH   6  16
ATOM     13 BR   UNL     1      33.437 -24.027 -14.052  0.00  0.00    -0.048 Br
ATOM     14  C   UNL     1      35.401 -21.654 -17.614  0.00  0.00    +0.001 C 
ATOM     15  C   UNL     1      34.025 -21.982 -17.631  0.00  0.00    +0.001 C 
ATOM     16  C   UNL     1      35.623 -22.747 -15.452  0.00  0.00    +0.093 C 
ATOM     17  C   UNL     1      36.187 -22.044 -16.516  0.00  0.00    +0.013 C 
ATOM     18  C   UNL     1      33.475 -22.691 -16.550  0.00  0.00    +0.007 C 
ATOM     19  C   UNL     1      34.270 -23.071 -15.468  0.00  0.00    +0.046 C 
ATOM     20  C   UNL     1      35.952 -20.945 -18.694  0.00  0.00    +0.000 C 
ATOM     21  C   UNL     1      33.240 -21.593 -18.727  0.00  0.00    +0.000 C 
ATOM     22  C   UNL     1      35.156 -20.566 -19.776  0.00  0.00    +0.000 C 
ATOM     23  C   UNL     1      33.803 -20.889 -19.792  0.00  0.00    +0.000 C 
ENDBRANCH   6  16
TORSDOF 1
ENDMDL
MODEL 5
REMARK VINA RESULT:     -10.3      9.998     12.470
REMARK  Name = 13373715
REMARK  1 active torsions:
REMARK  status: ('A' for Active; 'I' for Inactive)
REMARK    1  A    between atoms: C_6  and  C_16
REMARK                            x       y       z     vdW  Elec       q    Type
REMARK                         _______ _______ _______ _____ _____    ______ ____
ROOT
ATOM      1  N   UNL     1      33.512 -11.172 -23.295  0.00  0.00    -0.260 NA
ATOM      2  N   UNL     1      31.600 -12.040 -22.133  0.00  0.00    -0.260 NA
ATOM      3  N   UNL     1      31.876  -9.670 -22.387  0.00  0.00    -0.247 NA
ATOM      4  N   UNL     1      33.755  -8.851 -23.527  0.00  0.00    -0.282 N 
ATOM      5  N   UNL     1      30.018 -10.547 -21.256  0.00  0.00    -0.282 N 
ATOM      6  C   UNL     1      32.750 -12.157 -22.807  0.00  0.00    +0.163 C 
ATOM      7  C   UNL     1      33.012  -9.951 -23.046  0.00  0.00    +0.217 C 
ATOM      8  C   UNL     1      31.224 -10.763 -21.960  0.00  0.00    +0.217 C 
ATOM      9  H   UNL     1      34.595  -9.002 -24.017  0.00  0.00    +0.156 HD
ATOM     10  H   UNL     1      33.433  -7.934 -23.372  0.00  0.00    +0.156 HD
ATOM     11  H   UNL     1      29.501 -11.314 -20.921  0.00  0.00    +0.156 HD
ATOM     12  H   UNL     1      29.697  -9.631 -21.101  0.00  0.00    +0.156 HD
ENDROOT
BRANCH   6  16
ATOM     13 BR   UNL     1      32.641 -13.144 -25.847  0.00  0.00    -0.048 Br
ATOM     14  C   UNL     1      34.146 -15.553 -22.091  0.00  0.00    +0.001 C 
ATOM     15  C   UNL     1      34.161 -16.134 -23.381  0.00  0.00    +0.001 C 
ATOM     16  C   UNL     1      33.224 -13.509 -23.036  0.00  0.00    +0.093 C 
ATOM     17  C   UNL     1      33.674 -14.239 -21.935  0.00  0.00    +0.013 C 
ATOM     18  C   UNL     1      33.704 -15.385 -24.477  0.00  0.00    +0.007 C 
ATOM     19  C   UNL     1      33.239 -14.081 -24.304  0.00  0.00    +0.046 C 
ATOM     20  C   UNL     1      34.603 -16.301 -20.994  0.00  0.00    +0.000 C 
ATOM     21  C   UNL     1      34.633 -17.448 -23.536  0.00  0.00    +0.000 C 
ATOM     22  C   UNL     1      35.067 -17.606 -21.167  0.00  0.00    +0.000 C 
ATOM     23  C   UNL     1      35.083 -18.177 -22.436  0.00  0.00    +0.000 C 
ENDBRANCH   6  16
TORSDOF 1
ENDMDL
MODEL 6
REMARK VINA RESULT:     -10.2      6.409      8.871
REMARK  Name = 13373715
REMARK  1 active torsions:
REMARK  status: ('A' for Active; 'I' for Inactive)
REMARK    1  A    between atoms: C_6  and  C_16
REMARK                            x       y       z     vdW  Elec       q    Type
REMARK                         _______ _______ _______ _____ _____    ______ ____
ROOT
ATOM      1  N   UNL     1      34.550 -17.141 -22.622  0.00  0.00    -0.260 NA
ATOM      2  N   UNL     1      33.077 -18.865 -23.409  0.00  0.00    -0.260 NA
ATOM      3  N   UNL     1      33.309 -16.825 -24.651  0.00  0.00    -0.247 NA
ATOM      4  N   UNL     1      34.755 -15.158 -23.857  0.00  0.00    -0.282 N 
ATOM      5  N   UNL     1      31.878 -18.527 -25.396  0.00  0.00    -0.282 N 
ATOM      6  C   UNL     1      33.957 -18.338 -22.550  0.00  0.00    +0.163 C 
ATOM      7  C   UNL     1      34.176 -16.437 -23.702  0.00  0.00    +0.217 C 
ATOM      8  C   UNL     1      32.800 -18.049 -24.439  0.00  0.00    +0.217 C 
ATOM      9  H   UNL     1      35.397 -14.825 -23.190  0.00  0.00    +0.156 HD
ATOM     10  H   UNL     1      34.517 -14.600 -24.632  0.00  0.00    +0.156 HD
ATOM     11  H   UNL     1      31.474 -19.418 -25.287  0.00  0.00    +0.156 HD
ATOM     12  H   UNL     1      31.639 -17.970 -26.170  0.00  0.00    +0.156 HD
ENDROOT
BRANCH   6  16
ATOM     13 BR   UNL     1      37.059 -18.335 -21.772  0.00  0.00    -0.048 Br
ATOM     14  C   UNL     1      33.563 -20.676 -19.656  0.00  0.00    +0.001 C 
ATOM     15  C   UNL     1      34.895 -20.779 -19.188  0.00  0.00    +0.001 C 
ATOM     16  C   UNL     1      34.309 -19.161 -21.408  0.00  0.00    +0.093 C 
ATOM     17  C   UNL     1      33.287 -19.862 -20.767  0.00  0.00    +0.013 C 
ATOM     18  C   UNL     1      35.911 -20.066 -19.845  0.00  0.00    +0.007 C 
ATOM     19  C   UNL     1      35.618 -19.262 -20.948  0.00  0.00    +0.046 C 
ATOM     20  C   UNL     1      32.547 -21.388 -18.999  0.00  0.00    +0.000 C 
ATOM     21  C   UNL     1      35.171 -21.592 -18.077  0.00  0.00    +0.000 C 
ATOM     22  C   UNL     1      32.840 -22.192 -17.897  0.00  0.00    +0.000 C 
ATOM     23  C   UNL     1      34.149 -22.293 -17.437  0.00  0.00    +0.000 C 
ENDBRANCH   6  16
TORSDOF 1
ENDMDL
MODEL 7
REMARK VINA RESULT:     -10.0      3.846      4.972
REMARK  Name = 13373715
REMARK  1 active torsions:
REMARK  status: ('A' for Active; 'I' for Inactive)
REMARK    1  A    between atoms: C_6  and  C_16
REMARK                            x       y       z     vdW  Elec       q    Type
REMARK                         _______ _______ _______ _____ _____    ______ ____
ROOT
ATOM      1  N   UNL     1      30.246 -24.135 -15.045  0.00  0.00    -0.260 NA
ATOM      2  N   UNL     1      29.475 -22.352 -16.454  0.00  0.00    -0.260 NA
ATOM      3  N   UNL     1      27.894 -23.721 -15.277  0.00  0.00    -0.247 NA
ATOM      4  N   UNL     1      28.678 -25.457 -13.908  0.00  0.00    -0.282 N 
ATOM      5  N   UNL     1      27.170 -21.972 -16.661  0.00  0.00    -0.282 N 
ATOM      6  C   UNL     1      30.420 -23.108 -15.884  0.00  0.00    +0.163 C 
ATOM      7  C   UNL     1      28.953 -24.386 -14.786  0.00  0.00    +0.217 C 
ATOM      8  C   UNL     1      28.231 -22.718 -16.103  0.00  0.00    +0.217 C 
ATOM      9  H   UNL     1      29.418 -25.977 -13.520  0.00  0.00    +0.156 HD
ATOM     10  H   UNL     1      27.746 -25.683 -13.683  0.00  0.00    +0.156 HD
ATOM     11  H   UNL     1      27.362 -21.226 -17.273  0.00  0.00    +0.156 HD
ATOM     12  H   UNL     1      26.239 -22.198 -16.437  0.00  0.00    +0.156 HD
ENDROOT
BRANCH   6  16
ATOM     13 BR   UNL     1      32.539 -23.576 -13.535  0.00  0.00    -0.048 Br
ATOM     14  C   UNL     1      33.367 -21.950 -17.876  0.00  0.00    +0.001 C 
ATOM     15  C   UNL     1      34.420 -22.101 -16.944  0.00  0.00    +0.001 C 
ATOM     16  C   UNL     1      31.793 -22.774 -16.214  0.00  0.00    +0.093 C 
ATOM     17  C   UNL     1      32.058 -22.291 -17.496  0.00  0.00    +0.013 C 
ATOM     18  C   UNL     1      34.134 -22.589 -15.658  0.00  0.00    +0.007 C 
ATOM     19  C   UNL     1      32.829 -22.923 -15.297  0.00  0.00    +0.046 C 
ATOM     20  C   UNL     1      33.651 -21.462 -19.162  0.00  0.00    +0.000 C 
ATOM     21  C   UNL     1      35.728 -21.760 -17.325  0.00  0.00    +0.000 C 
ATOM     22  C   UNL     1      34.957 -21.128 -19.523  0.00  0.00    +0.000 C 
ATOM     23  C   UNL     1      35.993 -21.277 -18.606  0.00  0.00    +0.000 C 
ENDBRANCH   6  16
TORSDOF 1
ENDMDL
MODEL 8
REMARK VINA RESULT:      -9.7      3.366      4.456
REMARK  Name = 13373715
REMARK  1 active torsions:
REMARK  status: ('A' for Active; 'I' for Inactive)
REMARK    1  A    between atoms: C_6  and  C_16
REMARK                            x       y       z     vdW  Elec       q    Type
REMARK                         _______ _______ _______ _____ _____    ______ ____
ROOT
ATOM      1  N   UNL     1      31.141 -23.606 -15.511  0.00  0.00    -0.260 NA
ATOM      2  N   UNL     1      29.804 -22.111 -16.830  0.00  0.00    -0.260 NA
ATOM      3  N   UNL     1      28.771 -23.484 -15.156  0.00  0.00    -0.247 NA
ATOM      4  N   UNL     1      30.102 -24.936 -13.883  0.00  0.00    -0.282 N 
ATOM      5  N   UNL     1      27.491 -22.015 -16.460  0.00  0.00    -0.282 N 
ATOM      6  C   UNL     1      30.957 -22.681 -16.460  0.00  0.00    +0.163 C 
ATOM      7  C   UNL     1      30.000 -23.961 -14.900  0.00  0.00    +0.217 C 
ATOM      8  C   UNL     1      28.750 -22.564 -16.133  0.00  0.00    +0.217 C 
ATOM      9  H   UNL     1      30.980 -25.318 -13.655  0.00  0.00    +0.156 HD
ATOM     10  H   UNL     1      29.296 -25.232 -13.401  0.00  0.00    +0.156 HD
ATOM     11  H   UNL     1      27.420 -21.336 -17.169  0.00  0.00    +0.156 HD
ATOM     12  H   UNL     1      26.685 -22.311 -15.980  0.00  0.00    +0.156 HD
ENDROOT
BRANCH   6  16
ATOM     13 BR   UNL     1      33.731 -23.650 -15.199  0.00  0.00    -0.048 Br
ATOM     14  C   UNL     1      33.084 -21.003 -19.039  0.00  0.00    +0.001 C 
ATOM     15  C   UNL     1      34.386 -21.349 -18.606  0.00  0.00    +0.001 C 
ATOM     16  C   UNL     1      32.145 -22.243 -17.169  0.00  0.00    +0.093 C 
ATOM     17  C   UNL     1      31.974 -21.458 -18.309  0.00  0.00    +0.013 C 
ATOM     18  C   UNL     1      34.539 -22.140 -17.456  0.00  0.00    +0.007 C 
ATOM     19  C   UNL     1      33.425 -22.584 -16.742  0.00  0.00    +0.046 C 
ATOM     20  C   UNL     1      32.930 -20.212 -20.190  0.00  0.00    +0.000 C 
ATOM     21  C   UNL     1      35.496 -20.894 -19.336  0.00  0.00    +0.000 C 
ATOM     22  C   UNL     1      34.045 -19.768 -20.902  0.00  0.00    +0.000 C 
ATOM     23  C   UNL     1      35.324 -20.109 -20.476  0.00  0.00    +0.000 C 
ENDBRANCH   6  16
TORSDOF 1
ENDMDL
MODEL 9
REMARK VINA RESULT:      -9.6      1.679      2.307
REMARK  Name = 13373715
REMARK  1 active torsions:
REMARK  status: ('A' for Active; 'I' for Inactive)
REMARK    1  A    between atoms: C_6  and  C_16
REMARK                            x       y       z     vdW  Elec       q    Type
REMARK                         _______ _______ _______ _____ _____    ______ ____
ROOT
ATOM      1  N   UNL     1      35.537 -24.602 -15.361  0.00  0.00    -0.260 NA
ATOM      2  N   UNL     1      34.823 -22.721 -14.053  0.00  0.00    -0.260 NA
ATOM      3  N   UNL     1      35.266 -24.825 -12.987  0.00  0.00    -0.247 NA
ATOM      4  N   UNL     1      35.961 -26.646 -14.291  0.00  0.00    -0.282 N 
ATOM      5  N   UNL     1      34.566 -22.969 -11.736  0.00  0.00    -0.282 N 
ATOM      6  C   UNL     1      35.156 -23.331 -15.197  0.00  0.00    +0.163 C 
ATOM      7  C   UNL     1      35.569 -25.292 -14.209  0.00  0.00    +0.217 C 
ATOM      8  C   UNL     1      34.901 -23.533 -12.986  0.00  0.00    +0.217 C 
ATOM      9  H   UNL     1      36.195 -27.038 -15.164  0.00  0.00    +0.156 HD
ATOM     10  H   UNL     1      36.003 -27.197 -13.477  0.00  0.00    +0.156 HD
ATOM     11  H   UNL     1      34.292 -22.026 -11.679  0.00  0.00    +0.156 HD
ATOM     12  H   UNL     1      34.606 -23.520 -10.922  0.00  0.00    +0.156 HD
ENDROOT
BRANCH   6  16
ATOM     13 BR   UNL     1      37.932 -22.022 -16.096  0.00  0.00    -0.048 Br
ATOM     14  C   UNL     1      33.740 -21.612 -18.203  0.00  0.00    +0.001 C 
ATOM     15  C   UNL     1      34.884 -20.966 -18.728  0.00  0.00    +0.001 C 
ATOM     16  C   UNL     1      35.096 -22.518 -16.397  0.00  0.00    +0.093 C 
ATOM     17  C   UNL     1      33.863 -22.385 -17.036  0.00  0.00    +0.013 C 
ATOM     18  C   UNL     1      36.117 -21.111 -18.072  0.00  0.00    +0.007 C 
ATOM     19  C   UNL     1      36.221 -21.883 -16.914  0.00  0.00    +0.046 C 
ATOM     20  C   UNL     1      32.506 -21.467 -18.858  0.00  0.00    +0.000 C 
ATOM     21  C   UNL     1      34.761 -20.193 -19.894  0.00  0.00    +0.000 C 
ATOM     22  C   UNL     1      32.402 -20.695 -20.015  0.00  0.00    +0.000 C 
ATOM     23  C   UNL     1      33.527 -20.060 -20.533  0.00  0.00    +0.000 C 
ENDBRANCH   6  16
TORSDOF 1
ENDMDL
