MODEL 1
REMARK VINA RESULT:     -12.0      0.000      0.000
REMARK  Name = 9797919
REMARK  5 active torsions:
REMARK  status: ('A' for Active; 'I' for Inactive)
REMARK    1  A    between atoms: C_1  and  N_18
REMARK    2  A    between atoms: C_2  and  C_9
REMARK    3  A    between atoms: N_8  and  C_12
REMARK    4  A    between atoms: N_18  and  C_20
REMARK    5  A    between atoms: C_20  and  C_22
REMARK                            x       y       z     vdW  Elec       q    Type
REMARK                         _______ _______ _______ _____ _____    ______ ____
ROOT
ATOM      1  C   UNL     1      34.314 -16.648 -22.690  0.00  0.00    +0.049 C 
ATOM      2  C   UNL     1      34.333 -18.028 -22.479  0.00  0.00    +0.067 C 
ATOM      3  C   UNL     1      33.833 -16.134 -23.895  0.00  0.00    +0.014 C 
ATOM      4  C   UNL     1      33.871 -18.891 -23.473  0.00  0.00    +0.006 C 
ATOM      5  C   UNL     1      33.371 -16.998 -24.887  0.00  0.00    +0.001 C 
ATOM      6  C   UNL     1      33.390 -18.377 -24.676  0.00  0.00    +0.000 C 
ENDROOT
BRANCH   2   9
ATOM      7  O   UNL     1      35.730 -18.007 -20.620  0.00  0.00    -0.270 OA
ATOM      8  N   UNL     1      34.208 -19.782 -20.816  0.00  0.00    -0.280 N 
ATOM      9  C   UNL     1      34.829 -18.597 -21.233  0.00  0.00    +0.251 C 
ATOM     10  H   UNL     1      33.507 -20.130 -21.412  0.00  0.00    +0.155 HD
BRANCH   8  12
ATOM     11 CL   UNL     1      35.254 -22.948 -15.942  0.00  0.00    -0.082 Cl
ATOM     12  C   UNL     1      34.460 -20.541 -19.648  0.00  0.00    +0.051 C 
ATOM     13  C   UNL     1      35.747 -20.599 -19.141  0.00  0.00    +0.016 C 
ATOM     14  C   UNL     1      33.412 -21.210 -19.038  0.00  0.00    +0.016 C 
ATOM     15  C   UNL     1      35.994 -21.346 -17.989  0.00  0.00    +0.013 C 
ATOM     16  C   UNL     1      33.659 -21.958 -17.886  0.00  0.00    +0.013 C 
ATOM     17  C   UNL     1      34.950 -22.026 -17.363  0.00  0.00    +0.058 C 
ENDBRANCH   8  12
ENDBRANCH   2   9
BRANCH   1  18
ATOM     18  N   UNL     1      34.777 -15.756 -21.697  0.00  0.00    -0.329 N 
ATOM     19  H   UNL     1      35.736 -15.535 -21.674  0.00  0.00    +0.147 HD
BRANCH  18  20
ATOM     20  C   UNL     1      33.913 -15.162 -20.727  0.00  0.00    +0.114 C 
BRANCH  20  22
ATOM     21  N   UNL     1      32.126 -11.543 -22.171  0.00  0.00    -0.242 NA
ATOM     22  C   UNL     1      33.287 -13.895 -21.233  0.00  0.00    +0.000 C 
ATOM     23  C   UNL     1      32.176 -13.373 -20.591  0.00  0.00    +0.018 C 
ATOM     24  C   UNL     1      33.825 -13.256 -22.339  0.00  0.00    +0.018 C 
ATOM     25  C   UNL     1      31.636 -12.201 -21.095  0.00  0.00    +0.099 C 
ATOM     26  C   UNL     1      33.210 -12.090 -22.766  0.00  0.00    +0.099 C 
ENDBRANCH  20  22
ENDBRANCH  18  20
ENDBRANCH   1  18
TORSDOF 5
ENDMDL
MODEL 2
REMARK VINA RESULT:     -11.6      2.154      3.657
REMARK  Name = 9797919
REMARK  5 active torsions:
REMARK  status: ('A' for Active; 'I' for Inactive)
REMARK    1  A    between atoms: C_1  and  N_18
REMARK    2  A    between atoms: C_2  and  C_9
REMARK    3  A    between atoms: N_8  and  C_12
REMARK    4  A    between atoms: N_18  and  C_20
REMARK    5  A    between atoms: C_20  and  C_22
REMARK                            x       y       z     vdW  Elec       q    Type
REMARK                         _______ _______ _______ _____ _____    ______ ____
ROOT
ATOM      1  C   UNL     1      33.115 -13.332 -22.987  0.00  0.00    +0.049 C 
ATOM      2  C   UNL     1      33.636 -14.599 -23.251  0.00  0.00    +0.067 C 
ATOM      3  C   UNL     1      32.676 -12.525 -24.038  0.00  0.00    +0.014 C 
ATOM      4  C   UNL     1      33.719 -15.058 -24.566  0.00  0.00    +0.006 C 
ATOM      5  C   UNL     1      32.759 -12.986 -25.352  0.00  0.00    +0.001 C 
ATOM      6  C   UNL     1      33.281 -14.253 -25.616  0.00  0.00    +0.000 C 
ENDROOT
BRANCH   2   9
ATOM      7  O   UNL     1      34.284 -14.981 -21.050  0.00  0.00    -0.270 OA
ATOM      8  N   UNL     1      34.289 -16.811 -22.518  0.00  0.00    -0.280 N 
ATOM      9  C   UNL     1      34.103 -15.465 -22.177  0.00  0.00    +0.251 C 
ATOM     10  H   UNL     1      34.104 -17.044 -23.456  0.00  0.00    +0.155 HD
BRANCH   8  12
ATOM     11 CL   UNL     1      36.028 -21.263 -19.050  0.00  0.00    -0.082 Cl
ATOM     12  C   UNL     1      34.707 -17.878 -21.687  0.00  0.00    +0.051 C 
ATOM     13  C   UNL     1      36.040 -17.975 -21.327  0.00  0.00    +0.016 C 
ATOM     14  C   UNL     1      33.771 -18.803 -21.252  0.00  0.00    +0.016 C 
ATOM     15  C   UNL     1      36.451 -19.027 -20.508  0.00  0.00    +0.013 C 
ATOM     16  C   UNL     1      34.182 -19.854 -20.433  0.00  0.00    +0.013 C 
ATOM     17  C   UNL     1      35.522 -19.966 -20.061  0.00  0.00    +0.058 C 
ENDBRANCH   8  12
ENDBRANCH   2   9
BRANCH   1  18
ATOM     18  N   UNL     1      33.022 -12.847 -21.664  0.00  0.00    -0.329 N 
ATOM     19  H   UNL     1      33.854 -12.676 -21.165  0.00  0.00    +0.147 HD
BRANCH  18  20
ATOM     20  C   UNL     1      31.773 -12.593 -21.017  0.00  0.00    +0.114 C 
BRANCH  20  22
ATOM     21  N   UNL     1      31.126  -8.407 -20.362  0.00  0.00    -0.242 NA
ATOM     22  C   UNL     1      31.547 -11.127 -20.788  0.00  0.00    +0.000 C 
ATOM     23  C   UNL     1      31.349 -10.284 -21.869  0.00  0.00    +0.018 C 
ATOM     24  C   UNL     1      31.538 -10.626 -19.496  0.00  0.00    +0.018 C 
ATOM     25  C   UNL     1      31.143  -8.940 -21.605  0.00  0.00    +0.099 C 
ATOM     26  C   UNL     1      31.325  -9.266 -19.338  0.00  0.00    +0.099 C 
ENDBRANCH  20  22
ENDBRANCH  18  20
ENDBRANCH   1  18
TORSDOF 5
ENDMDL
MODEL 3
REMARK VINA RESULT:     -11.4      4.976      8.016
REMARK  Name = 9797919
REMARK  5 active torsions:
REMARK  status: ('A' for Active; 'I' for Inactive)
REMARK    1  A    between atoms: C_1  and  N_18
REMARK    2  A    between atoms: C_2  and  C_9
REMARK    3  A    between atoms: N_8  and  C_12
REMARK    4  A    between atoms: N_18  and  C_20
REMARK    5  A    between atoms: C_20  and  C_22
REMARK                            x       y       z     vdW  Elec       q    Type
REMARK                         _______ _______ _______ _____ _____    ______ ____
ROOT
ATOM      1  C   UNL     1      34.851 -20.937 -19.236  0.00  0.00    +0.049 C 
ATOM      2  C   UNL     1      33.479 -21.190 -19.235  0.00  0.00    +0.067 C 
ATOM      3  C   UNL     1      35.380 -19.963 -20.084  0.00  0.00    +0.014 C 
ATOM      4  C   UNL     1      32.637 -20.469 -20.083  0.00  0.00    +0.006 C 
ATOM      5  C   UNL     1      34.538 -19.243 -20.931  0.00  0.00    +0.001 C 
ATOM      6  C   UNL     1      33.165 -19.496 -20.930  0.00  0.00    +0.000 C 
ENDROOT
BRANCH   2   9
ATOM      7  O   UNL     1      33.325 -23.361 -18.416  0.00  0.00    -0.270 OA
ATOM      8  N   UNL     1      31.886 -21.750 -17.501  0.00  0.00    -0.280 N 
ATOM      9  C   UNL     1      32.895 -22.200 -18.362  0.00  0.00    +0.251 C 
ATOM     10  H   UNL     1      31.652 -20.797 -17.577  0.00  0.00    +0.155 HD
BRANCH   8  12
ATOM     11 CL   UNL     1      28.862 -24.829 -13.471  0.00  0.00    -0.082 Cl
ATOM     12  C   UNL     1      31.162 -22.489 -16.535  0.00  0.00    +0.051 C 
ATOM     13  C   UNL     1      31.850 -23.160 -15.539  0.00  0.00    +0.016 C 
ATOM     14  C   UNL     1      29.779 -22.524 -16.608  0.00  0.00    +0.016 C 
ATOM     15  C   UNL     1      31.136 -23.887 -14.587  0.00  0.00    +0.013 C 
ATOM     16  C   UNL     1      29.065 -23.251 -15.655  0.00  0.00    +0.013 C 
ATOM     17  C   UNL     1      29.744 -23.933 -14.645  0.00  0.00    +0.058 C 
ENDBRANCH   8  12
ENDBRANCH   2   9
BRANCH   1  18
ATOM     18  N   UNL     1      35.722 -21.655 -18.386  0.00  0.00    -0.329 N 
ATOM     19  H   UNL     1      35.866 -22.614 -18.561  0.00  0.00    +0.147 HD
BRANCH  18  20
ATOM     20  C   UNL     1      36.402 -21.050 -17.285  0.00  0.00    +0.114 C 
BRANCH  20  22
ATOM     21  N   UNL     1      36.471 -23.608 -13.846  0.00  0.00    -0.242 NA
ATOM     22  C   UNL     1      36.426 -21.945 -16.080  0.00  0.00    +0.000 C 
ATOM     23  C   UNL     1      35.284 -22.093 -15.311  0.00  0.00    +0.018 C 
ATOM     24  C   UNL     1      37.591 -22.618 -15.746  0.00  0.00    +0.018 C 
ATOM     25  C   UNL     1      35.357 -22.932 -14.210  0.00  0.00    +0.099 C 
ATOM     26  C   UNL     1      37.561 -23.432 -14.626  0.00  0.00    +0.099 C 
ENDBRANCH  20  22
ENDBRANCH  18  20
ENDBRANCH   1  18
TORSDOF 5
ENDMDL
MODEL 4
REMARK VINA RESULT:     -11.4      4.807      8.437
REMARK  Name = 9797919
REMARK  5 active torsions:
REMARK  status: ('A' for Active; 'I' for Inactive)
REMARK    1  A    between atoms: C_1  and  N_18
REMARK    2  A    between atoms: C_2  and  C_9
REMARK    3  A    between atoms: N_8  and  C_12
REMARK    4  A    between atoms: N_18  and  C_20
REMARK    5  A    between atoms: C_20  and  C_22
REMARK                            x       y       z     vdW  Elec       q    Type
REMARK                         _______ _______ _______ _____ _____    ______ ____
ROOT
ATOM      1  C   UNL     1      31.908 -22.734 -16.096  0.00  0.00    +0.049 C 
ATOM      2  C   UNL     1      32.602 -22.932 -14.902  0.00  0.00    +0.067 C 
ATOM      3  C   UNL     1      30.517 -22.623 -16.083  0.00  0.00    +0.014 C 
ATOM      4  C   UNL     1      31.905 -23.018 -13.696  0.00  0.00    +0.006 C 
ATOM      5  C   UNL     1      29.821 -22.709 -14.878  0.00  0.00    +0.001 C 
ATOM      6  C   UNL     1      30.516 -22.907 -13.684  0.00  0.00    +0.000 C 
ENDROOT
BRANCH   2   9
ATOM      7  O   UNL     1      34.742 -22.107 -15.293  0.00  0.00    -0.270 OA
ATOM      8  N   UNL     1      34.557 -24.251 -14.358  0.00  0.00    -0.280 N 
ATOM      9  C   UNL     1      34.055 -23.052 -14.880  0.00  0.00    +0.251 C 
ATOM     10  H   UNL     1      33.884 -24.909 -14.071  0.00  0.00    +0.155 HD
BRANCH   8  12
ATOM     11 CL   UNL     1      40.195 -25.865 -13.656  0.00  0.00    -0.082 Cl
ATOM     12  C   UNL     1      35.909 -24.637 -14.190  0.00  0.00    +0.051 C 
ATOM     13  C   UNL     1      36.750 -23.845 -13.427  0.00  0.00    +0.016 C 
ATOM     14  C   UNL     1      36.361 -25.799 -14.793  0.00  0.00    +0.016 C 
ATOM     15  C   UNL     1      38.082 -24.227 -13.261  0.00  0.00    +0.013 C 
ATOM     16  C   UNL     1      37.692 -26.181 -14.627  0.00  0.00    +0.013 C 
ATOM     17  C   UNL     1      38.552 -25.394 -13.861  0.00  0.00    +0.058 C 
ENDBRANCH   8  12
ENDBRANCH   2   9
BRANCH   1  18
ATOM     18  N   UNL     1      32.594 -22.644 -17.327  0.00  0.00    -0.329 N 
ATOM     19  H   UNL     1      33.398 -23.198 -17.460  0.00  0.00    +0.147 HD
BRANCH  18  20
ATOM     20  C   UNL     1      32.172 -21.785 -18.388  0.00  0.00    +0.114 C 
BRANCH  20  22
ATOM     21  N   UNL     1      35.487 -19.882 -20.327  0.00  0.00    -0.242 NA
ATOM     22  C   UNL     1      33.332 -21.119 -19.067  0.00  0.00    +0.000 C 
ATOM     23  C   UNL     1      33.102 -20.163 -20.043  0.00  0.00    +0.018 C 
ATOM     24  C   UNL     1      34.627 -21.465 -18.714  0.00  0.00    +0.018 C 
ATOM     25  C   UNL     1      34.207 -19.576 -20.639  0.00  0.00    +0.099 C 
ATOM     26  C   UNL     1      35.664 -20.821 -19.371  0.00  0.00    +0.099 C 
ENDBRANCH  20  22
ENDBRANCH  18  20
ENDBRANCH   1  18
TORSDOF 5
ENDMDL
MODEL 5
REMARK VINA RESULT:     -10.9      4.401      9.074
REMARK  Name = 9797919
REMARK  5 active torsions:
REMARK  status: ('A' for Active; 'I' for Inactive)
REMARK    1  A    between atoms: C_1  and  N_18
REMARK    2  A    between atoms: C_2  and  C_9
REMARK    3  A    between atoms: N_8  and  C_12
REMARK    4  A    between atoms: N_18  and  C_20
REMARK    5  A    between atoms: C_20  and  C_22
REMARK                            x       y       z     vdW  Elec       q    Type
REMARK                         _______ _______ _______ _____ _____    ______ ____
ROOT
ATOM      1  C   UNL     1      34.548 -22.570 -16.596  0.00  0.00    +0.049 C 
ATOM      2  C   UNL     1      35.413 -21.861 -17.431  0.00  0.00    +0.067 C 
ATOM      3  C   UNL     1      34.955 -22.921 -15.308  0.00  0.00    +0.014 C 
ATOM      4  C   UNL     1      36.684 -21.505 -16.977  0.00  0.00    +0.006 C 
ATOM      5  C   UNL     1      36.225 -22.565 -14.856  0.00  0.00    +0.001 C 
ATOM      6  C   UNL     1      37.090 -21.856 -15.691  0.00  0.00    +0.000 C 
ENDROOT
BRANCH   2   9
ATOM      7  O   UNL     1      34.419 -22.302 -19.487  0.00  0.00    -0.270 OA
ATOM      8  N   UNL     1      35.344 -20.171 -19.162  0.00  0.00    -0.280 N 
ATOM      9  C   UNL     1      35.019 -21.479 -18.781  0.00  0.00    +0.251 C 
ATOM     10  H   UNL     1      35.824 -19.636 -18.489  0.00  0.00    +0.155 HD
BRANCH   8  12
ATOM     11 CL   UNL     1      34.198 -17.456 -24.280  0.00  0.00    -0.082 Cl
ATOM     12  C   UNL     1      35.070 -19.519 -20.389  0.00  0.00    +0.051 C 
ATOM     13  C   UNL     1      36.055 -18.748 -20.981  0.00  0.00    +0.016 C 
ATOM     14  C   UNL     1      33.821 -19.668 -20.969  0.00  0.00    +0.016 C 
ATOM     15  C   UNL     1      35.784 -18.107 -22.190  0.00  0.00    +0.013 C 
ATOM     16  C   UNL     1      33.550 -19.027 -22.178  0.00  0.00    +0.013 C 
ATOM     17  C   UNL     1      34.533 -18.246 -22.788  0.00  0.00    +0.058 C 
ENDBRANCH   8  12
ENDBRANCH   2   9
BRANCH   1  18
ATOM     18  N   UNL     1      33.258 -22.940 -17.034  0.00  0.00    -0.329 N 
ATOM     19  H   UNL     1      33.160 -23.763 -17.567  0.00  0.00    +0.147 HD
BRANCH  18  20
ATOM     20  C   UNL     1      32.089 -22.173 -16.739  0.00  0.00    +0.114 C 
BRANCH  20  22
ATOM     21  N   UNL     1      29.366 -24.310 -14.210  0.00  0.00    -0.242 NA
ATOM     22  C   UNL     1      31.136 -22.920 -15.853  0.00  0.00    +0.000 C 
ATOM     23  C   UNL     1      29.777 -22.880 -16.116  0.00  0.00    +0.018 C 
ATOM     24  C   UNL     1      31.622 -23.647 -14.778  0.00  0.00    +0.018 C 
ATOM     25  C   UNL     1      28.938 -23.588 -15.270  0.00  0.00    +0.099 C 
ATOM     26  C   UNL     1      30.700 -24.320 -13.991  0.00  0.00    +0.099 C 
ENDBRANCH  20  22
ENDBRANCH  18  20
ENDBRANCH   1  18
TORSDOF 5
ENDMDL
MODEL 6
REMARK VINA RESULT:     -10.9      4.974      9.175
REMARK  Name = 9797919
REMARK  5 active torsions:
REMARK  status: ('A' for Active; 'I' for Inactive)
REMARK    1  A    between atoms: C_1  and  N_18
REMARK    2  A    between atoms: C_2  and  C_9
REMARK    3  A    between atoms: N_8  and  C_12
REMARK    4  A    between atoms: N_18  and  C_20
REMARK    5  A    between atoms: C_20  and  C_22
REMARK                            x       y       z     vdW  Elec       q    Type
REMARK                         _______ _______ _______ _____ _____    ______ ____
ROOT
ATOM      1  C   UNL     1      35.613 -22.818 -15.225  0.00  0.00    +0.049 C 
ATOM      2  C   UNL     1      36.652 -22.278 -15.983  0.00  0.00    +0.067 C 
ATOM      3  C   UNL     1      35.879 -23.819 -14.290  0.00  0.00    +0.014 C 
ATOM      4  C   UNL     1      37.957 -22.739 -15.805  0.00  0.00    +0.006 C 
ATOM      5  C   UNL     1      37.184 -24.279 -14.113  0.00  0.00    +0.001 C 
ATOM      6  C   UNL     1      38.223 -23.739 -14.871  0.00  0.00    +0.000 C 
ENDROOT
BRANCH   2   9
ATOM      7  O   UNL     1      36.936 -20.122 -16.808  0.00  0.00    -0.270 OA
ATOM      8  N   UNL     1      35.594 -21.592 -18.048  0.00  0.00    -0.280 N 
ATOM      9  C   UNL     1      36.408 -21.231 -16.968  0.00  0.00    +0.251 C 
ATOM     10  H   UNL     1      35.247 -22.513 -18.035  0.00  0.00    +0.155 HD
BRANCH   8  12
ATOM     11 CL   UNL     1      33.982 -18.299 -22.679  0.00  0.00    -0.082 Cl
ATOM     12  C   UNL     1      35.207 -20.803 -19.159  0.00  0.00    +0.051 C 
ATOM     13  C   UNL     1      33.873 -20.761 -19.528  0.00  0.00    +0.016 C 
ATOM     14  C   UNL     1      36.172 -20.091 -19.851  0.00  0.00    +0.016 C 
ATOM     15  C   UNL     1      33.492 -19.983 -20.622  0.00  0.00    +0.013 C 
ATOM     16  C   UNL     1      35.791 -19.313 -20.945  0.00  0.00    +0.013 C 
ATOM     17  C   UNL     1      34.451 -19.260 -21.330  0.00  0.00    +0.058 C 
ENDBRANCH   8  12
ENDBRANCH   2   9
BRANCH   1  18
ATOM     18  N   UNL     1      34.284 -22.366 -15.389  0.00  0.00    -0.329 N 
ATOM     19  H   UNL     1      34.023 -21.512 -14.972  0.00  0.00    +0.147 HD
BRANCH  18  20
ATOM     20  C   UNL     1      33.305 -23.093 -16.132  0.00  0.00    +0.114 C 
BRANCH  20  22
ATOM     21  N   UNL     1      29.355 -22.528 -14.567  0.00  0.00    -0.242 NA
ATOM     22  C   UNL     1      31.922 -22.894 -15.584  0.00  0.00    +0.000 C 
ATOM     23  C   UNL     1      30.882 -22.573 -16.441  0.00  0.00    +0.018 C 
ATOM     24  C   UNL     1      31.694 -23.034 -14.224  0.00  0.00    +0.018 C 
ATOM     25  C   UNL     1      29.624 -22.402 -15.886  0.00  0.00    +0.099 C 
ATOM     26  C   UNL     1      30.400 -22.841 -13.769  0.00  0.00    +0.099 C 
ENDBRANCH  20  22
ENDBRANCH  18  20
ENDBRANCH   1  18
TORSDOF 5
ENDMDL
MODEL 7
REMARK VINA RESULT:     -10.7      5.319     10.664
REMARK  Name = 9797919
REMARK  5 active torsions:
REMARK  status: ('A' for Active; 'I' for Inactive)
REMARK    1  A    between atoms: C_1  and  N_18
REMARK    2  A    between atoms: C_2  and  C_9
REMARK    3  A    between atoms: N_8  and  C_12
REMARK    4  A    between atoms: N_18  and  C_20
REMARK    5  A    between atoms: C_20  and  C_22
REMARK                            x       y       z     vdW  Elec       q    Type
REMARK                         _______ _______ _______ _____ _____    ______ ____
ROOT
ATOM      1  C   UNL     1      32.773 -23.513 -14.298  0.00  0.00    +0.049 C 
ATOM      2  C   UNL     1      32.307 -23.217 -15.579  0.00  0.00    +0.067 C 
ATOM      3  C   UNL     1      31.924 -24.117 -13.370  0.00  0.00    +0.014 C 
ATOM      4  C   UNL     1      30.992 -23.524 -15.931  0.00  0.00    +0.006 C 
ATOM      5  C   UNL     1      30.610 -24.423 -13.723  0.00  0.00    +0.001 C 
ATOM      6  C   UNL     1      30.144 -24.127 -15.004  0.00  0.00    +0.000 C 
ENDROOT
BRANCH   2   9
ATOM      7  O   UNL     1      34.398 -22.693 -16.454  0.00  0.00    -0.270 OA
ATOM      8  N   UNL     1      32.510 -21.918 -17.611  0.00  0.00    -0.280 N 
ATOM      9  C   UNL     1      33.168 -22.586 -16.572  0.00  0.00    +0.251 C 
ATOM     10  H   UNL     1      31.526 -21.920 -17.567  0.00  0.00    +0.155 HD
BRANCH   8  12
ATOM     11 CL   UNL     1      34.870 -19.097 -22.232  0.00  0.00    -0.082 Cl
ATOM     12  C   UNL     1      33.076 -21.241 -18.719  0.00  0.00    +0.051 C 
ATOM     13  C   UNL     1      34.434 -21.359 -18.962  0.00  0.00    +0.016 C 
ATOM     14  C   UNL     1      32.259 -20.477 -19.534  0.00  0.00    +0.016 C 
ATOM     15  C   UNL     1      34.992 -20.692 -20.053  0.00  0.00    +0.013 C 
ATOM     16  C   UNL     1      32.817 -19.810 -20.626  0.00  0.00    +0.013 C 
ATOM     17  C   UNL     1      34.183 -19.918 -20.885  0.00  0.00    +0.058 C 
ENDBRANCH   8  12
ENDBRANCH   2   9
BRANCH   1  18
ATOM     18  N   UNL     1      34.100 -23.211 -13.920  0.00  0.00    -0.329 N 
ATOM     19  H   UNL     1      34.584 -22.512 -14.418  0.00  0.00    +0.147 HD
BRANCH  18  20
ATOM     20  C   UNL     1      34.771 -23.876 -12.848  0.00  0.00    +0.114 C 
BRANCH  20  22
ATOM     21  N   UNL     1      38.068 -26.239 -14.235  0.00  0.00    -0.242 NA
ATOM     22  C   UNL     1      35.925 -24.703 -13.334  0.00  0.00    +0.000 C 
ATOM     23  C   UNL     1      37.123 -24.689 -12.637  0.00  0.00    +0.018 C 
ATOM     24  C   UNL     1      35.786 -25.475 -14.476  0.00  0.00    +0.018 C 
ATOM     25  C   UNL     1      38.158 -25.470 -13.125  0.00  0.00    +0.099 C 
ATOM     26  C   UNL     1      36.881 -26.220 -14.882  0.00  0.00    +0.099 C 
ENDBRANCH  20  22
ENDBRANCH  18  20
ENDBRANCH   1  18
TORSDOF 5
ENDMDL
MODEL 8
REMARK VINA RESULT:     -10.7      4.688      8.195
REMARK  Name = 9797919
REMARK  5 active torsions:
REMARK  status: ('A' for Active; 'I' for Inactive)
REMARK    1  A    between atoms: C_1  and  N_18
REMARK    2  A    between atoms: C_2  and  C_9
REMARK    3  A    between atoms: N_8  and  C_12
REMARK    4  A    between atoms: N_18  and  C_20
REMARK    5  A    between atoms: C_20  and  C_22
REMARK                            x       y       z     vdW  Elec       q    Type
REMARK                         _______ _______ _______ _____ _____    ______ ____
ROOT
ATOM      1  C   UNL     1      36.063 -22.282 -16.166  0.00  0.00    +0.049 C 
ATOM      2  C   UNL     1      35.145 -23.194 -15.645  0.00  0.00    +0.067 C 
ATOM      3  C   UNL     1      37.398 -22.329 -15.763  0.00  0.00    +0.014 C 
ATOM      4  C   UNL     1      35.563 -24.153 -14.721  0.00  0.00    +0.006 C 
ATOM      5  C   UNL     1      37.814 -23.287 -14.840  0.00  0.00    +0.001 C 
ATOM      6  C   UNL     1      36.896 -24.200 -14.319  0.00  0.00    +0.000 C 
ENDROOT
BRANCH   2   9
ATOM      7  O   UNL     1      33.436 -23.563 -17.179  0.00  0.00    -0.270 OA
ATOM      8  N   UNL     1      32.841 -22.718 -15.073  0.00  0.00    -0.280 N 
ATOM      9  C   UNL     1      33.743 -23.171 -16.044  0.00  0.00    +0.251 C 
ATOM     10  H   UNL     1      33.238 -22.440 -14.216  0.00  0.00    +0.155 HD
BRANCH   8  12
ATOM     11 CL   UNL     1      26.965 -22.267 -15.456  0.00  0.00    -0.082 Cl
ATOM     12  C   UNL     1      31.433 -22.611 -15.165  0.00  0.00    +0.051 C 
ATOM     13  C   UNL     1      30.672 -22.679 -14.010  0.00  0.00    +0.016 C 
ATOM     14  C   UNL     1      30.847 -22.439 -16.407  0.00  0.00    +0.016 C 
ATOM     15  C   UNL     1      29.284 -22.573 -14.100  0.00  0.00    +0.013 C 
ATOM     16  C   UNL     1      29.458 -22.332 -16.498  0.00  0.00    +0.013 C 
ATOM     17  C   UNL     1      28.678 -22.399 -15.344  0.00  0.00    +0.058 C 
ENDBRANCH   8  12
ENDBRANCH   2   9
BRANCH   1  18
ATOM     18  N   UNL     1      35.661 -21.303 -17.102  0.00  0.00    -0.329 N 
ATOM     19  H   UNL     1      35.123 -20.541 -16.785  0.00  0.00    +0.147 HD
BRANCH  18  20
ATOM     20  C   UNL     1      36.002 -21.370 -18.488  0.00  0.00    +0.114 C 
BRANCH  20  22
ATOM     21  N   UNL     1      32.970 -19.639 -20.974  0.00  0.00    -0.242 NA
ATOM     22  C   UNL     1      34.940 -20.764 -19.358  0.00  0.00    +0.000 C 
ATOM     23  C   UNL     1      35.298 -19.888 -20.370  0.00  0.00    +0.018 C 
ATOM     24  C   UNL     1      33.609 -21.084 -19.143  0.00  0.00    +0.018 C 
ATOM     25  C   UNL     1      34.281 -19.356 -21.147  0.00  0.00    +0.099 C 
ATOM     26  C   UNL     1      32.668 -20.498 -19.974  0.00  0.00    +0.099 C 
ENDBRANCH  20  22
ENDBRANCH  18  20
ENDBRANCH   1  18
TORSDOF 5
ENDMDL
MODEL 9
REMARK VINA RESULT:     -10.7      5.486     10.447
REMARK  Name = 9797919
REMARK  5 active torsions:
REMARK  status: ('A' for Active; 'I' for Inactive)
REMARK    1  A    between atoms: C_1  and  N_18
REMARK    2  A    between atoms: C_2  and  C_9
REMARK    3  A    between atoms: N_8  and  C_12
REMARK    4  A    between atoms: N_18  and  C_20
REMARK    5  A    between atoms: C_20  and  C_22
REMARK                            x       y       z     vdW  Elec       q    Type
REMARK                         _______ _______ _______ _____ _____    ______ ____
ROOT
ATOM      1  C   UNL     1      32.081 -24.108 -14.379  0.00  0.00    +0.049 C 
ATOM      2  C   UNL     1      31.687 -23.371 -15.496  0.00  0.00    +0.067 C 
ATOM      3  C   UNL     1      31.127 -24.783 -13.617  0.00  0.00    +0.014 C 
ATOM      4  C   UNL     1      30.338 -23.308 -15.850  0.00  0.00    +0.006 C 
ATOM      5  C   UNL     1      29.779 -24.720 -13.972  0.00  0.00    +0.001 C 
ATOM      6  C   UNL     1      29.385 -23.983 -15.089  0.00  0.00    +0.000 C 
ENDROOT
BRANCH   2   9
ATOM      7  O   UNL     1      33.813 -22.511 -15.885  0.00  0.00    -0.270 OA
ATOM      8  N   UNL     1      32.192 -22.199 -17.553  0.00  0.00    -0.280 N 
ATOM      9  C   UNL     1      32.658 -22.654 -16.313  0.00  0.00    +0.251 C 
ATOM     10  H   UNL     1      31.247 -22.389 -17.751  0.00  0.00    +0.155 HD
BRANCH   8  12
ATOM     11 CL   UNL     1      35.167 -19.293 -21.746  0.00  0.00    -0.082 Cl
ATOM     12  C   UNL     1      32.906 -21.502 -18.558  0.00  0.00    +0.051 C 
ATOM     13  C   UNL     1      34.261 -21.739 -18.714  0.00  0.00    +0.016 C 
ATOM     14  C   UNL     1      32.233 -20.599 -19.363  0.00  0.00    +0.016 C 
ATOM     15  C   UNL     1      34.964 -21.052 -19.704  0.00  0.00    +0.013 C 
ATOM     16  C   UNL     1      32.935 -19.912 -20.353  0.00  0.00    +0.013 C 
ATOM     17  C   UNL     1      34.301 -20.140 -20.523  0.00  0.00    +0.058 C 
ENDBRANCH   8  12
ENDBRANCH   2   9
BRANCH   1  18
ATOM     18  N   UNL     1      33.440 -24.184 -14.003  0.00  0.00    -0.329 N 
ATOM     19  H   UNL     1      34.093 -24.520 -14.660  0.00  0.00    +0.147 HD
BRANCH  18  20
ATOM     20  C   UNL     1      33.909 -23.796 -12.710  0.00  0.00    +0.114 C 
BRANCH  20  22
ATOM     21  N   UNL     1      38.186 -23.538 -12.566  0.00  0.00    -0.242 NA
ATOM     22  C   UNL     1      35.407 -23.705 -12.660  0.00  0.00    +0.000 C 
ATOM     23  C   UNL     1      36.020 -23.038 -11.613  0.00  0.00    +0.018 C 
ATOM     24  C   UNL     1      36.165 -24.289 -13.662  0.00  0.00    +0.018 C 
ATOM     25  C   UNL     1      37.405 -22.983 -11.611  0.00  0.00    +0.099 C 
ATOM     26  C   UNL     1      37.543 -24.177 -13.569  0.00  0.00    +0.099 C 
ENDBRANCH  20  22
ENDBRANCH  18  20
ENDBRANCH   1  18
TORSDOF 5
ENDMDL
