MODEL 1
REMARK VINA RESULT:     -13.3      0.000      0.000
REMARK  Name = 9889200
REMARK  5 active torsions:
REMARK  status: ('A' for Active; 'I' for Inactive)
REMARK    1  A    between atoms: C_1  and  C_21
REMARK    2  A    between atoms: C_4  and  O_7
REMARK    3  A    between atoms: O_7  and  C_8
REMARK    4  A    between atoms: C_8  and  C_12
REMARK    5  A    between atoms: C_21  and  C_26
REMARK                            x       y       z     vdW  Elec       q    Type
REMARK                         _______ _______ _______ _____ _____    ______ ____
ROOT
ATOM      1  C   UNL     1      34.995 -19.480 -20.497  0.00  0.00    -0.021 C 
ATOM      2  C   UNL     1      35.943 -20.210 -19.782  0.00  0.00    -0.001 C 
ATOM      3  C   UNL     1      33.650 -19.847 -20.451  0.00  0.00    -0.001 C 
ATOM      4  C   UNL     1      34.206 -21.668 -18.982  0.00  0.00    +0.139 C 
ATOM      5  C   UNL     1      35.546 -21.311 -19.021  0.00  0.00    +0.037 C 
ATOM      6  C   UNL     1      33.253 -20.946 -19.689  0.00  0.00    +0.037 C 
ENDROOT
BRANCH   4   7
ATOM      7  O   UNL     1      33.815 -22.750 -18.230  0.00  0.00    -0.466 OA
BRANCH   7   8
ATOM      8  C   UNL     1      32.980 -22.498 -17.121  0.00  0.00    +0.279 C 
BRANCH   8  12
ATOM      9  O   UNL     1      32.786 -24.025 -12.541  0.00  0.00    -0.274 OA
ATOM     10  N   UNL     1      32.857 -23.282 -14.759  0.00  0.00    -0.232 N 
ATOM     11  N   UNL     1      34.946 -23.117 -15.883  0.00  0.00    -0.391 NA
ATOM     12  C   UNL     1      33.655 -22.992 -15.864  0.00  0.00    +0.210 C 
ATOM     13  C   UNL     1      34.885 -23.894 -13.562  0.00  0.00    +0.151 C 
ATOM     14  C   UNL     1      35.588 -23.573 -14.725  0.00  0.00    +0.123 C 
ATOM     15  C   UNL     1      33.414 -23.746 -13.558  0.00  0.00    +0.241 C 
ATOM     16  C   UNL     1      31.405 -23.113 -14.818  0.00  0.00    +0.122 C 
ATOM     17  C   UNL     1      35.557 -24.348 -12.422  0.00  0.00    -0.010 C 
ATOM     18  C   UNL     1      36.980 -23.713 -14.733  0.00  0.00    +0.028 C 
ATOM     19  C   UNL     1      36.944 -24.483 -12.444  0.00  0.00    -0.004 C 
ATOM     20  C   UNL     1      37.656 -24.165 -13.599  0.00  0.00    +0.002 C 
ENDBRANCH   8  12
ENDBRANCH   7   8
ENDBRANCH   4   7
BRANCH   1  21
ATOM     21  C   UNL     1      35.419 -18.305 -21.312  0.00  0.00    +0.047 C 
BRANCH  21  26
ATOM     22  S   UNL     1      34.158 -17.766 -23.709  0.00  0.00    -0.048 S 
ATOM     23  O   UNL     1      34.459 -15.557 -20.559  0.00  0.00    -0.274 OA
ATOM     24  O   UNL     1      34.156 -15.579 -25.168  0.00  0.00    -0.263 OA
ATOM     25  N   UNL     1      34.303 -15.362 -22.859  0.00  0.00    -0.246 N 
ATOM     26  C   UNL     1      34.229 -17.552 -21.904  0.00  0.00    +0.137 C 
ATOM     27  C   UNL     1      34.346 -16.062 -21.671  0.00  0.00    +0.239 C 
ATOM     28  C   UNL     1      34.203 -16.048 -24.040  0.00  0.00    +0.279 C 
ATOM     29  H   UNL     1      34.343 -14.378 -22.856  0.00  0.00    +0.158 HD
ENDBRANCH  21  26
ENDBRANCH   1  21
TORSDOF 5
ENDMDL
MODEL 2
REMARK VINA RESULT:     -13.1      1.245      3.519
REMARK  Name = 9889200
REMARK  5 active torsions:
REMARK  status: ('A' for Active; 'I' for Inactive)
REMARK    1  A    between atoms: C_1  and  C_21
REMARK    2  A    between atoms: C_4  and  O_7
REMARK    3  A    between atoms: O_7  and  C_8
REMARK    4  A    between atoms: C_8  and  C_12
REMARK    5  A    between atoms: C_21  and  C_26
REMARK                            x       y       z     vdW  Elec       q    Type
REMARK                         _______ _______ _______ _____ _____    ______ ____
ROOT
ATOM      1  C   UNL     1      35.039 -19.549 -20.523  0.00  0.00    -0.021 C 
ATOM      2  C   UNL     1      33.693 -19.881 -20.373  0.00  0.00    -0.001 C 
ATOM      3  C   UNL     1      36.011 -20.232 -19.794  0.00  0.00    -0.001 C 
ATOM      4  C   UNL     1      34.295 -21.571 -18.772  0.00  0.00    +0.139 C 
ATOM      5  C   UNL     1      33.319 -20.897 -19.493  0.00  0.00    +0.037 C 
ATOM      6  C   UNL     1      35.638 -21.249 -18.915  0.00  0.00    +0.037 C 
ENDROOT
BRANCH   4   7
ATOM      7  O   UNL     1      33.927 -22.573 -17.906  0.00  0.00    -0.466 OA
BRANCH   7   8
ATOM      8  C   UNL     1      34.134 -22.345 -16.529  0.00  0.00    +0.279 C 
BRANCH   8  12
ATOM      9  O   UNL     1      32.407 -24.565 -12.600  0.00  0.00    -0.274 OA
ATOM     10  N   UNL     1      33.266 -23.491 -14.495  0.00  0.00    -0.232 N 
ATOM     11  N   UNL     1      31.810 -22.909 -16.283  0.00  0.00    -0.391 NA
ATOM     12  C   UNL     1      32.990 -22.942 -15.745  0.00  0.00    +0.210 C 
ATOM     13  C   UNL     1      30.901 -24.034 -14.307  0.00  0.00    +0.151 C 
ATOM     14  C   UNL     1      30.737 -23.459 -15.569  0.00  0.00    +0.123 C 
ATOM     15  C   UNL     1      32.253 -24.062 -13.709  0.00  0.00    +0.241 C 
ATOM     16  C   UNL     1      34.626 -23.488 -13.958  0.00  0.00    +0.122 C 
ATOM     17  C   UNL     1      29.809 -24.574 -13.619  0.00  0.00    -0.010 C 
ATOM     18  C   UNL     1      29.460 -23.430 -16.139  0.00  0.00    +0.028 C 
ATOM     19  C   UNL     1      28.541 -24.538 -14.199  0.00  0.00    -0.004 C 
ATOM     20  C   UNL     1      28.366 -23.966 -15.458  0.00  0.00    +0.002 C 
ENDBRANCH   8  12
ENDBRANCH   7   8
ENDBRANCH   4   7
BRANCH   1  21
ATOM     21  C   UNL     1      35.438 -18.462 -21.463  0.00  0.00    +0.047 C 
BRANCH  21  26
ATOM     22  S   UNL     1      34.101 -17.847 -23.799  0.00  0.00    -0.048 S 
ATOM     23  O   UNL     1      34.525 -15.730 -20.600  0.00  0.00    -0.274 OA
ATOM     24  O   UNL     1      34.066 -15.619 -25.195  0.00  0.00    -0.263 OA
ATOM     25  N   UNL     1      34.293 -15.469 -22.887  0.00  0.00    -0.246 N 
ATOM     26  C   UNL     1      34.235 -17.685 -21.993  0.00  0.00    +0.137 C 
ATOM     27  C   UNL     1      34.370 -16.203 -21.721  0.00  0.00    +0.239 C 
ATOM     28  C   UNL     1      34.148 -16.121 -24.083  0.00  0.00    +0.279 C 
ATOM     29  H   UNL     1      34.340 -14.486 -22.858  0.00  0.00    +0.158 HD
ENDBRANCH  21  26
ENDBRANCH   1  21
TORSDOF 5
ENDMDL
MODEL 3
REMARK VINA RESULT:     -13.0      3.288     10.262
REMARK  Name = 9889200
REMARK  5 active torsions:
REMARK  status: ('A' for Active; 'I' for Inactive)
REMARK    1  A    between atoms: C_1  and  C_21
REMARK    2  A    between atoms: C_4  and  O_7
REMARK    3  A    between atoms: O_7  and  C_8
REMARK    4  A    between atoms: C_8  and  C_12
REMARK    5  A    between atoms: C_21  and  C_26
REMARK                            x       y       z     vdW  Elec       q    Type
REMARK                         _______ _______ _______ _____ _____    ______ ____
ROOT
ATOM      1  C   UNL     1      33.564 -21.926 -18.450  0.00  0.00    -0.021 C 
ATOM      2  C   UNL     1      34.942 -21.709 -18.447  0.00  0.00    -0.001 C 
ATOM      3  C   UNL     1      32.735 -21.134 -19.244  0.00  0.00    -0.001 C 
ATOM      4  C   UNL     1      34.656 -19.917 -20.025  0.00  0.00    +0.139 C 
ATOM      5  C   UNL     1      35.491 -20.699 -19.238  0.00  0.00    +0.037 C 
ATOM      6  C   UNL     1      33.283 -20.126 -20.036  0.00  0.00    +0.037 C 
ENDROOT
BRANCH   4   7
ATOM      7  O   UNL     1      35.197 -18.923 -20.806  0.00  0.00    -0.466 OA
BRANCH   7   8
ATOM      8  C   UNL     1      34.829 -18.900 -22.167  0.00  0.00    +0.279 C 
BRANCH   8  12
ATOM      9  O   UNL     1      33.164 -15.723 -25.404  0.00  0.00    -0.274 OA
ATOM     10  N   UNL     1      33.971 -17.279 -23.853  0.00  0.00    -0.232 N 
ATOM     11  N   UNL     1      34.469 -16.584 -21.634  0.00  0.00    -0.391 NA
ATOM     12  C   UNL     1      34.404 -17.502 -22.548  0.00  0.00    +0.210 C 
ATOM     13  C   UNL     1      33.626 -14.947 -23.248  0.00  0.00    +0.151 C 
ATOM     14  C   UNL     1      34.079 -15.281 -21.970  0.00  0.00    +0.123 C 
ATOM     15  C   UNL     1      33.560 -16.006 -24.277  0.00  0.00    +0.241 C 
ATOM     16  C   UNL     1      33.928 -18.370 -24.826  0.00  0.00    +0.122 C 
ATOM     17  C   UNL     1      33.244 -13.636 -23.552  0.00  0.00    -0.010 C 
ATOM     18  C   UNL     1      34.143 -14.282 -20.993  0.00  0.00    +0.028 C 
ATOM     19  C   UNL     1      33.313 -12.650 -22.568  0.00  0.00    -0.004 C 
ATOM     20  C   UNL     1      33.763 -12.973 -21.289  0.00  0.00    +0.002 C 
ENDBRANCH   8  12
ENDBRANCH   7   8
ENDBRANCH   4   7
BRANCH   1  21
ATOM     21  C   UNL     1      32.978 -23.004 -17.603  0.00  0.00    +0.047 C 
BRANCH  21  26
ATOM     22  S   UNL     1      33.359 -23.418 -14.900  0.00  0.00    -0.048 S 
ATOM     23  O   UNL     1      30.198 -22.224 -16.764  0.00  0.00    -0.274 OA
ATOM     24  O   UNL     1      31.801 -24.578 -13.127  0.00  0.00    -0.263 OA
ATOM     25  N   UNL     1      30.805 -23.426 -14.884  0.00  0.00    -0.246 N 
ATOM     26  C   UNL     1      32.541 -22.490 -16.233  0.00  0.00    +0.137 C 
ATOM     27  C   UNL     1      31.056 -22.682 -16.017  0.00  0.00    +0.239 C 
ATOM     28  C   UNL     1      31.856 -23.907 -14.148  0.00  0.00    +0.279 C 
ATOM     29  H   UNL     1      29.878 -23.609 -14.606  0.00  0.00    +0.158 HD
ENDBRANCH  21  26
ENDBRANCH   1  21
TORSDOF 5
ENDMDL
MODEL 4
REMARK VINA RESULT:     -12.8      1.968      3.323
REMARK  Name = 9889200
REMARK  5 active torsions:
REMARK  status: ('A' for Active; 'I' for Inactive)
REMARK    1  A    between atoms: C_1  and  C_21
REMARK    2  A    between atoms: C_4  and  O_7
REMARK    3  A    between atoms: O_7  and  C_8
REMARK    4  A    between atoms: C_8  and  C_12
REMARK    5  A    between atoms: C_21  and  C_26
REMARK                            x       y       z     vdW  Elec       q    Type
REMARK                         _______ _______ _______ _____ _____    ______ ____
ROOT
ATOM      1  C   UNL     1      34.506 -17.779 -22.797  0.00  0.00    -0.021 C 
ATOM      2  C   UNL     1      33.673 -18.712 -22.181  0.00  0.00    -0.001 C 
ATOM      3  C   UNL     1      35.793 -17.560 -22.306  0.00  0.00    -0.001 C 
ATOM      4  C   UNL     1      35.409 -19.201 -20.590  0.00  0.00    +0.139 C 
ATOM      5  C   UNL     1      34.127 -19.427 -21.071  0.00  0.00    +0.037 C 
ATOM      6  C   UNL     1      36.247 -18.275 -21.198  0.00  0.00    +0.037 C 
ENDROOT
BRANCH   4   7
ATOM      7  O   UNL     1      35.857 -19.907 -19.499  0.00  0.00    -0.466 OA
BRANCH   7   8
ATOM      8  C   UNL     1      35.663 -21.304 -19.510  0.00  0.00    +0.279 C 
BRANCH   8  12
ATOM      9  O   UNL     1      32.414 -22.857 -16.288  0.00  0.00    -0.274 OA
ATOM     10  N   UNL     1      33.971 -22.102 -17.865  0.00  0.00    -0.232 N 
ATOM     11  N   UNL     1      36.250 -21.834 -17.239  0.00  0.00    -0.391 NA
ATOM     12  C   UNL     1      35.300 -21.770 -18.120  0.00  0.00    +0.210 C 
ATOM     13  C   UNL     1      34.630 -22.623 -15.580  0.00  0.00    +0.151 C 
ATOM     14  C   UNL     1      35.930 -22.264 -15.945  0.00  0.00    +0.123 C 
ATOM     15  C   UNL     1      33.560 -22.544 -16.597  0.00  0.00    +0.241 C 
ATOM     16  C   UNL     1      32.958 -22.003 -18.915  0.00  0.00    +0.122 C 
ATOM     17  C   UNL     1      34.343 -23.049 -14.279  0.00  0.00    -0.010 C 
ATOM     18  C   UNL     1      36.945 -22.337 -14.985  0.00  0.00    +0.028 C 
ATOM     19  C   UNL     1      35.365 -23.117 -13.333  0.00  0.00    -0.004 C 
ATOM     20  C   UNL     1      36.665 -22.761 -13.686  0.00  0.00    +0.002 C 
ENDBRANCH   8  12
ENDBRANCH   7   8
ENDBRANCH   4   7
BRANCH   1  21
ATOM     21  C   UNL     1      34.021 -17.015 -23.982  0.00  0.00    +0.047 C 
BRANCH  21  26
ATOM     22  S   UNL     1      34.072 -14.948 -22.151  0.00  0.00    -0.048 S 
ATOM     23  O   UNL     1      33.210 -14.856 -25.912  0.00  0.00    -0.274 OA
ATOM     24  O   UNL     1      32.376 -12.974 -21.777  0.00  0.00    -0.263 OA
ATOM     25  N   UNL     1      32.670 -13.779 -23.938  0.00  0.00    -0.246 N 
ATOM     26  C   UNL     1      34.306 -15.519 -23.861  0.00  0.00    +0.137 C 
ATOM     27  C   UNL     1      33.349 -14.704 -24.703  0.00  0.00    +0.239 C 
ATOM     28  C   UNL     1      32.895 -13.728 -22.587  0.00  0.00    +0.279 C 
ATOM     29  H   UNL     1      32.030 -13.160 -24.359  0.00  0.00    +0.158 HD
ENDBRANCH  21  26
ENDBRANCH   1  21
TORSDOF 5
ENDMDL
MODEL 5
REMARK VINA RESULT:     -12.6      2.056      3.356
REMARK  Name = 9889200
REMARK  5 active torsions:
REMARK  status: ('A' for Active; 'I' for Inactive)
REMARK    1  A    between atoms: C_1  and  C_21
REMARK    2  A    between atoms: C_4  and  O_7
REMARK    3  A    between atoms: O_7  and  C_8
REMARK    4  A    between atoms: C_8  and  C_12
REMARK    5  A    between atoms: C_21  and  C_26
REMARK                            x       y       z     vdW  Elec       q    Type
REMARK                         _______ _______ _______ _____ _____    ______ ____
ROOT
ATOM      1  C   UNL     1      35.151 -17.794 -21.871  0.00  0.00    -0.021 C 
ATOM      2  C   UNL     1      36.282 -18.202 -21.165  0.00  0.00    -0.001 C 
ATOM      3  C   UNL     1      33.982 -18.552 -21.815  0.00  0.00    -0.001 C 
ATOM      4  C   UNL     1      35.076 -20.117 -20.353  0.00  0.00    +0.139 C 
ATOM      5  C   UNL     1      36.245 -19.370 -20.402  0.00  0.00    +0.037 C 
ATOM      6  C   UNL     1      33.944 -19.719 -21.052  0.00  0.00    +0.037 C 
ENDROOT
BRANCH   4   7
ATOM      7  O   UNL     1      35.039 -21.266 -19.600  0.00  0.00    -0.466 OA
BRANCH   7   8
ATOM      8  C   UNL     1      35.861 -21.314 -18.454  0.00  0.00    +0.279 C 
BRANCH   8  12
ATOM      9  O   UNL     1      35.605 -22.952 -13.916  0.00  0.00    -0.274 OA
ATOM     10  N   UNL     1      35.753 -22.156 -16.112  0.00  0.00    -0.232 N 
ATOM     11  N   UNL     1      33.801 -22.064 -17.468  0.00  0.00    -0.391 NA
ATOM     12  C   UNL     1      35.073 -21.875 -17.295  0.00  0.00    +0.210 C 
ATOM     13  C   UNL     1      33.635 -22.900 -15.172  0.00  0.00    +0.151 C 
ATOM     14  C   UNL     1      33.054 -22.584 -16.403  0.00  0.00    +0.123 C 
ATOM     15  C   UNL     1      35.085 -22.678 -14.993  0.00  0.00    +0.241 C 
ATOM     16  C   UNL     1      37.190 -21.914 -15.998  0.00  0.00    +0.122 C 
ATOM     17  C   UNL     1      32.861 -23.417 -14.128  0.00  0.00    -0.010 C 
ATOM     18  C   UNL     1      31.682 -22.792 -16.576  0.00  0.00    +0.028 C 
ATOM     19  C   UNL     1      31.494 -23.620 -14.314  0.00  0.00    -0.004 C 
ATOM     20  C   UNL     1      30.905 -23.307 -15.538  0.00  0.00    +0.002 C 
ENDBRANCH   8  12
ENDBRANCH   7   8
ENDBRANCH   4   7
BRANCH   1  21
ATOM     21  C   UNL     1      35.192 -16.547 -22.688  0.00  0.00    +0.047 C 
BRANCH  21  26
ATOM     22  S   UNL     1      33.662 -14.661 -24.002  0.00  0.00    -0.048 S 
ATOM     23  O   UNL     1      34.198 -15.158 -20.213  0.00  0.00    -0.274 OA
ATOM     24  O   UNL     1      33.410 -12.080 -23.566  0.00  0.00    -0.263 OA
ATOM     25  N   UNL     1      33.791 -13.473 -21.744  0.00  0.00    -0.246 N 
ATOM     26  C   UNL     1      33.914 -15.722 -22.547  0.00  0.00    +0.137 C 
ATOM     27  C   UNL     1      33.990 -14.784 -21.362  0.00  0.00    +0.239 C 
ATOM     28  C   UNL     1      33.597 -13.181 -23.069  0.00  0.00    +0.279 C 
ATOM     29  H   UNL     1      33.788 -12.755 -21.071  0.00  0.00    +0.158 HD
ENDBRANCH  21  26
ENDBRANCH   1  21
TORSDOF 5
ENDMDL
MODEL 6
REMARK VINA RESULT:     -12.5      2.738     10.133
REMARK  Name = 9889200
REMARK  5 active torsions:
REMARK  status: ('A' for Active; 'I' for Inactive)
REMARK    1  A    between atoms: C_1  and  C_21
REMARK    2  A    between atoms: C_4  and  O_7
REMARK    3  A    between atoms: O_7  and  C_8
REMARK    4  A    between atoms: C_8  and  C_12
REMARK    5  A    between atoms: C_21  and  C_26
REMARK                            x       y       z     vdW  Elec       q    Type
REMARK                         _______ _______ _______ _____ _____    ______ ____
ROOT
ATOM      1  C   UNL     1      33.992 -22.190 -17.604  0.00  0.00    -0.021 C 
ATOM      2  C   UNL     1      35.197 -21.668 -18.072  0.00  0.00    -0.001 C 
ATOM      3  C   UNL     1      32.799 -21.892 -18.263  0.00  0.00    -0.001 C 
ATOM      4  C   UNL     1      34.017 -20.555 -19.848  0.00  0.00    +0.139 C 
ATOM      5  C   UNL     1      35.210 -20.845 -19.200  0.00  0.00    +0.037 C 
ATOM      6  C   UNL     1      32.812 -21.071 -19.390  0.00  0.00    +0.037 C 
ENDROOT
BRANCH   4   7
ATOM      7  O   UNL     1      34.030 -19.747 -20.959  0.00  0.00    -0.466 OA
BRANCH   7   8
ATOM      8  C   UNL     1      35.166 -18.932 -21.152  0.00  0.00    +0.279 C 
BRANCH   8  12
ATOM      9  O   UNL     1      33.919 -16.231 -24.959  0.00  0.00    -0.274 OA
ATOM     10  N   UNL     1      34.527 -17.558 -23.129  0.00  0.00    -0.232 N 
ATOM     11  N   UNL     1      34.601 -16.604 -20.952  0.00  0.00    -0.391 NA
ATOM     12  C   UNL     1      34.741 -17.614 -21.754  0.00  0.00    +0.210 C 
ATOM     13  C   UNL     1      33.965 -15.206 -22.859  0.00  0.00    +0.151 C 
ATOM     14  C   UNL     1      34.207 -15.374 -21.493  0.00  0.00    +0.123 C 
ATOM     15  C   UNL     1      34.130 -16.367 -23.758  0.00  0.00    +0.241 C 
ATOM     16  C   UNL     1      34.708 -18.744 -23.966  0.00  0.00    +0.122 C 
ATOM     17  C   UNL     1      33.572 -13.963 -23.368  0.00  0.00    -0.010 C 
ATOM     18  C   UNL     1      34.052 -14.277 -20.639  0.00  0.00    +0.028 C 
ATOM     19  C   UNL     1      33.421 -12.879 -22.505  0.00  0.00    -0.004 C 
ATOM     20  C   UNL     1      33.660 -13.035 -21.141  0.00  0.00    +0.002 C 
ENDBRANCH   8  12
ENDBRANCH   7   8
ENDBRANCH   4   7
BRANCH   1  21
ATOM     21  C   UNL     1      33.978 -23.068 -16.399  0.00  0.00    +0.047 C 
BRANCH  21  26
ATOM     22  S   UNL     1      36.484 -22.491 -15.393  0.00  0.00    -0.048 S 
ATOM     23  O   UNL     1      33.230 -23.338 -13.499  0.00  0.00    -0.274 OA
ATOM     24  O   UNL     1      37.838 -23.643 -13.455  0.00  0.00    -0.263 OA
ATOM     25  N   UNL     1      35.521 -23.577 -13.291  0.00  0.00    -0.246 N 
ATOM     26  C   UNL     1      34.677 -22.420 -15.205  0.00  0.00    +0.137 C 
ATOM     27  C   UNL     1      34.368 -23.154 -13.918  0.00  0.00    +0.239 C 
ATOM     28  C   UNL     1      36.734 -23.334 -13.879  0.00  0.00    +0.279 C 
ATOM     29  H   UNL     1      35.472 -24.048 -12.428  0.00  0.00    +0.158 HD
ENDBRANCH  21  26
ENDBRANCH   1  21
TORSDOF 5
ENDMDL
MODEL 7
REMARK VINA RESULT:     -12.4      3.265      5.293
REMARK  Name = 9889200
REMARK  5 active torsions:
REMARK  status: ('A' for Active; 'I' for Inactive)
REMARK    1  A    between atoms: C_1  and  C_21
REMARK    2  A    between atoms: C_4  and  O_7
REMARK    3  A    between atoms: O_7  and  C_8
REMARK    4  A    between atoms: C_8  and  C_12
REMARK    5  A    between atoms: C_21  and  C_26
REMARK                            x       y       z     vdW  Elec       q    Type
REMARK                         _______ _______ _______ _____ _____    ______ ____
ROOT
ATOM      1  C   UNL     1      33.892 -14.854 -22.671  0.00  0.00    -0.021 C 
ATOM      2  C   UNL     1      34.319 -15.951 -23.417  0.00  0.00    -0.001 C 
ATOM      3  C   UNL     1      33.957 -14.889 -21.278  0.00  0.00    -0.001 C 
ATOM      4  C   UNL     1      34.870 -17.111 -21.384  0.00  0.00    +0.139 C 
ATOM      5  C   UNL     1      34.810 -17.087 -22.770  0.00  0.00    +0.037 C 
ATOM      6  C   UNL     1      34.448 -16.023 -20.632  0.00  0.00    +0.037 C 
ENDROOT
BRANCH   4   7
ATOM      7  O   UNL     1      35.355 -18.228 -20.747  0.00  0.00    -0.466 OA
BRANCH   7   8
ATOM      8  C   UNL     1      34.789 -19.471 -21.103  0.00  0.00    +0.279 C 
BRANCH   8  12
ATOM      9  O   UNL     1      31.957 -21.996 -18.111  0.00  0.00    -0.274 OA
ATOM     10  N   UNL     1      33.310 -20.767 -19.574  0.00  0.00    -0.232 N 
ATOM     11  N   UNL     1      35.635 -20.546 -19.126  0.00  0.00    -0.391 NA
ATOM     12  C   UNL     1      34.593 -20.306 -19.860  0.00  0.00    +0.210 C 
ATOM     13  C   UNL     1      34.229 -21.833 -17.588  0.00  0.00    +0.151 C 
ATOM     14  C   UNL     1      35.471 -21.319 -17.969  0.00  0.00    +0.123 C 
ATOM     15  C   UNL     1      33.052 -21.549 -18.437  0.00  0.00    +0.241 C 
ATOM     16  C   UNL     1      32.185 -20.451 -20.454  0.00  0.00    +0.122 C 
ATOM     17  C   UNL     1      34.099 -22.602 -16.427  0.00  0.00    -0.010 C 
ATOM     18  C   UNL     1      36.587 -21.586 -17.169  0.00  0.00    +0.028 C 
ATOM     19  C   UNL     1      35.220 -22.860 -15.639  0.00  0.00    -0.004 C 
ATOM     20  C   UNL     1      36.463 -22.352 -16.010  0.00  0.00    +0.002 C 
ENDBRANCH   8  12
ENDBRANCH   7   8
ENDBRANCH   4   7
BRANCH   1  21
ATOM     21  C   UNL     1      33.366 -13.642 -23.362  0.00  0.00    +0.047 C 
BRANCH  21  26
ATOM     22  S   UNL     1      31.845 -12.523 -21.348  0.00  0.00    -0.048 S 
ATOM     23  O   UNL     1      33.938 -10.779 -24.081  0.00  0.00    -0.274 OA
ATOM     24  O   UNL     1      30.179 -10.489 -21.413  0.00  0.00    -0.263 OA
ATOM     25  N   UNL     1      32.025 -10.446 -22.825  0.00  0.00    -0.246 N 
ATOM     26  C   UNL     1      33.300 -12.430 -22.435  0.00  0.00    +0.137 C 
ATOM     27  C   UNL     1      33.149 -11.143 -23.215  0.00  0.00    +0.239 C 
ATOM     28  C   UNL     1      31.205 -10.977 -21.864  0.00  0.00    +0.279 C 
ATOM     29  H   UNL     1      31.815  -9.575 -23.232  0.00  0.00    +0.158 HD
ENDBRANCH  21  26
ENDBRANCH   1  21
TORSDOF 5
ENDMDL
MODEL 8
REMARK VINA RESULT:     -12.1      3.041     10.536
REMARK  Name = 9889200
REMARK  5 active torsions:
REMARK  status: ('A' for Active; 'I' for Inactive)
REMARK    1  A    between atoms: C_1  and  C_21
REMARK    2  A    between atoms: C_4  and  O_7
REMARK    3  A    between atoms: O_7  and  C_8
REMARK    4  A    between atoms: C_8  and  C_12
REMARK    5  A    between atoms: C_21  and  C_26
REMARK                            x       y       z     vdW  Elec       q    Type
REMARK                         _______ _______ _______ _____ _____    ______ ____
ROOT
ATOM      1  C   UNL     1      34.903 -20.935 -19.296  0.00  0.00    -0.021 C 
ATOM      2  C   UNL     1      35.954 -20.158 -19.781  0.00  0.00    -0.001 C 
ATOM      3  C   UNL     1      33.598 -20.686 -19.718  0.00  0.00    -0.001 C 
ATOM      4  C   UNL     1      34.396 -18.889 -21.102  0.00  0.00    +0.139 C 
ATOM      5  C   UNL     1      35.699 -19.129 -20.689  0.00  0.00    +0.037 C 
ATOM      6  C   UNL     1      33.343 -19.658 -20.625  0.00  0.00    +0.037 C 
ENDROOT
BRANCH   4   7
ATOM      7  O   UNL     1      34.145 -17.876 -21.997  0.00  0.00    -0.466 OA
BRANCH   7   8
ATOM      8  C   UNL     1      34.991 -16.747 -21.949  0.00  0.00    +0.279 C 
BRANCH   8  12
ATOM      9  O   UNL     1      32.827 -13.578 -24.884  0.00  0.00    -0.274 OA
ATOM     10  N   UNL     1      33.884 -15.125 -23.481  0.00  0.00    -0.232 N 
ATOM     11  N   UNL     1      33.782 -14.841 -21.122  0.00  0.00    -0.391 NA
ATOM     12  C   UNL     1      34.172 -15.498 -22.170  0.00  0.00    +0.210 C 
ATOM     13  C   UNL     1      32.674 -13.215 -22.580  0.00  0.00    +0.151 C 
ATOM     14  C   UNL     1      33.022 -13.679 -21.309  0.00  0.00    +0.123 C 
ATOM     15  C   UNL     1      33.127 -13.977 -23.763  0.00  0.00    +0.241 C 
ATOM     16  C   UNL     1      34.361 -15.922 -24.610  0.00  0.00    +0.122 C 
ATOM     17  C   UNL     1      31.913 -12.051 -22.733  0.00  0.00    -0.010 C 
ATOM     18  C   UNL     1      32.595 -12.961 -20.187  0.00  0.00    +0.028 C 
ATOM     19  C   UNL     1      31.495 -11.346 -21.606  0.00  0.00    -0.004 C 
ATOM     20  C   UNL     1      31.836 -11.800 -20.333  0.00  0.00    +0.002 C 
ENDBRANCH   8  12
ENDBRANCH   7   8
ENDBRANCH   4   7
BRANCH   1  21
ATOM     21  C   UNL     1      35.176 -22.034 -18.325  0.00  0.00    +0.047 C 
BRANCH  21  26
ATOM     22  S   UNL     1      36.980 -21.498 -16.305  0.00  0.00    -0.048 S 
ATOM     23  O   UNL     1      33.330 -22.726 -16.055  0.00  0.00    -0.274 OA
ATOM     24  O   UNL     1      37.519 -22.847 -14.113  0.00  0.00    -0.263 OA
ATOM     25  N   UNL     1      35.344 -22.898 -14.931  0.00  0.00    -0.246 N 
ATOM     26  C   UNL     1      35.257 -21.527 -16.887  0.00  0.00    +0.137 C 
ATOM     27  C   UNL     1      34.517 -22.441 -15.935  0.00  0.00    +0.239 C 
ATOM     28  C   UNL     1      36.663 -22.528 -14.925  0.00  0.00    +0.279 C 
ATOM     29  H   UNL     1      34.989 -23.484 -14.223  0.00  0.00    +0.158 HD
ENDBRANCH  21  26
ENDBRANCH   1  21
TORSDOF 5
ENDMDL
MODEL 9
REMARK VINA RESULT:     -12.1      7.438     11.730
REMARK  Name = 9889200
REMARK  5 active torsions:
REMARK  status: ('A' for Active; 'I' for Inactive)
REMARK    1  A    between atoms: C_1  and  C_21
REMARK    2  A    between atoms: C_4  and  O_7
REMARK    3  A    between atoms: O_7  and  C_8
REMARK    4  A    between atoms: C_8  and  C_12
REMARK    5  A    between atoms: C_21  and  C_26
REMARK                            x       y       z     vdW  Elec       q    Type
REMARK                         _______ _______ _______ _____ _____    ______ ____
ROOT
ATOM      1  C   UNL     1      30.901  -8.643 -22.645  0.00  0.00    -0.021 C 
ATOM      2  C   UNL     1      30.380  -9.405 -21.600  0.00  0.00    -0.001 C 
ATOM      3  C   UNL     1      31.920  -9.160 -23.445  0.00  0.00    -0.001 C 
ATOM      4  C   UNL     1      31.893 -11.190 -22.155  0.00  0.00    +0.139 C 
ATOM      5  C   UNL     1      30.879 -10.685 -21.354  0.00  0.00    +0.037 C 
ATOM      6  C   UNL     1      32.418 -10.439 -23.199  0.00  0.00    +0.037 C 
ENDROOT
BRANCH   4   7
ATOM      7  O   UNL     1      32.383 -12.451 -21.914  0.00  0.00    -0.466 OA
BRANCH   7   8
ATOM      8  C   UNL     1      33.706 -12.719 -22.325  0.00  0.00    +0.279 C 
BRANCH   8  12
ATOM      9  O   UNL     1      33.225 -16.414 -25.402  0.00  0.00    -0.274 OA
ATOM     10  N   UNL     1      33.448 -14.609 -23.927  0.00  0.00    -0.232 N 
ATOM     11  N   UNL     1      34.310 -14.972 -21.741  0.00  0.00    -0.391 NA
ATOM     12  C   UNL     1      33.839 -14.186 -22.659  0.00  0.00    +0.210 C 
ATOM     13  C   UNL     1      34.080 -16.867 -23.274  0.00  0.00    +0.151 C 
ATOM     14  C   UNL     1      34.440 -16.335 -22.034  0.00  0.00    +0.123 C 
ATOM     15  C   UNL     1      33.544 -15.957 -24.309  0.00  0.00    +0.241 C 
ATOM     16  C   UNL     1      32.925 -13.658 -24.908  0.00  0.00    +0.122 C 
ATOM     17  C   UNL     1      34.223 -18.234 -23.535  0.00  0.00    -0.010 C 
ATOM     18  C   UNL     1      34.948 -17.193 -21.052  0.00  0.00    +0.028 C 
ATOM     19  C   UNL     1      34.730 -19.077 -22.548  0.00  0.00    -0.004 C 
ATOM     20  C   UNL     1      35.092 -18.557 -21.307  0.00  0.00    +0.002 C 
ENDBRANCH   8  12
ENDBRANCH   7   8
ENDBRANCH   4   7
BRANCH   1  21
ATOM     21  C   UNL     1      30.369  -7.275 -22.907  0.00  0.00    +0.047 C 
BRANCH  21  26
ATOM     22  S   UNL     1      32.522  -6.855 -21.229  0.00  0.00    -0.048 S 
ATOM     23  O   UNL     1      29.641  -4.458 -22.151  0.00  0.00    -0.274 OA
ATOM     24  O   UNL     1      32.626  -5.719 -18.860  0.00  0.00    -0.263 OA
ATOM     25  N   UNL     1      31.061  -4.935 -20.389  0.00  0.00    -0.246 N 
ATOM     26  C   UNL     1      31.314  -6.183 -22.412  0.00  0.00    +0.137 C 
ATOM     27  C   UNL     1      30.566  -5.100 -21.666  0.00  0.00    +0.239 C 
ATOM     28  C   UNL     1      32.082  -5.738 -19.954  0.00  0.00    +0.279 C 
ATOM     29  H   UNL     1      30.684  -4.245 -19.796  0.00  0.00    +0.158 HD
ENDBRANCH  21  26
ENDBRANCH   1  21
TORSDOF 5
ENDMDL
