MODEL 1
REMARK VINA RESULT:     -10.9      0.000      0.000
REMARK  Name = 16741275
REMARK  14 active torsions:
REMARK  status: ('A' for Active; 'I' for Inactive)
REMARK    1  A    between atoms: N_2  and  C_19
REMARK    2  A    between atoms: C_3  and  C_5
REMARK    3  A    between atoms: C_5  and  N_8
REMARK    4  A    between atoms: C_9  and  O_11
REMARK    5  A    between atoms: O_11  and  C_12
REMARK    6  A    between atoms: C_12  and  C_13
REMARK    7  A    between atoms: C_19  and  P_20
REMARK    8  A    between atoms: P_20  and  O_22
REMARK    9  A    between atoms: P_20  and  O_24
REMARK   10  A    between atoms: O_24  and  C_25
REMARK   11  A    between atoms: C_25  and  C_27
REMARK   12  A    between atoms: C_25  and  C_30
REMARK   13  A    between atoms: C_27  and  O_28
REMARK   14  A    between atoms: C_30  and  C_31
REMARK                            x       y       z     vdW  Elec       q    Type
REMARK                         _______ _______ _______ _____ _____    ______ ____
ROOT
ATOM      1  O   UNL     1      37.576 -22.775 -12.988  0.00  0.00    -0.273 OA
ATOM      2  N   UNL     1      37.086 -23.698 -15.060  0.00  0.00    -0.293 N 
ATOM      3  C   UNL     1      37.091 -23.674 -13.673  0.00  0.00    +0.241 C 
ATOM      4  H   UNL     1      36.672 -24.467 -15.515  0.00  0.00    +0.150 HD
ENDROOT
BRANCH   3   5
ATOM      5  C   UNL     1      36.381 -24.881 -13.076  0.00  0.00    +0.151 C 
ATOM      6  C   UNL     1      36.822 -26.166 -13.761  0.00  0.00    +0.031 C 
BRANCH   5   8
ATOM      7  O   UNL     1      34.616 -23.388 -11.320  0.00  0.00    -0.226 OA
ATOM      8  N   UNL     1      34.961 -24.683 -13.213  0.00  0.00    -0.264 N 
ATOM      9  C   UNL     1      34.197 -23.953 -12.324  0.00  0.00    +0.402 C 
ATOM     10  H   UNL     1      34.509 -25.093 -13.985  0.00  0.00    +0.153 HD
BRANCH   9  11
ATOM     11  O   UNL     1      32.891 -23.952 -12.727  0.00  0.00    -0.430 OA
BRANCH  11  12
ATOM     12  C   UNL     1      32.621 -23.279 -13.962  0.00  0.00    +0.237 C 
BRANCH  12  13
ATOM     13  C   UNL     1      31.209 -23.572 -14.381  0.00  0.00    +0.021 C 
ATOM     14  C   UNL     1      30.547 -22.708 -15.253  0.00  0.00    -0.001 C 
ATOM     15  C   UNL     1      30.560 -24.709 -13.899  0.00  0.00    -0.001 C 
ATOM     16  C   UNL     1      29.236 -22.980 -15.643  0.00  0.00    -0.000 C 
ATOM     17  C   UNL     1      29.249 -24.980 -14.288  0.00  0.00    -0.000 C 
ATOM     18  C   UNL     1      28.587 -24.117 -15.160  0.00  0.00    -0.000 C 
ENDBRANCH  12  13
ENDBRANCH  11  12
ENDBRANCH   9  11
ENDBRANCH   5   8
ENDBRANCH   3   5
BRANCH   2  19
ATOM     19  C   UNL     1      37.662 -22.646 -15.868  0.00  0.00    +0.207 C 
BRANCH  19  20
ATOM     20  P   UNL     1      36.353 -21.511 -16.277  0.00  0.00    +0.360 P 
ATOM     21  O   UNL     1      36.827 -20.168 -16.753  0.00  0.00    -0.256 OA
BRANCH  20  22
ATOM     22  O   UNL     1      35.474 -21.446 -14.919  0.00  0.00    -0.322 OA
ATOM     23  H   UNL     1      35.139 -20.546 -14.794  0.00  0.00    +0.220 HD
ENDBRANCH  20  22
BRANCH  20  24
ATOM     24  O   UNL     1      35.397 -22.288 -17.327  0.00  0.00    -0.284 OA
BRANCH  24  25
ATOM     25  C   UNL     1      34.489 -21.579 -18.150  0.00  0.00    +0.226 C 
BRANCH  25  27
ATOM     26  O   UNL     1      32.070 -21.739 -18.347  0.00  0.00    -0.248 OA
ATOM     27  C   UNL     1      33.134 -22.244 -18.012  0.00  0.00    +0.342 C 
BRANCH  27  28
ATOM     28  O   UNL     1      33.226 -23.492 -17.485  0.00  0.00    -0.479 OA
ATOM     29  H   UNL     1      32.849 -23.676 -16.647  0.00  0.00    +0.295 HD
ENDBRANCH  27  28
ENDBRANCH  25  27
BRANCH  25  30
ATOM     30  C   UNL     1      34.981 -21.648 -19.597  0.00  0.00    +0.068 C 
BRANCH  30  31
ATOM     31  C   UNL     1      35.067 -20.280 -20.230  0.00  0.00    -0.019 C 
ATOM     32  C   UNL     1      36.293 -19.620 -20.303  0.00  0.00    -0.004 C 
ATOM     33  C   UNL     1      33.919 -19.675 -20.742  0.00  0.00    -0.004 C 
ATOM     34  C   UNL     1      36.372 -18.356 -20.888  0.00  0.00    -0.000 C 
ATOM     35  C   UNL     1      33.997 -18.411 -21.327  0.00  0.00    -0.000 C 
ATOM     36  C   UNL     1      35.224 -17.752 -21.399  0.00  0.00    -0.000 C 
ENDBRANCH  30  31
ENDBRANCH  25  30
ENDBRANCH  24  25
ENDBRANCH  20  24
ENDBRANCH  19  20
ENDBRANCH   2  19
TORSDOF 14
ENDMDL
MODEL 2
REMARK VINA RESULT:     -10.8      4.696      6.817
REMARK  Name = 16741275
REMARK  14 active torsions:
REMARK  status: ('A' for Active; 'I' for Inactive)
REMARK    1  A    between atoms: N_2  and  C_19
REMARK    2  A    between atoms: C_3  and  C_5
REMARK    3  A    between atoms: C_5  and  N_8
REMARK    4  A    between atoms: C_9  and  O_11
REMARK    5  A    between atoms: O_11  and  C_12
REMARK    6  A    between atoms: C_12  and  C_13
REMARK    7  A    between atoms: C_19  and  P_20
REMARK    8  A    between atoms: P_20  and  O_22
REMARK    9  A    between atoms: P_20  and  O_24
REMARK   10  A    between atoms: O_24  and  C_25
REMARK   11  A    between atoms: C_25  and  C_27
REMARK   12  A    between atoms: C_25  and  C_30
REMARK   13  A    between atoms: C_27  and  O_28
REMARK   14  A    between atoms: C_30  and  C_31
REMARK                            x       y       z     vdW  Elec       q    Type
REMARK                         _______ _______ _______ _____ _____    ______ ____
ROOT
ATOM      1  O   UNL     1      31.992 -19.882 -20.515  0.00  0.00    -0.273 OA
ATOM      2  N   UNL     1      34.262 -19.696 -20.960  0.00  0.00    -0.293 N 
ATOM      3  C   UNL     1      33.162 -20.134 -20.236  0.00  0.00    +0.241 C 
ATOM      4  H   UNL     1      35.161 -19.953 -20.651  0.00  0.00    +0.150 HD
ENDROOT
BRANCH   3   5
ATOM      5  C   UNL     1      33.565 -21.015 -19.060  0.00  0.00    +0.151 C 
ATOM      6  C   UNL     1      34.685 -21.967 -19.452  0.00  0.00    +0.031 C 
BRANCH   5   8
ATOM      7  O   UNL     1      33.221 -22.488 -16.582  0.00  0.00    -0.226 OA
ATOM      8  N   UNL     1      32.401 -21.737 -18.617  0.00  0.00    -0.264 N 
ATOM      9  C   UNL     1      32.326 -22.414 -17.416  0.00  0.00    +0.402 C 
ATOM     10  H   UNL     1      31.613 -21.749 -19.206  0.00  0.00    +0.153 HD
BRANCH   9  11
ATOM     11  O   UNL     1      31.096 -22.995 -17.287  0.00  0.00    -0.430 OA
BRANCH  11  12
ATOM     12  C   UNL     1      30.182 -22.334 -16.403  0.00  0.00    +0.237 C 
BRANCH  12  13
ATOM     13  C   UNL     1      30.116 -23.094 -15.110  0.00  0.00    +0.021 C 
ATOM     14  C   UNL     1      30.709 -22.569 -13.962  0.00  0.00    -0.001 C 
ATOM     15  C   UNL     1      29.459 -24.324 -15.057  0.00  0.00    -0.001 C 
ATOM     16  C   UNL     1      30.647 -23.274 -12.761  0.00  0.00    -0.000 C 
ATOM     17  C   UNL     1      29.398 -25.028 -13.855  0.00  0.00    -0.000 C 
ATOM     18  C   UNL     1      29.991 -24.504 -12.707  0.00  0.00    -0.000 C 
ENDBRANCH  12  13
ENDBRANCH  11  12
ENDBRANCH   9  11
ENDBRANCH   5   8
ENDBRANCH   3   5
BRANCH   2  19
ATOM     19  C   UNL     1      34.147 -18.878 -22.147  0.00  0.00    +0.207 C 
BRANCH  19  20
ATOM     20  P   UNL     1      35.328 -17.554 -21.998  0.00  0.00    +0.360 P 
ATOM     21  O   UNL     1      36.752 -18.012 -21.858  0.00  0.00    -0.256 OA
BRANCH  20  22
ATOM     22  O   UNL     1      34.789 -16.712 -20.726  0.00  0.00    -0.322 OA
ATOM     23  H   UNL     1      34.561 -17.321 -20.007  0.00  0.00    +0.220 HD
ENDBRANCH  20  22
BRANCH  20  24
ATOM     24  O   UNL     1      35.067 -16.574 -23.258  0.00  0.00    -0.284 OA
BRANCH  24  25
ATOM     25  C   UNL     1      33.881 -15.806 -23.353  0.00  0.00    +0.226 C 
BRANCH  25  27
ATOM     26  O   UNL     1      32.871 -17.253 -25.028  0.00  0.00    -0.248 OA
ATOM     27  C   UNL     1      33.229 -16.134 -24.681  0.00  0.00    +0.342 C 
BRANCH  27  28
ATOM     28  O   UNL     1      33.063 -15.032 -25.456  0.00  0.00    -0.479 OA
ATOM     29  H   UNL     1      32.849 -14.209 -25.061  0.00  0.00    +0.295 HD
ENDBRANCH  27  28
ENDBRANCH  25  27
BRANCH  25  30
ATOM     30  C   UNL     1      34.248 -14.323 -23.282  0.00  0.00    +0.068 C 
BRANCH  30  31
ATOM     31  C   UNL     1      33.290 -13.544 -22.413  0.00  0.00    -0.019 C 
ATOM     32  C   UNL     1      33.047 -13.952 -21.102  0.00  0.00    -0.004 C 
ATOM     33  C   UNL     1      32.647 -12.416 -22.922  0.00  0.00    -0.004 C 
ATOM     34  C   UNL     1      32.163 -13.232 -20.299  0.00  0.00    -0.000 C 
ATOM     35  C   UNL     1      31.762 -11.695 -22.120  0.00  0.00    -0.000 C 
ATOM     36  C   UNL     1      31.519 -12.104 -20.809  0.00  0.00    -0.000 C 
ENDBRANCH  30  31
ENDBRANCH  25  30
ENDBRANCH  24  25
ENDBRANCH  20  24
ENDBRANCH  19  20
ENDBRANCH   2  19
TORSDOF 14
ENDMDL
MODEL 3
REMARK VINA RESULT:     -10.5      8.241     11.138
REMARK  Name = 16741275
REMARK  14 active torsions:
REMARK  status: ('A' for Active; 'I' for Inactive)
REMARK    1  A    between atoms: N_2  and  C_19
REMARK    2  A    between atoms: C_3  and  C_5
REMARK    3  A    between atoms: C_5  and  N_8
REMARK    4  A    between atoms: C_9  and  O_11
REMARK    5  A    between atoms: O_11  and  C_12
REMARK    6  A    between atoms: C_12  and  C_13
REMARK    7  A    between atoms: C_19  and  P_20
REMARK    8  A    between atoms: P_20  and  O_22
REMARK    9  A    between atoms: P_20  and  O_24
REMARK   10  A    between atoms: O_24  and  C_25
REMARK   11  A    between atoms: C_25  and  C_27
REMARK   12  A    between atoms: C_25  and  C_30
REMARK   13  A    between atoms: C_27  and  O_28
REMARK   14  A    between atoms: C_30  and  C_31
REMARK                            x       y       z     vdW  Elec       q    Type
REMARK                         _______ _______ _______ _____ _____    ______ ____
ROOT
ATOM      1  O   UNL     1      34.200 -15.570 -20.381  0.00  0.00    -0.273 OA
ATOM      2  N   UNL     1      34.165 -14.425 -22.399  0.00  0.00    -0.293 N 
ATOM      3  C   UNL     1      34.373 -15.539 -21.598  0.00  0.00    +0.241 C 
ATOM      4  H   UNL     1      34.334 -14.504 -23.367  0.00  0.00    +0.150 HD
ENDROOT
BRANCH   3   5
ATOM      5  C   UNL     1      34.804 -16.755 -22.407  0.00  0.00    +0.151 C 
ATOM      6  C   UNL     1      34.110 -16.782 -23.760  0.00  0.00    +0.031 C 
BRANCH   5   8
ATOM      7  O   UNL     1      36.556 -18.213 -20.608  0.00  0.00    -0.226 OA
ATOM      8  N   UNL     1      34.499 -17.937 -21.644  0.00  0.00    -0.264 N 
ATOM      9  C   UNL     1      35.400 -18.568 -20.808  0.00  0.00    +0.402 C 
ATOM     10  H   UNL     1      33.595 -18.317 -21.723  0.00  0.00    +0.153 HD
BRANCH   9  11
ATOM     11  O   UNL     1      34.812 -19.656 -20.230  0.00  0.00    -0.430 OA
BRANCH  11  12
ATOM     12  C   UNL     1      35.694 -20.727 -19.872  0.00  0.00    +0.237 C 
BRANCH  12  13
ATOM     13  C   UNL     1      35.195 -21.373 -18.613  0.00  0.00    +0.021 C 
ATOM     14  C   UNL     1      33.896 -21.877 -18.555  0.00  0.00    -0.001 C 
ATOM     15  C   UNL     1      36.032 -21.472 -17.501  0.00  0.00    -0.001 C 
ATOM     16  C   UNL     1      33.432 -22.478 -17.385  0.00  0.00    -0.000 C 
ATOM     17  C   UNL     1      35.568 -22.072 -16.331  0.00  0.00    -0.000 C 
ATOM     18  C   UNL     1      34.269 -22.576 -16.273  0.00  0.00    -0.000 C 
ENDBRANCH  12  13
ENDBRANCH  11  12
ENDBRANCH   9  11
ENDBRANCH   5   8
ENDBRANCH   3   5
BRANCH   2  19
ATOM     19  C   UNL     1      33.713 -13.154 -21.879  0.00  0.00    +0.207 C 
BRANCH  19  20
ATOM     20  P   UNL     1      32.868 -12.309 -23.198  0.00  0.00    +0.360 P 
ATOM     21  O   UNL     1      32.473 -13.195 -24.345  0.00  0.00    -0.256 OA
BRANCH  20  22
ATOM     22  O   UNL     1      33.901 -11.133 -23.613  0.00  0.00    -0.322 OA
ATOM     23  H   UNL     1      33.765 -10.897 -24.543  0.00  0.00    +0.220 HD
ENDBRANCH  20  22
BRANCH  20  24
ATOM     24  O   UNL     1      31.633 -11.522 -22.510  0.00  0.00    -0.284 OA
BRANCH  24  25
ATOM     25  C   UNL     1      31.822 -10.259 -21.898  0.00  0.00    +0.226 C 
BRANCH  25  27
ATOM     26  O   UNL     1      30.479  -9.526 -20.007  0.00  0.00    -0.248 OA
ATOM     27  C   UNL     1      31.250 -10.341 -20.497  0.00  0.00    +0.342 C 
BRANCH  27  28
ATOM     28  O   UNL     1      31.675 -11.447 -19.833  0.00  0.00    -0.479 OA
ATOM     29  H   UNL     1      31.728 -11.440 -18.897  0.00  0.00    +0.295 HD
ENDBRANCH  27  28
ENDBRANCH  25  27
BRANCH  25  30
ATOM     30  C   UNL     1      31.088  -9.199 -22.721  0.00  0.00    +0.068 C 
BRANCH  30  31
ATOM     31  C   UNL     1      31.826  -7.882 -22.733  0.00  0.00    -0.019 C 
ATOM     32  C   UNL     1      33.121  -7.811 -23.245  0.00  0.00    -0.004 C 
ATOM     33  C   UNL     1      31.212  -6.734 -22.231  0.00  0.00    -0.004 C 
ATOM     34  C   UNL     1      33.802  -6.594 -23.256  0.00  0.00    -0.000 C 
ATOM     35  C   UNL     1      31.892  -5.517 -22.241  0.00  0.00    -0.000 C 
ATOM     36  C   UNL     1      33.188  -5.447 -22.753  0.00  0.00    -0.000 C 
ENDBRANCH  30  31
ENDBRANCH  25  30
ENDBRANCH  24  25
ENDBRANCH  20  24
ENDBRANCH  19  20
ENDBRANCH   2  19
TORSDOF 14
ENDMDL
MODEL 4
REMARK VINA RESULT:     -10.5      3.980      5.721
REMARK  Name = 16741275
REMARK  14 active torsions:
REMARK  status: ('A' for Active; 'I' for Inactive)
REMARK    1  A    between atoms: N_2  and  C_19
REMARK    2  A    between atoms: C_3  and  C_5
REMARK    3  A    between atoms: C_5  and  N_8
REMARK    4  A    between atoms: C_9  and  O_11
REMARK    5  A    between atoms: O_11  and  C_12
REMARK    6  A    between atoms: C_12  and  C_13
REMARK    7  A    between atoms: C_19  and  P_20
REMARK    8  A    between atoms: P_20  and  O_22
REMARK    9  A    between atoms: P_20  and  O_24
REMARK   10  A    between atoms: O_24  and  C_25
REMARK   11  A    between atoms: C_25  and  C_27
REMARK   12  A    between atoms: C_25  and  C_30
REMARK   13  A    between atoms: C_27  and  O_28
REMARK   14  A    between atoms: C_30  and  C_31
REMARK                            x       y       z     vdW  Elec       q    Type
REMARK                         _______ _______ _______ _____ _____    ______ ____
ROOT
ATOM      1  O   UNL     1      34.575 -22.236 -19.793  0.00  0.00    -0.273 OA
ATOM      2  N   UNL     1      35.030 -19.965 -19.640  0.00  0.00    -0.293 N 
ATOM      3  C   UNL     1      34.878 -21.246 -19.129  0.00  0.00    +0.241 C 
ATOM      4  H   UNL     1      35.275 -19.238 -19.021  0.00  0.00    +0.150 HD
ENDROOT
BRANCH   3   5
ATOM      5  C   UNL     1      35.174 -21.307 -17.636  0.00  0.00    +0.151 C 
ATOM      6  C   UNL     1      36.638 -21.637 -17.385  0.00  0.00    +0.031 C 
BRANCH   5   8
ATOM      7  O   UNL     1      34.973 -22.045 -14.835  0.00  0.00    -0.226 OA
ATOM      8  N   UNL     1      34.310 -22.295 -17.044  0.00  0.00    -0.264 N 
ATOM      9  C   UNL     1      34.281 -22.582 -15.693  0.00  0.00    +0.402 C 
ATOM     10  H   UNL     1      33.705 -22.795 -17.637  0.00  0.00    +0.153 HD
BRANCH   9  11
ATOM     11  O   UNL     1      33.361 -23.561 -15.447  0.00  0.00    -0.430 OA
BRANCH  11  12
ATOM     12  C   UNL     1      32.588 -23.405 -14.251  0.00  0.00    +0.237 C 
BRANCH  12  13
ATOM     13  C   UNL     1      31.142 -23.653 -14.566  0.00  0.00    +0.021 C 
ATOM     14  C   UNL     1      30.465 -24.705 -13.950  0.00  0.00    -0.001 C 
ATOM     15  C   UNL     1      30.475 -22.830 -15.473  0.00  0.00    -0.001 C 
ATOM     16  C   UNL     1      29.121 -24.936 -14.242  0.00  0.00    -0.000 C 
ATOM     17  C   UNL     1      29.131 -23.061 -15.766  0.00  0.00    -0.000 C 
ATOM     18  C   UNL     1      28.453 -24.113 -15.150  0.00  0.00    -0.000 C 
ENDBRANCH  12  13
ENDBRANCH  11  12
ENDBRANCH   9  11
ENDBRANCH   5   8
ENDBRANCH   3   5
BRANCH   2  19
ATOM     19  C   UNL     1      34.846 -19.648 -21.039  0.00  0.00    +0.207 C 
BRANCH  19  20
ATOM     20  P   UNL     1      35.758 -18.157 -21.372  0.00  0.00    +0.360 P 
ATOM     21  O   UNL     1      37.237 -18.273 -21.137  0.00  0.00    -0.256 OA
BRANCH  20  22
ATOM     22  O   UNL     1      35.036 -17.057 -20.429  0.00  0.00    -0.322 OA
ATOM     23  H   UNL     1      35.659 -16.753 -19.751  0.00  0.00    +0.220 HD
ENDBRANCH  20  22
BRANCH  20  24
ATOM     24  O   UNL     1      35.357 -17.710 -22.874  0.00  0.00    -0.284 OA
BRANCH  24  25
ATOM     25  C   UNL     1      34.211 -16.916 -23.119  0.00  0.00    +0.226 C 
BRANCH  25  27
ATOM     26  O   UNL     1      33.365 -18.715 -24.520  0.00  0.00    -0.248 OA
ATOM     27  C   UNL     1      33.484 -17.516 -24.306  0.00  0.00    +0.342 C 
BRANCH  27  28
ATOM     28  O   UNL     1      32.951 -16.564 -25.115  0.00  0.00    -0.479 OA
ATOM     29  H   UNL     1      33.036 -16.639 -26.045  0.00  0.00    +0.295 HD
ENDBRANCH  27  28
ENDBRANCH  25  27
BRANCH  25  30
ATOM     30  C   UNL     1      34.660 -15.486 -23.426  0.00  0.00    +0.068 C 
BRANCH  30  31
ATOM     31  C   UNL     1      33.816 -14.462 -22.706  0.00  0.00    -0.019 C 
ATOM     32  C   UNL     1      33.054 -13.548 -23.433  0.00  0.00    -0.004 C 
ATOM     33  C   UNL     1      33.799 -14.428 -21.312  0.00  0.00    -0.004 C 
ATOM     34  C   UNL     1      32.274 -12.602 -22.768  0.00  0.00    -0.000 C 
ATOM     35  C   UNL     1      33.020 -13.483 -20.644  0.00  0.00    -0.000 C 
ATOM     36  C   UNL     1      32.258 -12.570 -21.373  0.00  0.00    -0.000 C 
ENDBRANCH  30  31
ENDBRANCH  25  30
ENDBRANCH  24  25
ENDBRANCH  20  24
ENDBRANCH  19  20
ENDBRANCH   2  19
TORSDOF 14
ENDMDL
MODEL 5
REMARK VINA RESULT:     -10.4      4.655      7.364
REMARK  Name = 16741275
REMARK  14 active torsions:
REMARK  status: ('A' for Active; 'I' for Inactive)
REMARK    1  A    between atoms: N_2  and  C_19
REMARK    2  A    between atoms: C_3  and  C_5
REMARK    3  A    between atoms: C_5  and  N_8
REMARK    4  A    between atoms: C_9  and  O_11
REMARK    5  A    between atoms: O_11  and  C_12
REMARK    6  A    between atoms: C_12  and  C_13
REMARK    7  A    between atoms: C_19  and  P_20
REMARK    8  A    between atoms: P_20  and  O_22
REMARK    9  A    between atoms: P_20  and  O_24
REMARK   10  A    between atoms: O_24  and  C_25
REMARK   11  A    between atoms: C_25  and  C_27
REMARK   12  A    between atoms: C_25  and  C_30
REMARK   13  A    between atoms: C_27  and  O_28
REMARK   14  A    between atoms: C_30  and  C_31
REMARK                            x       y       z     vdW  Elec       q    Type
REMARK                         _______ _______ _______ _____ _____    ______ ____
ROOT
ATOM      1  O   UNL     1      36.030 -19.999 -19.927  0.00  0.00    -0.273 OA
ATOM      2  N   UNL     1      34.003 -18.993 -20.440  0.00  0.00    -0.293 N 
ATOM      3  C   UNL     1      34.801 -20.019 -19.955  0.00  0.00    +0.241 C 
ATOM      4  H   UNL     1      33.024 -19.108 -20.418  0.00  0.00    +0.150 HD
ENDROOT
BRANCH   3   5
ATOM      5  C   UNL     1      33.976 -21.178 -19.410  0.00  0.00    +0.151 C 
ATOM      6  C   UNL     1      32.505 -20.802 -19.316  0.00  0.00    +0.031 C 
BRANCH   5   8
ATOM      7  O   UNL     1      33.126 -23.357 -17.689  0.00  0.00    -0.226 OA
ATOM      8  N   UNL     1      34.502 -21.539 -18.119  0.00  0.00    -0.264 N 
ATOM      9  C   UNL     1      34.033 -22.598 -17.366  0.00  0.00    +0.402 C 
ATOM     10  H   UNL     1      35.238 -20.999 -17.753  0.00  0.00    +0.153 HD
BRANCH   9  11
ATOM     11  O   UNL     1      34.734 -22.680 -16.196  0.00  0.00    -0.430 OA
BRANCH  11  12
ATOM     12  C   UNL     1      34.332 -23.722 -15.300  0.00  0.00    +0.237 C 
BRANCH  12  13
ATOM     13  C   UNL     1      35.555 -24.347 -14.694  0.00  0.00    +0.021 C 
ATOM     14  C   UNL     1      36.429 -23.573 -13.932  0.00  0.00    -0.001 C 
ATOM     15  C   UNL     1      35.816 -25.703 -14.893  0.00  0.00    -0.001 C 
ATOM     16  C   UNL     1      37.565 -24.153 -13.369  0.00  0.00    -0.000 C 
ATOM     17  C   UNL     1      36.953 -26.283 -14.330  0.00  0.00    -0.000 C 
ATOM     18  C   UNL     1      37.827 -25.509 -13.567  0.00  0.00    -0.000 C 
ENDBRANCH  12  13
ENDBRANCH  11  12
ENDBRANCH   9  11
ENDBRANCH   5   8
ENDBRANCH   3   5
BRANCH   2  19
ATOM     19  C   UNL     1      34.541 -17.762 -20.976  0.00  0.00    +0.207 C 
BRANCH  19  20
ATOM     20  P   UNL     1      35.142 -18.113 -22.614  0.00  0.00    +0.360 P 
ATOM     21  O   UNL     1      34.465 -19.274 -23.284  0.00  0.00    -0.256 OA
BRANCH  20  22
ATOM     22  O   UNL     1      36.731 -18.326 -22.394  0.00  0.00    -0.322 OA
ATOM     23  H   UNL     1      36.883 -19.158 -21.919  0.00  0.00    +0.220 HD
ENDBRANCH  20  22
BRANCH  20  24
ATOM     24  O   UNL     1      35.043 -16.723 -23.436  0.00  0.00    -0.284 OA
BRANCH  24  25
ATOM     25  C   UNL     1      33.850 -15.960 -23.442  0.00  0.00    +0.226 C 
BRANCH  25  27
ATOM     26  O   UNL     1      32.649 -17.287 -25.089  0.00  0.00    -0.248 OA
ATOM     27  C   UNL     1      33.149 -16.219 -24.760  0.00  0.00    +0.342 C 
BRANCH  27  28
ATOM     28  O   UNL     1      33.116 -15.114 -25.549  0.00  0.00    -0.479 OA
ATOM     29  H   UNL     1      33.203 -15.199 -26.478  0.00  0.00    +0.295 HD
ENDBRANCH  27  28
ENDBRANCH  25  27
BRANCH  25  30
ATOM     30  C   UNL     1      34.211 -14.480 -23.302  0.00  0.00    +0.068 C 
BRANCH  30  31
ATOM     31  C   UNL     1      33.280 -13.758 -22.359  0.00  0.00    -0.019 C 
ATOM     32  C   UNL     1      33.183 -14.161 -21.027  0.00  0.00    -0.004 C 
ATOM     33  C   UNL     1      32.516 -12.685 -22.819  0.00  0.00    -0.004 C 
ATOM     34  C   UNL     1      32.323 -13.493 -20.156  0.00  0.00    -0.000 C 
ATOM     35  C   UNL     1      31.655 -12.016 -21.948  0.00  0.00    -0.000 C 
ATOM     36  C   UNL     1      31.559 -12.421 -20.617  0.00  0.00    -0.000 C 
ENDBRANCH  30  31
ENDBRANCH  25  30
ENDBRANCH  24  25
ENDBRANCH  20  24
ENDBRANCH  19  20
ENDBRANCH   2  19
TORSDOF 14
ENDMDL
MODEL 6
REMARK VINA RESULT:     -10.2      4.463      9.747
REMARK  Name = 16741275
REMARK  14 active torsions:
REMARK  status: ('A' for Active; 'I' for Inactive)
REMARK    1  A    between atoms: N_2  and  C_19
REMARK    2  A    between atoms: C_3  and  C_5
REMARK    3  A    between atoms: C_5  and  N_8
REMARK    4  A    between atoms: C_9  and  O_11
REMARK    5  A    between atoms: O_11  and  C_12
REMARK    6  A    between atoms: C_12  and  C_13
REMARK    7  A    between atoms: C_19  and  P_20
REMARK    8  A    between atoms: P_20  and  O_22
REMARK    9  A    between atoms: P_20  and  O_24
REMARK   10  A    between atoms: O_24  and  C_25
REMARK   11  A    between atoms: C_25  and  C_27
REMARK   12  A    between atoms: C_25  and  C_30
REMARK   13  A    between atoms: C_27  and  O_28
REMARK   14  A    between atoms: C_30  and  C_31
REMARK                            x       y       z     vdW  Elec       q    Type
REMARK                         _______ _______ _______ _____ _____    ______ ____
ROOT
ATOM      1  O   UNL     1      35.867 -18.631 -20.488  0.00  0.00    -0.273 OA
ATOM      2  N   UNL     1      34.293 -20.333 -20.591  0.00  0.00    -0.293 N 
ATOM      3  C   UNL     1      34.899 -19.163 -21.027  0.00  0.00    +0.241 C 
ATOM      4  H   UNL     1      33.519 -20.677 -21.094  0.00  0.00    +0.150 HD
ENDROOT
BRANCH   3   5
ATOM      5  C   UNL     1      34.251 -18.621 -22.294  0.00  0.00    +0.151 C 
ATOM      6  C   UNL     1      34.832 -19.290 -23.532  0.00  0.00    +0.031 C 
BRANCH   5   8
ATOM      7  O   UNL     1      33.713 -16.803 -24.494  0.00  0.00    -0.226 OA
ATOM      8  N   UNL     1      34.455 -17.196 -22.332  0.00  0.00    -0.264 N 
ATOM      9  C   UNL     1      34.170 -16.406 -23.428  0.00  0.00    +0.402 C 
ATOM     10  H   UNL     1      34.820 -16.760 -21.529  0.00  0.00    +0.153 HD
BRANCH   9  11
ATOM     11  O   UNL     1      34.472 -15.102 -23.151  0.00  0.00    -0.430 OA
BRANCH  11  12
ATOM     12  C   UNL     1      34.109 -14.641 -21.845  0.00  0.00    +0.237 C 
BRANCH  12  13
ATOM     13  C   UNL     1      33.293 -13.389 -21.976  0.00  0.00    +0.021 C 
ATOM     14  C   UNL     1      32.322 -13.086 -21.022  0.00  0.00    -0.001 C 
ATOM     15  C   UNL     1      33.506 -12.526 -23.052  0.00  0.00    -0.001 C 
ATOM     16  C   UNL     1      31.562 -11.922 -21.144  0.00  0.00    -0.000 C 
ATOM     17  C   UNL     1      32.747 -11.363 -23.174  0.00  0.00    -0.000 C 
ATOM     18  C   UNL     1      31.776 -11.060 -22.220  0.00  0.00    -0.000 C 
ENDBRANCH  12  13
ENDBRANCH  11  12
ENDBRANCH   9  11
ENDBRANCH   5   8
ENDBRANCH   3   5
BRANCH   2  19
ATOM     19  C   UNL     1      34.745 -21.069 -19.431  0.00  0.00    +0.207 C 
BRANCH  19  20
ATOM     20  P   UNL     1      33.401 -22.110 -18.904  0.00  0.00    +0.360 P 
ATOM     21  O   UNL     1      33.538 -23.548 -19.316  0.00  0.00    -0.256 OA
BRANCH  20  22
ATOM     22  O   UNL     1      32.095 -21.380 -19.522  0.00  0.00    -0.322 OA
ATOM     23  H   UNL     1      31.818 -21.840 -20.329  0.00  0.00    +0.220 HD
ENDBRANCH  20  22
BRANCH  20  24
ATOM     24  O   UNL     1      33.258 -21.887 -17.308  0.00  0.00    -0.284 OA
BRANCH  24  25
ATOM     25  C   UNL     1      32.792 -22.924 -16.464  0.00  0.00    +0.226 C 
BRANCH  25  27
ATOM     26  O   UNL     1      30.603 -22.058 -17.076  0.00  0.00    -0.248 OA
ATOM     27  C   UNL     1      31.283 -22.804 -16.384  0.00  0.00    +0.342 C 
BRANCH  27  28
ATOM     28  O   UNL     1      30.751 -23.642 -15.457  0.00  0.00    -0.479 OA
ATOM     29  H   UNL     1      29.883 -23.978 -15.572  0.00  0.00    +0.295 HD
ENDBRANCH  27  28
ENDBRANCH  25  27
BRANCH  25  30
ATOM     30  C   UNL     1      33.423 -22.752 -15.081  0.00  0.00    +0.068 C 
BRANCH  30  31
ATOM     31  C   UNL     1      34.907 -23.025 -15.099  0.00  0.00    -0.019 C 
ATOM     32  C   UNL     1      35.793 -22.040 -15.535  0.00  0.00    -0.004 C 
ATOM     33  C   UNL     1      35.394 -24.263 -14.680  0.00  0.00    -0.004 C 
ATOM     34  C   UNL     1      37.165 -22.292 -15.551  0.00  0.00    -0.000 C 
ATOM     35  C   UNL     1      36.766 -24.517 -14.695  0.00  0.00    -0.000 C 
ATOM     36  C   UNL     1      37.651 -23.531 -15.132  0.00  0.00    -0.000 C 
ENDBRANCH  30  31
ENDBRANCH  25  30
ENDBRANCH  24  25
ENDBRANCH  20  24
ENDBRANCH  19  20
ENDBRANCH   2  19
TORSDOF 14
ENDMDL
MODEL 7
REMARK VINA RESULT:     -10.2      2.195      7.391
REMARK  Name = 16741275
REMARK  14 active torsions:
REMARK  status: ('A' for Active; 'I' for Inactive)
REMARK    1  A    between atoms: N_2  and  C_19
REMARK    2  A    between atoms: C_3  and  C_5
REMARK    3  A    between atoms: C_5  and  N_8
REMARK    4  A    between atoms: C_9  and  O_11
REMARK    5  A    between atoms: O_11  and  C_12
REMARK    6  A    between atoms: C_12  and  C_13
REMARK    7  A    between atoms: C_19  and  P_20
REMARK    8  A    between atoms: P_20  and  O_22
REMARK    9  A    between atoms: P_20  and  O_24
REMARK   10  A    between atoms: O_24  and  C_25
REMARK   11  A    between atoms: C_25  and  C_27
REMARK   12  A    between atoms: C_25  and  C_30
REMARK   13  A    between atoms: C_27  and  O_28
REMARK   14  A    between atoms: C_30  and  C_31
REMARK                            x       y       z     vdW  Elec       q    Type
REMARK                         _______ _______ _______ _____ _____    ______ ____
ROOT
ATOM      1  O   UNL     1      30.570 -24.549 -12.503  0.00  0.00    -0.273 OA
ATOM      2  N   UNL     1      32.171 -23.730 -13.969  0.00  0.00    -0.293 N 
ATOM      3  C   UNL     1      30.879 -24.063 -13.589  0.00  0.00    +0.241 C 
ATOM      4  H   UNL     1      32.314 -23.346 -14.865  0.00  0.00    +0.150 HD
ENDROOT
BRANCH   3   5
ATOM      5  C   UNL     1      29.859 -23.716 -14.665  0.00  0.00    +0.151 C 
ATOM      6  C   UNL     1      29.121 -24.960 -15.138  0.00  0.00    +0.031 C 
BRANCH   5   8
ATOM      7  O   UNL     1      28.757 -21.924 -16.666  0.00  0.00    -0.226 OA
ATOM      8  N   UNL     1      30.550 -23.078 -15.755  0.00  0.00    -0.264 N 
ATOM      9  C   UNL     1      29.942 -22.236 -16.665  0.00  0.00    +0.402 C 
ATOM     10  H   UNL     1      31.513 -23.254 -15.857  0.00  0.00    +0.153 HD
BRANCH   9  11
ATOM     11  O   UNL     1      30.862 -21.794 -17.574  0.00  0.00    -0.430 OA
BRANCH  11  12
ATOM     12  C   UNL     1      32.175 -22.353 -17.456  0.00  0.00    +0.237 C 
BRANCH  12  13
ATOM     13  C   UNL     1      33.100 -21.635 -18.395  0.00  0.00    +0.021 C 
ATOM     14  C   UNL     1      32.581 -20.768 -19.357  0.00  0.00    -0.001 C 
ATOM     15  C   UNL     1      34.478 -21.833 -18.305  0.00  0.00    -0.001 C 
ATOM     16  C   UNL     1      33.440 -20.101 -20.230  0.00  0.00    -0.000 C 
ATOM     17  C   UNL     1      35.336 -21.166 -19.178  0.00  0.00    -0.000 C 
ATOM     18  C   UNL     1      34.818 -20.299 -20.140  0.00  0.00    -0.000 C 
ENDBRANCH  12  13
ENDBRANCH  11  12
ENDBRANCH   9  11
ENDBRANCH   5   8
ENDBRANCH   3   5
BRANCH   2  19
ATOM     19  C   UNL     1      33.319 -23.922 -13.110  0.00  0.00    +0.207 C 
BRANCH  19  20
ATOM     20  P   UNL     1      34.766 -23.479 -14.047  0.00  0.00    +0.360 P 
ATOM     21  O   UNL     1      34.679 -22.139 -14.719  0.00  0.00    -0.256 OA
BRANCH  20  22
ATOM     22  O   UNL     1      34.937 -24.714 -15.079  0.00  0.00    -0.322 OA
ATOM     23  H   UNL     1      34.996 -25.544 -14.582  0.00  0.00    +0.220 HD
ENDBRANCH  20  22
BRANCH  20  24
ATOM     24  O   UNL     1      36.020 -23.635 -13.037  0.00  0.00    -0.284 OA
BRANCH  24  25
ATOM     25  C   UNL     1      35.889 -24.329 -11.810  0.00  0.00    +0.226 C 
BRANCH  25  27
ATOM     26  O   UNL     1      36.088 -23.597  -9.499  0.00  0.00    -0.248 OA
ATOM     27  C   UNL     1      36.150 -23.337 -10.694  0.00  0.00    +0.342 C 
BRANCH  27  28
ATOM     28  O   UNL     1      36.486 -22.110 -11.167  0.00  0.00    -0.479 OA
ATOM     29  H   UNL     1      36.198 -21.841 -12.018  0.00  0.00    +0.295 HD
ENDBRANCH  27  28
ENDBRANCH  25  27
BRANCH  25  30
ATOM     30  C   UNL     1      36.914 -25.465 -11.775  0.00  0.00    +0.068 C 
BRANCH  30  31
ATOM     31  C   UNL     1      37.915 -25.357 -12.900  0.00  0.00    -0.019 C 
ATOM     32  C   UNL     1      37.811 -26.195 -14.010  0.00  0.00    -0.004 C 
ATOM     33  C   UNL     1      38.945 -24.420 -12.829  0.00  0.00    -0.004 C 
ATOM     34  C   UNL     1      38.736 -26.095 -15.049  0.00  0.00    -0.000 C 
ATOM     35  C   UNL     1      39.871 -24.319 -13.868  0.00  0.00    -0.000 C 
ATOM     36  C   UNL     1      39.766 -25.157 -14.978  0.00  0.00    -0.000 C 
ENDBRANCH  30  31
ENDBRANCH  25  30
ENDBRANCH  24  25
ENDBRANCH  20  24
ENDBRANCH  19  20
ENDBRANCH   2  19
TORSDOF 14
ENDMDL
MODEL 8
REMARK VINA RESULT:     -10.1      2.627      8.629
REMARK  Name = 16741275
REMARK  14 active torsions:
REMARK  status: ('A' for Active; 'I' for Inactive)
REMARK    1  A    between atoms: N_2  and  C_19
REMARK    2  A    between atoms: C_3  and  C_5
REMARK    3  A    between atoms: C_5  and  N_8
REMARK    4  A    between atoms: C_9  and  O_11
REMARK    5  A    between atoms: O_11  and  C_12
REMARK    6  A    between atoms: C_12  and  C_13
REMARK    7  A    between atoms: C_19  and  P_20
REMARK    8  A    between atoms: P_20  and  O_22
REMARK    9  A    between atoms: P_20  and  O_24
REMARK   10  A    between atoms: O_24  and  C_25
REMARK   11  A    between atoms: C_25  and  C_27
REMARK   12  A    between atoms: C_25  and  C_30
REMARK   13  A    between atoms: C_27  and  O_28
REMARK   14  A    between atoms: C_30  and  C_31
REMARK                            x       y       z     vdW  Elec       q    Type
REMARK                         _______ _______ _______ _____ _____    ______ ____
ROOT
ATOM      1  O   UNL     1      36.848 -19.881 -17.497  0.00  0.00    -0.273 OA
ATOM      2  N   UNL     1      35.944 -22.002 -17.232  0.00  0.00    -0.293 N 
ATOM      3  C   UNL     1      36.131 -20.797 -17.895  0.00  0.00    +0.241 C 
ATOM      4  H   UNL     1      35.346 -22.672 -17.637  0.00  0.00    +0.150 HD
ENDROOT
BRANCH   3   5
ATOM      5  C   UNL     1      35.374 -20.746 -19.215  0.00  0.00    +0.151 C 
ATOM      6  C   UNL     1      35.710 -21.950 -20.083  0.00  0.00    +0.031 C 
BRANCH   5   8
ATOM      7  O   UNL     1      33.803 -19.297 -21.182  0.00  0.00    -0.226 OA
ATOM      8  N   UNL     1      35.713 -19.516 -19.883  0.00  0.00    -0.264 N 
ATOM      9  C   UNL     1      34.900 -18.894 -20.810  0.00  0.00    +0.402 C 
ATOM     10  H   UNL     1      36.575 -19.094 -19.665  0.00  0.00    +0.153 HD
BRANCH   9  11
ATOM     11  O   UNL     1      35.499 -17.752 -21.260  0.00  0.00    -0.430 OA
BRANCH  11  12
ATOM     12  C   UNL     1      35.003 -17.233 -22.500  0.00  0.00    +0.237 C 
BRANCH  12  13
ATOM     13  C   UNL     1      34.483 -15.843 -22.276  0.00  0.00    +0.021 C 
ATOM     14  C   UNL     1      34.176 -15.413 -20.985  0.00  0.00    -0.001 C 
ATOM     15  C   UNL     1      34.307 -14.981 -23.359  0.00  0.00    -0.001 C 
ATOM     16  C   UNL     1      33.692 -14.121 -20.777  0.00  0.00    -0.000 C 
ATOM     17  C   UNL     1      33.823 -13.689 -23.150  0.00  0.00    -0.000 C 
ATOM     18  C   UNL     1      33.517 -13.259 -21.860  0.00  0.00    -0.000 C 
ENDBRANCH  12  13
ENDBRANCH  11  12
ENDBRANCH   9  11
ENDBRANCH   5   8
ENDBRANCH   3   5
BRANCH   2  19
ATOM     19  C   UNL     1      36.586 -22.317 -15.975  0.00  0.00    +0.207 C 
BRANCH  19  20
ATOM     20  P   UNL     1      35.326 -22.921 -14.871  0.00  0.00    +0.360 P 
ATOM     21  O   UNL     1      35.675 -22.803 -13.415  0.00  0.00    -0.256 OA
BRANCH  20  22
ATOM     22  O   UNL     1      35.096 -24.446 -15.363  0.00  0.00    -0.322 OA
ATOM     23  H   UNL     1      35.654 -24.624 -16.135  0.00  0.00    +0.220 HD
ENDBRANCH  20  22
BRANCH  20  24
ATOM     24  O   UNL     1      33.960 -22.162 -15.291  0.00  0.00    -0.284 OA
BRANCH  24  25
ATOM     25  C   UNL     1      32.782 -22.890 -15.587  0.00  0.00    +0.226 C 
BRANCH  25  27
ATOM     26  O   UNL     1      31.708 -22.048 -17.600  0.00  0.00    -0.248 OA
ATOM     27  C   UNL     1      32.540 -22.779 -17.079  0.00  0.00    +0.342 C 
BRANCH  27  28
ATOM     28  O   UNL     1      33.372 -23.579 -17.794  0.00  0.00    -0.479 OA
ATOM     29  H   UNL     1      33.787 -24.312 -17.381  0.00  0.00    +0.295 HD
ENDBRANCH  27  28
ENDBRANCH  25  27
BRANCH  25  30
ATOM     30  C   UNL     1      31.618 -22.281 -14.803  0.00  0.00    +0.068 C 
BRANCH  30  31
ATOM     31  C   UNL     1      30.452 -23.233 -14.691  0.00  0.00    -0.019 C 
ATOM     32  C   UNL     1      29.251 -22.947 -15.341  0.00  0.00    -0.004 C 
ATOM     33  C   UNL     1      30.575 -24.401 -13.938  0.00  0.00    -0.004 C 
ATOM     34  C   UNL     1      28.175 -23.828 -15.237  0.00  0.00    -0.000 C 
ATOM     35  C   UNL     1      29.499 -25.282 -13.833  0.00  0.00    -0.000 C 
ATOM     36  C   UNL     1      28.299 -24.995 -14.483  0.00  0.00    -0.000 C 
ENDBRANCH  30  31
ENDBRANCH  25  30
ENDBRANCH  24  25
ENDBRANCH  20  24
ENDBRANCH  19  20
ENDBRANCH   2  19
TORSDOF 14
ENDMDL
MODEL 9
REMARK VINA RESULT:     -10.0      3.573      9.366
REMARK  Name = 16741275
REMARK  14 active torsions:
REMARK  status: ('A' for Active; 'I' for Inactive)
REMARK    1  A    between atoms: N_2  and  C_19
REMARK    2  A    between atoms: C_3  and  C_5
REMARK    3  A    between atoms: C_5  and  N_8
REMARK    4  A    between atoms: C_9  and  O_11
REMARK    5  A    between atoms: O_11  and  C_12
REMARK    6  A    between atoms: C_12  and  C_13
REMARK    7  A    between atoms: C_19  and  P_20
REMARK    8  A    between atoms: P_20  and  O_22
REMARK    9  A    between atoms: P_20  and  O_24
REMARK   10  A    between atoms: O_24  and  C_25
REMARK   11  A    between atoms: C_25  and  C_27
REMARK   12  A    between atoms: C_25  and  C_30
REMARK   13  A    between atoms: C_27  and  O_28
REMARK   14  A    between atoms: C_30  and  C_31
REMARK                            x       y       z     vdW  Elec       q    Type
REMARK                         _______ _______ _______ _____ _____    ______ ____
ROOT
ATOM      1  O   UNL     1      32.081 -20.257 -20.298  0.00  0.00    -0.273 OA
ATOM      2  N   UNL     1      33.533 -21.271 -18.800  0.00  0.00    -0.293 N 
ATOM      3  C   UNL     1      33.222 -20.501 -19.911  0.00  0.00    +0.241 C 
ATOM      4  H   UNL     1      34.483 -21.407 -18.573  0.00  0.00    +0.150 HD
ENDROOT
BRANCH   3   5
ATOM      5  C   UNL     1      34.466 -19.942 -20.588  0.00  0.00    +0.151 C 
ATOM      6  C   UNL     1      35.729 -20.417 -19.883  0.00  0.00    +0.031 C 
BRANCH   5   8
ATOM      7  O   UNL     1      35.500 -18.087 -22.569  0.00  0.00    -0.226 OA
ATOM      8  N   UNL     1      34.378 -18.505 -20.582  0.00  0.00    -0.264 N 
ATOM      9  C   UNL     1      34.902 -17.697 -21.572  0.00  0.00    +0.402 C 
ATOM     10  H   UNL     1      33.917 -18.074 -19.827  0.00  0.00    +0.153 HD
BRANCH   9  11
ATOM     11  O   UNL     1      34.656 -16.386 -21.279  0.00  0.00    -0.430 OA
BRANCH  11  12
ATOM     12  C   UNL     1      34.582 -15.498 -22.401  0.00  0.00    +0.237 C 
BRANCH  12  13
ATOM     13  C   UNL     1      33.616 -14.393 -22.089  0.00  0.00    +0.021 C 
ATOM     14  C   UNL     1      33.105 -13.602 -23.118  0.00  0.00    -0.001 C 
ATOM     15  C   UNL     1      33.228 -14.158 -20.770  0.00  0.00    -0.001 C 
ATOM     16  C   UNL     1      32.208 -12.575 -22.829  0.00  0.00    -0.000 C 
ATOM     17  C   UNL     1      32.330 -13.130 -20.481  0.00  0.00    -0.000 C 
ATOM     18  C   UNL     1      31.819 -12.339 -21.510  0.00  0.00    -0.000 C 
ENDBRANCH  12  13
ENDBRANCH  11  12
ENDBRANCH   9  11
ENDBRANCH   5   8
ENDBRANCH   3   5
BRANCH   2  19
ATOM     19  C   UNL     1      32.528 -21.882 -17.959  0.00  0.00    +0.207 C 
BRANCH  19  20
ATOM     20  P   UNL     1      33.377 -22.890 -16.761  0.00  0.00    +0.360 P 
ATOM     21  O   UNL     1      33.180 -24.367 -16.948  0.00  0.00    -0.256 OA
BRANCH  20  22
ATOM     22  O   UNL     1      32.824 -22.334 -15.345  0.00  0.00    -0.322 OA
ATOM     23  H   UNL     1      32.980 -21.379 -15.289  0.00  0.00    +0.220 HD
ENDBRANCH  20  22
BRANCH  20  24
ATOM     24  O   UNL     1      34.924 -22.417 -16.792  0.00  0.00    -0.284 OA
BRANCH  24  25
ATOM     25  C   UNL     1      35.683 -22.324 -15.600  0.00  0.00    +0.226 C 
BRANCH  25  27
ATOM     26  O   UNL     1      38.093 -22.294 -15.929  0.00  0.00    -0.248 OA
ATOM     27  C   UNL     1      37.020 -21.705 -15.957  0.00  0.00    +0.342 C 
BRANCH  27  28
ATOM     28  O   UNL     1      36.899 -20.407 -16.338  0.00  0.00    -0.479 OA
ATOM     29  H   UNL     1      37.195 -19.723 -15.770  0.00  0.00    +0.295 HD
ENDBRANCH  27  28
ENDBRANCH  25  27
BRANCH  25  30
ATOM     30  C   UNL     1      35.873 -23.730 -15.027  0.00  0.00    +0.068 C 
BRANCH  30  31
ATOM     31  C   UNL     1      36.018 -23.713 -13.524  0.00  0.00    -0.019 C 
ATOM     32  C   UNL     1      37.262 -23.952 -12.940  0.00  0.00    -0.004 C 
ATOM     33  C   UNL     1      34.908 -23.458 -12.719  0.00  0.00    -0.004 C 
ATOM     34  C   UNL     1      37.396 -23.936 -11.552  0.00  0.00    -0.000 C 
ATOM     35  C   UNL     1      35.041 -23.441 -11.331  0.00  0.00    -0.000 C 
ATOM     36  C   UNL     1      36.285 -23.681 -10.747  0.00  0.00    -0.000 C 
ENDBRANCH  30  31
ENDBRANCH  25  30
ENDBRANCH  24  25
ENDBRANCH  20  24
ENDBRANCH  19  20
ENDBRANCH   2  19
TORSDOF 14
ENDMDL
