MODEL 1
REMARK VINA RESULT:     -11.7      0.000      0.000
REMARK  Name = 5281708
REMARK  3 active torsions:
REMARK  status: ('A' for Active; 'I' for Inactive)
REMARK    1  A    between atoms: C_4  and  C_12
REMARK    2  A    between atoms: C_10  and  O_20
REMARK    3  A    between atoms: C_17  and  O_18
REMARK                            x       y       z     vdW  Elec       q    Type
REMARK                         _______ _______ _______ _____ _____    ______ ____
ROOT
ATOM      1  O   UNL     1      33.645 -18.620 -23.846  0.00  0.00    -0.450 OA
ATOM      2  O   UNL     1      35.007 -16.932 -20.389  0.00  0.00    -0.286 OA
ATOM      3  C   UNL     1      34.271 -16.630 -22.606  0.00  0.00    +0.074 C 
ATOM      4  C   UNL     1      34.357 -18.911 -21.542  0.00  0.00    +0.077 C 
ATOM      5  C   UNL     1      33.820 -17.262 -23.763  0.00  0.00    +0.151 C 
ATOM      6  C   UNL     1      34.580 -17.445 -21.416  0.00  0.00    +0.202 C 
ATOM      7  C   UNL     1      33.916 -19.366 -22.724  0.00  0.00    +0.183 C 
ATOM      8  C   UNL     1      34.432 -15.242 -22.579  0.00  0.00    +0.009 C 
ATOM      9  C   UNL     1      33.526 -16.511 -24.901  0.00  0.00    +0.074 C 
ATOM     10  C   UNL     1      33.686 -15.125 -24.878  0.00  0.00    +0.137 C 
ATOM     11  C   UNL     1      34.137 -14.492 -23.719  0.00  0.00    +0.037 C 
ENDROOT
BRANCH   4  12
ATOM     12  C   UNL     1      34.588 -19.835 -20.419  0.00  0.00    +0.006 C 
ATOM     13  C   UNL     1      35.882 -20.039 -19.935  0.00  0.00    +0.003 C 
ATOM     14  C   UNL     1      33.514 -20.506 -19.833  0.00  0.00    +0.003 C 
ATOM     15  C   UNL     1      36.101 -20.913 -18.870  0.00  0.00    +0.037 C 
ATOM     16  C   UNL     1      33.733 -21.380 -18.767  0.00  0.00    +0.037 C 
ATOM     17  C   UNL     1      35.026 -21.583 -18.287  0.00  0.00    +0.134 C 
BRANCH  17  18
ATOM     18  O   UNL     1      35.239 -22.436 -17.247  0.00  0.00    -0.506 OA
ATOM     19  H   UNL     1      35.136 -22.134 -16.366  0.00  0.00    +0.292 HD
ENDBRANCH  17  18
ENDBRANCH   4  12
BRANCH  10  20
ATOM     20  O   UNL     1      33.399 -14.389 -25.986  0.00  0.00    -0.505 OA
ATOM     21  H   UNL     1      33.765 -13.532 -26.087  0.00  0.00    +0.292 HD
ENDBRANCH  10  20
TORSDOF 3
ENDMDL
MODEL 2
REMARK VINA RESULT:     -11.3      1.368      7.105
REMARK  Name = 5281708
REMARK  3 active torsions:
REMARK  status: ('A' for Active; 'I' for Inactive)
REMARK    1  A    between atoms: C_4  and  C_12
REMARK    2  A    between atoms: C_10  and  O_20
REMARK    3  A    between atoms: C_17  and  O_18
REMARK                            x       y       z     vdW  Elec       q    Type
REMARK                         _______ _______ _______ _____ _____    ______ ____
ROOT
ATOM      1  O   UNL     1      36.374 -19.717 -19.757  0.00  0.00    -0.450 OA
ATOM      2  O   UNL     1      32.510 -19.780 -21.067  0.00  0.00    -0.286 OA
ATOM      3  C   UNL     1      34.115 -20.577 -19.539  0.00  0.00    +0.074 C 
ATOM      4  C   UNL     1      34.697 -18.865 -21.292  0.00  0.00    +0.077 C 
ATOM      5  C   UNL     1      35.450 -20.523 -19.142  0.00  0.00    +0.151 C 
ATOM      6  C   UNL     1      33.667 -19.740 -20.667  0.00  0.00    +0.202 C 
ATOM      7  C   UNL     1      35.940 -18.926 -20.793  0.00  0.00    +0.183 C 
ATOM      8  C   UNL     1      33.217 -21.419 -18.878  0.00  0.00    +0.009 C 
ATOM      9  C   UNL     1      35.896 -21.310 -18.081  0.00  0.00    +0.074 C 
ATOM     10  C   UNL     1      35.003 -22.152 -17.418  0.00  0.00    +0.137 C 
ATOM     11  C   UNL     1      33.666 -22.205 -17.815  0.00  0.00    +0.037 C 
ENDROOT
BRANCH   4  12
ATOM     12  C   UNL     1      34.375 -17.951 -22.401  0.00  0.00    +0.006 C 
ATOM     13  C   UNL     1      33.773 -18.441 -23.561  0.00  0.00    +0.003 C 
ATOM     14  C   UNL     1      34.668 -16.590 -22.294  0.00  0.00    +0.003 C 
ATOM     15  C   UNL     1      33.467 -17.575 -24.611  0.00  0.00    +0.037 C 
ATOM     16  C   UNL     1      34.362 -15.724 -23.343  0.00  0.00    +0.037 C 
ATOM     17  C   UNL     1      33.761 -16.216 -24.501  0.00  0.00    +0.134 C 
BRANCH  17  18
ATOM     18  O   UNL     1      33.462 -15.370 -25.525  0.00  0.00    -0.506 OA
ATOM     19  H   UNL     1      32.639 -15.443 -25.967  0.00  0.00    +0.292 HD
ENDBRANCH  17  18
ENDBRANCH   4  12
BRANCH  10  20
ATOM     20  O   UNL     1      35.434 -22.920 -16.380  0.00  0.00    -0.505 OA
ATOM     21  H   UNL     1      36.085 -22.592 -15.792  0.00  0.00    +0.292 HD
ENDBRANCH  10  20
TORSDOF 3
ENDMDL
MODEL 3
REMARK VINA RESULT:     -11.3      1.349      7.058
REMARK  Name = 5281708
REMARK  3 active torsions:
REMARK  status: ('A' for Active; 'I' for Inactive)
REMARK    1  A    between atoms: C_4  and  C_12
REMARK    2  A    between atoms: C_10  and  O_20
REMARK    3  A    between atoms: C_17  and  O_18
REMARK                            x       y       z     vdW  Elec       q    Type
REMARK                         _______ _______ _______ _____ _____    ______ ____
ROOT
ATOM      1  O   UNL     1      36.412 -19.633 -19.771  0.00  0.00    -0.450 OA
ATOM      2  O   UNL     1      32.555 -19.780 -21.095  0.00  0.00    -0.286 OA
ATOM      3  C   UNL     1      34.173 -20.545 -19.563  0.00  0.00    +0.074 C 
ATOM      4  C   UNL     1      34.722 -18.816 -21.310  0.00  0.00    +0.077 C 
ATOM      5  C   UNL     1      35.505 -20.461 -19.161  0.00  0.00    +0.151 C 
ATOM      6  C   UNL     1      33.710 -19.715 -20.691  0.00  0.00    +0.202 C 
ATOM      7  C   UNL     1      35.964 -18.849 -20.806  0.00  0.00    +0.183 C 
ATOM      8  C   UNL     1      33.292 -21.408 -18.907  0.00  0.00    +0.009 C 
ATOM      9  C   UNL     1      35.965 -21.241 -18.100  0.00  0.00    +0.074 C 
ATOM     10  C   UNL     1      35.089 -22.104 -17.442  0.00  0.00    +0.137 C 
ATOM     11  C   UNL     1      33.755 -22.187 -17.844  0.00  0.00    +0.037 C 
ENDROOT
BRANCH   4  12
ATOM     12  C   UNL     1      34.383 -17.906 -22.418  0.00  0.00    +0.006 C 
ATOM     13  C   UNL     1      34.669 -16.544 -22.317  0.00  0.00    +0.003 C 
ATOM     14  C   UNL     1      33.778 -18.405 -23.573  0.00  0.00    +0.003 C 
ATOM     15  C   UNL     1      34.350 -15.682 -23.367  0.00  0.00    +0.037 C 
ATOM     16  C   UNL     1      33.459 -17.543 -24.623  0.00  0.00    +0.037 C 
ATOM     17  C   UNL     1      33.745 -16.182 -24.520  0.00  0.00    +0.134 C 
BRANCH  17  18
ATOM     18  O   UNL     1      33.434 -15.342 -25.545  0.00  0.00    -0.506 OA
ATOM     19  H   UNL     1      32.599 -15.407 -25.965  0.00  0.00    +0.292 HD
ENDBRANCH  17  18
ENDBRANCH   4  12
BRANCH  10  20
ATOM     20  O   UNL     1      35.533 -22.865 -16.405  0.00  0.00    -0.505 OA
ATOM     21  H   UNL     1      34.946 -23.446 -15.964  0.00  0.00    +0.292 HD
ENDBRANCH  10  20
TORSDOF 3
ENDMDL
MODEL 4
REMARK VINA RESULT:     -11.0      1.203      1.566
REMARK  Name = 5281708
REMARK  3 active torsions:
REMARK  status: ('A' for Active; 'I' for Inactive)
REMARK    1  A    between atoms: C_4  and  C_12
REMARK    2  A    between atoms: C_10  and  O_20
REMARK    3  A    between atoms: C_17  and  O_18
REMARK                            x       y       z     vdW  Elec       q    Type
REMARK                         _______ _______ _______ _____ _____    ______ ____
ROOT
ATOM      1  O   UNL     1      33.773 -17.024 -24.475  0.00  0.00    -0.450 OA
ATOM      2  O   UNL     1      34.522 -15.812 -20.652  0.00  0.00    -0.286 OA
ATOM      3  C   UNL     1      33.871 -15.234 -22.840  0.00  0.00    +0.074 C 
ATOM      4  C   UNL     1      34.393 -17.614 -22.202  0.00  0.00    +0.077 C 
ATOM      5  C   UNL     1      33.639 -15.703 -24.132  0.00  0.00    +0.151 C 
ATOM      6  C   UNL     1      34.280 -16.188 -21.792  0.00  0.00    +0.202 C 
ATOM      7  C   UNL     1      34.133 -17.906 -23.485  0.00  0.00    +0.183 C 
ATOM      8  C   UNL     1      33.722 -13.876 -22.547  0.00  0.00    +0.009 C 
ATOM      9  C   UNL     1      33.257 -14.818 -25.139  0.00  0.00    +0.074 C 
ATOM     10  C   UNL     1      33.107 -13.461 -24.850  0.00  0.00    +0.137 C 
ATOM     11  C   UNL     1      33.338 -12.991 -23.557  0.00  0.00    +0.037 C 
ENDROOT
BRANCH   4  12
ATOM     12  C   UNL     1      34.754 -18.674 -21.247  0.00  0.00    +0.006 C 
ATOM     13  C   UNL     1      36.076 -18.813 -20.821  0.00  0.00    +0.003 C 
ATOM     14  C   UNL     1      33.774 -19.543 -20.762  0.00  0.00    +0.003 C 
ATOM     15  C   UNL     1      36.418 -19.817 -19.914  0.00  0.00    +0.037 C 
ATOM     16  C   UNL     1      34.116 -20.547 -19.856  0.00  0.00    +0.037 C 
ATOM     17  C   UNL     1      35.438 -20.683 -19.432  0.00  0.00    +0.134 C 
BRANCH  17  18
ATOM     18  O   UNL     1      35.770 -21.663 -18.547  0.00  0.00    -0.506 OA
ATOM     19  H   UNL     1      36.659 -21.757 -18.266  0.00  0.00    +0.292 HD
ENDBRANCH  17  18
ENDBRANCH   4  12
BRANCH  10  20
ATOM     20  O   UNL     1      32.732 -12.594 -25.830  0.00  0.00    -0.505 OA
ATOM     21  H   UNL     1      33.220 -12.549 -26.628  0.00  0.00    +0.292 HD
ENDBRANCH  10  20
TORSDOF 3
ENDMDL
MODEL 5
REMARK VINA RESULT:     -10.4      1.486      7.131
REMARK  Name = 5281708
REMARK  3 active torsions:
REMARK  status: ('A' for Active; 'I' for Inactive)
REMARK    1  A    between atoms: C_4  and  C_12
REMARK    2  A    between atoms: C_10  and  O_20
REMARK    3  A    between atoms: C_17  and  O_18
REMARK                            x       y       z     vdW  Elec       q    Type
REMARK                         _______ _______ _______ _____ _____    ______ ____
ROOT
ATOM      1  O   UNL     1      32.732 -21.012 -19.445  0.00  0.00    -0.450 OA
ATOM      2  O   UNL     1      36.336 -19.235 -20.156  0.00  0.00    -0.286 OA
ATOM      3  C   UNL     1      35.079 -20.762 -18.878  0.00  0.00    +0.074 C 
ATOM      4  C   UNL     1      34.053 -19.479 -20.787  0.00  0.00    +0.077 C 
ATOM      5  C   UNL     1      33.821 -21.329 -18.674  0.00  0.00    +0.151 C 
ATOM      6  C   UNL     1      35.255 -19.778 -19.962  0.00  0.00    +0.202 C 
ATOM      7  C   UNL     1      32.914 -20.110 -20.465  0.00  0.00    +0.183 C 
ATOM      8  C   UNL     1      36.153 -21.121 -18.060  0.00  0.00    +0.009 C 
ATOM      9  C   UNL     1      33.631 -22.258 -17.651  0.00  0.00    +0.074 C 
ATOM     10  C   UNL     1      34.701 -22.618 -16.833  0.00  0.00    +0.137 C 
ATOM     11  C   UNL     1      35.960 -22.052 -17.038  0.00  0.00    +0.037 C 
ENDROOT
BRANCH   4  12
ATOM     12  C   UNL     1      34.100 -18.546 -21.925  0.00  0.00    +0.006 C 
ATOM     13  C   UNL     1      33.644 -18.950 -23.181  0.00  0.00    +0.003 C 
ATOM     14  C   UNL     1      34.598 -17.253 -21.750  0.00  0.00    +0.003 C 
ATOM     15  C   UNL     1      33.687 -18.065 -24.259  0.00  0.00    +0.037 C 
ATOM     16  C   UNL     1      34.641 -16.369 -22.828  0.00  0.00    +0.037 C 
ATOM     17  C   UNL     1      34.186 -16.775 -24.082  0.00  0.00    +0.134 C 
BRANCH  17  18
ATOM     18  O   UNL     1      34.228 -15.911 -25.133  0.00  0.00    -0.506 OA
ATOM     19  H   UNL     1      33.581 -15.237 -25.212  0.00  0.00    +0.292 HD
ENDBRANCH  17  18
ENDBRANCH   4  12
BRANCH  10  20
ATOM     20  O   UNL     1      34.520 -23.526 -15.835  0.00  0.00    -0.505 OA
ATOM     21  H   UNL     1      34.401 -23.234 -14.952  0.00  0.00    +0.292 HD
ENDBRANCH  10  20
TORSDOF 3
ENDMDL
MODEL 6
REMARK VINA RESULT:     -10.2      3.591      8.179
REMARK  Name = 5281708
REMARK  3 active torsions:
REMARK  status: ('A' for Active; 'I' for Inactive)
REMARK    1  A    between atoms: C_4  and  C_12
REMARK    2  A    between atoms: C_10  and  O_20
REMARK    3  A    between atoms: C_17  and  O_18
REMARK                            x       y       z     vdW  Elec       q    Type
REMARK                         _______ _______ _______ _____ _____    ______ ____
ROOT
ATOM      1  O   UNL     1      34.194 -14.656 -20.626  0.00  0.00    -0.450 OA
ATOM      2  O   UNL     1      32.769 -13.765 -24.344  0.00  0.00    -0.286 OA
ATOM      3  C   UNL     1      33.819 -15.326 -22.928  0.00  0.00    +0.074 C 
ATOM      4  C   UNL     1      33.066 -13.076 -22.085  0.00  0.00    +0.077 C 
ATOM      5  C   UNL     1      34.297 -15.572 -21.642  0.00  0.00    +0.151 C 
ATOM      6  C   UNL     1      33.176 -14.032 -23.221  0.00  0.00    +0.202 C 
ATOM      7  C   UNL     1      33.574 -13.462 -20.905  0.00  0.00    +0.183 C 
ATOM      8  C   UNL     1      33.953 -16.296 -23.926  0.00  0.00    +0.009 C 
ATOM      9  C   UNL     1      34.913 -16.788 -21.345  0.00  0.00    +0.074 C 
ATOM     10  C   UNL     1      35.049 -17.757 -22.338  0.00  0.00    +0.137 C 
ATOM     11  C   UNL     1      34.569 -17.513 -23.626  0.00  0.00    +0.037 C 
ENDROOT
BRANCH   4  12
ATOM     12  C   UNL     1      32.412 -11.765 -22.229  0.00  0.00    +0.006 C 
ATOM     13  C   UNL     1      31.274 -11.463 -21.479  0.00  0.00    +0.003 C 
ATOM     14  C   UNL     1      32.930 -10.818 -23.115  0.00  0.00    +0.003 C 
ATOM     15  C   UNL     1      30.656 -10.220 -21.615  0.00  0.00    +0.037 C 
ATOM     16  C   UNL     1      32.311  -9.575 -23.251  0.00  0.00    +0.037 C 
ATOM     17  C   UNL     1      31.174  -9.276 -22.500  0.00  0.00    +0.134 C 
BRANCH  17  18
ATOM     18  O   UNL     1      30.571  -8.063 -22.633  0.00  0.00    -0.506 OA
ATOM     19  H   UNL     1      29.951  -7.922 -23.321  0.00  0.00    +0.292 HD
ENDBRANCH  17  18
ENDBRANCH   4  12
BRANCH  10  20
ATOM     20  O   UNL     1      35.647 -18.946 -22.052  0.00  0.00    -0.505 OA
ATOM     21  H   UNL     1      36.530 -18.962 -21.739  0.00  0.00    +0.292 HD
ENDBRANCH  10  20
TORSDOF 3
ENDMDL
MODEL 7
REMARK VINA RESULT:     -10.1      4.126      6.407
REMARK  Name = 5281708
REMARK  3 active torsions:
REMARK  status: ('A' for Active; 'I' for Inactive)
REMARK    1  A    between atoms: C_4  and  C_12
REMARK    2  A    between atoms: C_10  and  O_20
REMARK    3  A    between atoms: C_17  and  O_18
REMARK                            x       y       z     vdW  Elec       q    Type
REMARK                         _______ _______ _______ _____ _____    ______ ____
ROOT
ATOM      1  O   UNL     1      33.109 -11.219 -23.751  0.00  0.00    -0.450 OA
ATOM      2  O   UNL     1      32.127 -13.482 -20.501  0.00  0.00    -0.286 OA
ATOM      3  C   UNL     1      31.936 -11.428 -21.637  0.00  0.00    +0.074 C 
ATOM      4  C   UNL     1      33.255 -13.348 -22.593  0.00  0.00    +0.077 C 
ATOM      5  C   UNL     1      32.312 -10.698 -22.764  0.00  0.00    +0.151 C 
ATOM      6  C   UNL     1      32.410 -12.817 -21.489  0.00  0.00    +0.202 C 
ATOM      7  C   UNL     1      33.527 -12.520 -23.612  0.00  0.00    +0.183 C 
ATOM      8  C   UNL     1      31.123 -10.846 -20.661  0.00  0.00    +0.009 C 
ATOM      9  C   UNL     1      31.879  -9.382 -22.921  0.00  0.00    +0.074 C 
ATOM     10  C   UNL     1      31.067  -8.798 -21.948  0.00  0.00    +0.137 C 
ATOM     11  C   UNL     1      30.689  -9.528 -20.821  0.00  0.00    +0.037 C 
ENDROOT
BRANCH   4  12
ATOM     12  C   UNL     1      33.762 -14.731 -22.591  0.00  0.00    +0.006 C 
ATOM     13  C   UNL     1      33.797 -15.466 -23.777  0.00  0.00    +0.003 C 
ATOM     14  C   UNL     1      34.213 -15.309 -21.403  0.00  0.00    +0.003 C 
ATOM     15  C   UNL     1      34.279 -16.775 -23.775  0.00  0.00    +0.037 C 
ATOM     16  C   UNL     1      34.695 -16.618 -21.401  0.00  0.00    +0.037 C 
ATOM     17  C   UNL     1      34.728 -17.351 -22.587  0.00  0.00    +0.134 C 
BRANCH  17  18
ATOM     18  O   UNL     1      35.199 -18.628 -22.584  0.00  0.00    -0.506 OA
ATOM     19  H   UNL     1      34.977 -19.207 -21.882  0.00  0.00    +0.292 HD
ENDBRANCH  17  18
ENDBRANCH   4  12
BRANCH  10  20
ATOM     20  O   UNL     1      30.641  -7.514 -22.099  0.00  0.00    -0.505 OA
ATOM     21  H   UNL     1      30.899  -6.859 -21.481  0.00  0.00    +0.292 HD
ENDBRANCH  10  20
TORSDOF 3
ENDMDL
MODEL 8
REMARK VINA RESULT:      -9.8      3.871      8.200
REMARK  Name = 5281708
REMARK  3 active torsions:
REMARK  status: ('A' for Active; 'I' for Inactive)
REMARK    1  A    between atoms: C_4  and  C_12
REMARK    2  A    between atoms: C_10  and  O_20
REMARK    3  A    between atoms: C_17  and  O_18
REMARK                            x       y       z     vdW  Elec       q    Type
REMARK                         _______ _______ _______ _____ _____    ______ ____
ROOT
ATOM      1  O   UNL     1      33.321 -14.552 -24.322  0.00  0.00    -0.450 OA
ATOM      2  O   UNL     1      33.276 -13.134 -20.496  0.00  0.00    -0.286 OA
ATOM      3  C   UNL     1      33.837 -14.880 -21.974  0.00  0.00    +0.074 C 
ATOM      4  C   UNL     1      32.795 -12.739 -22.794  0.00  0.00    +0.077 C 
ATOM      5  C   UNL     1      33.817 -15.317 -23.297  0.00  0.00    +0.151 C 
ATOM      6  C   UNL     1      33.304 -13.544 -21.650  0.00  0.00    +0.202 C 
ATOM      7  C   UNL     1      32.846 -13.301 -24.011  0.00  0.00    +0.183 C 
ATOM      8  C   UNL     1      34.353 -15.703 -20.969  0.00  0.00    +0.009 C 
ATOM      9  C   UNL     1      34.312 -16.579 -23.625  0.00  0.00    +0.074 C 
ATOM     10  C   UNL     1      34.827 -17.403 -22.625  0.00  0.00    +0.137 C 
ATOM     11  C   UNL     1      34.849 -16.966 -21.300  0.00  0.00    +0.037 C 
ENDROOT
BRANCH   4  12
ATOM     12  C   UNL     1      32.271 -11.375 -22.617  0.00  0.00    +0.006 C 
ATOM     13  C   UNL     1      32.884 -10.300 -23.264  0.00  0.00    +0.003 C 
ATOM     14  C   UNL     1      31.159 -11.152 -21.803  0.00  0.00    +0.003 C 
ATOM     15  C   UNL     1      32.387  -9.007 -23.097  0.00  0.00    +0.037 C 
ATOM     16  C   UNL     1      30.663  -9.859 -21.636  0.00  0.00    +0.037 C 
ATOM     17  C   UNL     1      31.277  -8.787 -22.283  0.00  0.00    +0.134 C 
BRANCH  17  18
ATOM     18  O   UNL     1      30.791  -7.526 -22.120  0.00  0.00    -0.506 OA
ATOM     19  H   UNL     1      31.258  -6.910 -21.590  0.00  0.00    +0.292 HD
ENDBRANCH  17  18
ENDBRANCH   4  12
BRANCH  10  20
ATOM     20  O   UNL     1      35.312 -18.635 -22.941  0.00  0.00    -0.505 OA
ATOM     21  H   UNL     1      34.839 -19.404 -22.690  0.00  0.00    +0.292 HD
ENDBRANCH  10  20
TORSDOF 3
ENDMDL
MODEL 9
REMARK VINA RESULT:      -9.7      3.076      8.902
REMARK  Name = 5281708
REMARK  3 active torsions:
REMARK  status: ('A' for Active; 'I' for Inactive)
REMARK    1  A    between atoms: C_4  and  C_12
REMARK    2  A    between atoms: C_10  and  O_20
REMARK    3  A    between atoms: C_17  and  O_18
REMARK                            x       y       z     vdW  Elec       q    Type
REMARK                         _______ _______ _______ _____ _____    ______ ____
ROOT
ATOM      1  O   UNL     1      33.575 -23.539 -16.358  0.00  0.00    -0.450 OA
ATOM      2  O   UNL     1      36.644 -20.953 -17.098  0.00  0.00    -0.286 OA
ATOM      3  C   UNL     1      35.747 -22.653 -15.736  0.00  0.00    +0.074 C 
ATOM      4  C   UNL     1      34.535 -21.822 -17.782  0.00  0.00    +0.077 C 
ATOM      5  C   UNL     1      34.665 -23.507 -15.527  0.00  0.00    +0.151 C 
ATOM      6  C   UNL     1      35.727 -21.740 -16.894  0.00  0.00    +0.202 C 
ATOM      7  C   UNL     1      33.578 -22.699 -17.445  0.00  0.00    +0.183 C 
ATOM      8  C   UNL     1      36.832 -22.661 -14.855  0.00  0.00    +0.009 C 
ATOM      9  C   UNL     1      34.661 -24.375 -14.435  0.00  0.00    +0.074 C 
ATOM     10  C   UNL     1      35.742 -24.386 -13.554  0.00  0.00    +0.137 C 
ATOM     11  C   UNL     1      36.826 -23.532 -13.764  0.00  0.00    +0.037 C 
ENDROOT
BRANCH   4  12
ATOM     12  C   UNL     1      34.406 -20.995 -18.993  0.00  0.00    +0.006 C 
ATOM     13  C   UNL     1      33.142 -20.678 -19.493  0.00  0.00    +0.003 C 
ATOM     14  C   UNL     1      35.547 -20.523 -19.644  0.00  0.00    +0.003 C 
ATOM     15  C   UNL     1      33.019 -19.894 -20.640  0.00  0.00    +0.037 C 
ATOM     16  C   UNL     1      35.425 -19.738 -20.791  0.00  0.00    +0.037 C 
ATOM     17  C   UNL     1      34.161 -19.424 -21.289  0.00  0.00    +0.134 C 
BRANCH  17  18
ATOM     18  O   UNL     1      34.042 -18.658 -22.407  0.00  0.00    -0.506 OA
ATOM     19  H   UNL     1      34.701 -18.697 -23.073  0.00  0.00    +0.292 HD
ENDBRANCH  17  18
ENDBRANCH   4  12
BRANCH  10  20
ATOM     20  O   UNL     1      35.743 -25.233 -12.488  0.00  0.00    -0.505 OA
ATOM     21  H   UNL     1      36.554 -25.537 -12.131  0.00  0.00    +0.292 HD
ENDBRANCH  10  20
TORSDOF 3
ENDMDL
