MODEL 1
REMARK VINA RESULT:     -11.9      0.000      0.000
REMARK  Name = 9604654
REMARK  6 active torsions:
REMARK  status: ('A' for Active; 'I' for Inactive)
REMARK    1  A    between atoms: O_1  and  C_2
REMARK    2  A    between atoms: O_1  and  C_17
REMARK    3  A    between atoms: C_2  and  P_3
REMARK    4  A    between atoms: C_7  and  C_11
REMARK    5  A    between atoms: C_17  and  C_18
REMARK    6  A    between atoms: C_18  and  N_19
REMARK                            x       y       z     vdW  Elec       q    Type
REMARK                         _______ _______ _______ _____ _____    ______ ____
ROOT
ATOM      1  O   UNL     1      34.148 -20.240 -19.622  0.00  0.00    -0.340 OA
ENDROOT
BRANCH   1   2
ATOM      2  C   UNL     1      33.846 -19.324 -20.664  0.00  0.00    +0.258 C 
BRANCH   2   3
ATOM      3  P   UNL     1      35.374 -18.446 -20.924  0.00  0.00    +0.373 P 
ATOM      4  O   UNL     1      34.971 -16.881 -20.883  0.00  0.00    -0.290 OA
ATOM      5  O   UNL     1      35.766 -18.722 -22.466  0.00  0.00    -0.292 OA
ATOM      6  O   UNL     1      36.443 -18.826 -19.941  0.00  0.00    -0.255 OA
ATOM      7  C   UNL     1      34.804 -16.153 -22.099  0.00  0.00    +0.149 C 
ATOM      8  C   UNL     1      34.125 -17.014 -23.165  0.00  0.00    +0.067 C 
ATOM      9  C   UNL     1      34.958 -18.242 -23.530  0.00  0.00    +0.154 C 
BRANCH   7  11
ATOM     10 CL   UNL     1      32.879 -11.597 -23.760  0.00  0.00    -0.082 Cl
ATOM     11  C   UNL     1      34.013 -14.899 -21.806  0.00  0.00    +0.006 C 
ATOM     12  C   UNL     1      33.832 -13.937 -22.803  0.00  0.00    +0.009 C 
ATOM     13  C   UNL     1      33.460 -14.701 -20.540  0.00  0.00    -0.002 C 
ATOM     14  C   UNL     1      33.101 -12.781 -22.532  0.00  0.00    +0.057 C 
ATOM     15  C   UNL     1      32.729 -13.544 -20.269  0.00  0.00    +0.001 C 
ATOM     16  C   UNL     1      32.550 -12.584 -21.265  0.00  0.00    +0.011 C 
ENDBRANCH   7  11
ENDBRANCH   2   3
ENDBRANCH   1   2
BRANCH   1  17
ATOM     17  C   UNL     1      32.991 -20.947 -19.198  0.00  0.00    +0.164 C 
BRANCH  17  18
ATOM     18  C   UNL     1      33.372 -22.370 -18.815  0.00  0.00    +0.126 C 
BRANCH  18  19
ATOM     19  N   UNL     1      33.589 -22.526 -17.378  0.00  0.00    -0.269 N 
ATOM     20  N   UNL     1      33.136 -22.948 -15.254  0.00  0.00    -0.242 NA
ATOM     21  N   UNL     1      35.942 -21.957 -17.223  0.00  0.00    -0.228 NA
ATOM     22  N   UNL     1      36.720 -22.099 -14.914  0.00  0.00    -0.229 NA
ATOM     23  C   UNL     1      34.756 -22.329 -16.719  0.00  0.00    +0.151 C 
ATOM     24  C   UNL     1      34.456 -22.598 -15.393  0.00  0.00    +0.140 C 
ATOM     25  C   UNL     1      32.643 -22.893 -16.474  0.00  0.00    +0.221 C 
ATOM     26  C   UNL     1      35.493 -22.471 -14.475  0.00  0.00    +0.143 C 
ATOM     27  C   UNL     1      36.865 -21.869 -16.242  0.00  0.00    +0.253 C 
ATOM     28  N   UNL     1      35.279 -22.727 -13.110  0.00  0.00    -0.342 N 
ATOM     29  H   UNL     1      36.022 -22.634 -12.469  0.00  0.00    +0.144 HD
ATOM     30  H   UNL     1      34.387 -22.997 -12.793  0.00  0.00    +0.144 HD
ENDBRANCH  18  19
ENDBRANCH  17  18
ENDBRANCH   1  17
TORSDOF 6
ENDMDL
MODEL 2
REMARK VINA RESULT:     -11.5      1.246      2.421
REMARK  Name = 9604654
REMARK  6 active torsions:
REMARK  status: ('A' for Active; 'I' for Inactive)
REMARK    1  A    between atoms: O_1  and  C_2
REMARK    2  A    between atoms: O_1  and  C_17
REMARK    3  A    between atoms: C_2  and  P_3
REMARK    4  A    between atoms: C_7  and  C_11
REMARK    5  A    between atoms: C_17  and  C_18
REMARK    6  A    between atoms: C_18  and  N_19
REMARK                            x       y       z     vdW  Elec       q    Type
REMARK                         _______ _______ _______ _____ _____    ______ ____
ROOT
ATOM      1  O   UNL     1      34.139 -20.596 -19.982  0.00  0.00    -0.340 OA
ENDROOT
BRANCH   1   2
ATOM      2  C   UNL     1      33.784 -19.368 -20.599  0.00  0.00    +0.258 C 
BRANCH   2   3
ATOM      3  P   UNL     1      35.347 -18.563 -20.889  0.00  0.00    +0.373 P 
ATOM      4  O   UNL     1      35.008 -16.982 -20.906  0.00  0.00    -0.290 OA
ATOM      5  O   UNL     1      35.727 -18.910 -22.419  0.00  0.00    -0.292 OA
ATOM      6  O   UNL     1      36.399 -18.950 -19.891  0.00  0.00    -0.255 OA
ATOM      7  C   UNL     1      34.871 -16.293 -22.148  0.00  0.00    +0.149 C 
ATOM      8  C   UNL     1      34.158 -17.164 -23.183  0.00  0.00    +0.067 C 
ATOM      9  C   UNL     1      34.940 -18.437 -23.502  0.00  0.00    +0.154 C 
BRANCH   7  11
ATOM     10 CL   UNL     1      33.015 -11.786 -24.012  0.00  0.00    -0.082 Cl
ATOM     11  C   UNL     1      34.132 -14.997 -21.903  0.00  0.00    +0.006 C 
ATOM     12  C   UNL     1      33.937 -14.093 -22.949  0.00  0.00    +0.009 C 
ATOM     13  C   UNL     1      33.640 -14.704 -20.630  0.00  0.00    -0.002 C 
ATOM     14  C   UNL     1      33.254 -12.899 -22.722  0.00  0.00    +0.057 C 
ATOM     15  C   UNL     1      32.957 -13.509 -20.403  0.00  0.00    +0.001 C 
ATOM     16  C   UNL     1      32.764 -12.607 -21.449  0.00  0.00    +0.011 C 
ENDBRANCH   7  11
ENDBRANCH   2   3
ENDBRANCH   1   2
BRANCH   1  17
ATOM     17  C   UNL     1      33.062 -21.128 -19.224  0.00  0.00    +0.164 C 
BRANCH  17  18
ATOM     18  C   UNL     1      33.463 -22.475 -18.639  0.00  0.00    +0.126 C 
BRANCH  18  19
ATOM     19  N   UNL     1      33.280 -22.535 -17.190  0.00  0.00    -0.269 N 
ATOM     20  N   UNL     1      33.804 -22.648 -15.044  0.00  0.00    -0.242 NA
ATOM     21  N   UNL     1      30.859 -22.474 -17.050  0.00  0.00    -0.228 NA
ATOM     22  N   UNL     1      30.121 -22.558 -14.725  0.00  0.00    -0.229 NA
ATOM     23  C   UNL     1      32.095 -22.532 -16.533  0.00  0.00    +0.151 C 
ATOM     24  C   UNL     1      32.441 -22.602 -15.193  0.00  0.00    +0.140 C 
ATOM     25  C   UNL     1      34.279 -22.606 -16.272  0.00  0.00    +0.221 C 
ATOM     26  C   UNL     1      31.397 -22.615 -14.273  0.00  0.00    +0.143 C 
ATOM     27  C   UNL     1      29.935 -22.492 -16.066  0.00  0.00    +0.253 C 
ATOM     28  N   UNL     1      31.656 -22.682 -12.894  0.00  0.00    -0.342 N 
ATOM     29  H   UNL     1      30.909 -22.690 -12.253  0.00  0.00    +0.144 HD
ATOM     30  H   UNL     1      32.584 -22.723 -12.568  0.00  0.00    +0.144 HD
ENDBRANCH  18  19
ENDBRANCH  17  18
ENDBRANCH   1  17
TORSDOF 6
ENDMDL
MODEL 3
REMARK VINA RESULT:     -11.0      6.371     10.159
REMARK  Name = 9604654
REMARK  6 active torsions:
REMARK  status: ('A' for Active; 'I' for Inactive)
REMARK    1  A    between atoms: O_1  and  C_2
REMARK    2  A    between atoms: O_1  and  C_17
REMARK    3  A    between atoms: C_2  and  P_3
REMARK    4  A    between atoms: C_7  and  C_11
REMARK    5  A    between atoms: C_17  and  C_18
REMARK    6  A    between atoms: C_18  and  N_19
REMARK                            x       y       z     vdW  Elec       q    Type
REMARK                         _______ _______ _______ _____ _____    ______ ____
ROOT
ATOM      1  O   UNL     1      34.799 -15.648 -22.129  0.00  0.00    -0.340 OA
ENDROOT
BRANCH   1   2
ATOM      2  C   UNL     1      34.195 -16.679 -21.361  0.00  0.00    +0.258 C 
BRANCH   2   3
ATOM      3  P   UNL     1      34.452 -18.149 -22.335  0.00  0.00    +0.373 P 
ATOM      4  O   UNL     1      34.160 -19.377 -21.325  0.00  0.00    -0.290 OA
ATOM      5  O   UNL     1      36.043 -18.212 -22.598  0.00  0.00    -0.292 OA
ATOM      6  O   UNL     1      33.620 -18.177 -23.584  0.00  0.00    -0.255 OA
ATOM      7  C   UNL     1      35.245 -20.071 -20.710  0.00  0.00    +0.149 C 
ATOM      8  C   UNL     1      36.363 -19.104 -20.319  0.00  0.00    +0.067 C 
ATOM      9  C   UNL     1      36.962 -18.394 -21.531  0.00  0.00    +0.154 C 
BRANCH   7  11
ATOM     10 CL   UNL     1      36.164 -22.360 -16.112  0.00  0.00    -0.082 Cl
ATOM     11  C   UNL     1      34.718 -20.830 -19.514  0.00  0.00    +0.006 C 
ATOM     12  C   UNL     1      35.584 -21.202 -18.484  0.00  0.00    +0.009 C 
ATOM     13  C   UNL     1      33.364 -21.159 -19.437  0.00  0.00    -0.002 C 
ATOM     14  C   UNL     1      35.096 -21.901 -17.380  0.00  0.00    +0.057 C 
ATOM     15  C   UNL     1      32.875 -21.859 -18.334  0.00  0.00    +0.001 C 
ATOM     16  C   UNL     1      33.742 -22.230 -17.305  0.00  0.00    +0.011 C 
ENDBRANCH   7  11
ENDBRANCH   2   3
ENDBRANCH   1   2
BRANCH   1  17
ATOM     17  C   UNL     1      33.826 -14.875 -22.818  0.00  0.00    +0.164 C 
BRANCH  17  18
ATOM     18  C   UNL     1      33.160 -13.908 -21.849  0.00  0.00    +0.126 C 
BRANCH  18  19
ATOM     19  N   UNL     1      32.903 -12.601 -22.449  0.00  0.00    -0.269 N 
ATOM     20  N   UNL     1      32.981 -10.953 -23.922  0.00  0.00    -0.242 NA
ATOM     21  N   UNL     1      31.504 -11.599 -20.739  0.00  0.00    -0.228 NA
ATOM     22  N   UNL     1      30.841  -9.338 -21.375  0.00  0.00    -0.229 NA
ATOM     23  C   UNL     1      32.158 -11.606 -21.911  0.00  0.00    +0.151 C 
ATOM     24  C   UNL     1      32.216 -10.584 -22.844  0.00  0.00    +0.140 C 
ATOM     25  C   UNL     1      33.380 -12.177 -23.649  0.00  0.00    +0.221 C 
ATOM     26  C   UNL     1      31.523  -9.416 -22.543  0.00  0.00    +0.143 C 
ATOM     27  C   UNL     1      30.873 -10.419 -20.558  0.00  0.00    +0.253 C 
ATOM     28  N   UNL     1      31.525  -8.329 -23.434  0.00  0.00    -0.342 N 
ATOM     29  H   UNL     1      31.031  -7.507 -23.209  0.00  0.00    +0.144 HD
ATOM     30  H   UNL     1      32.022  -8.388 -24.282  0.00  0.00    +0.144 HD
ENDBRANCH  18  19
ENDBRANCH  17  18
ENDBRANCH   1  17
TORSDOF 6
ENDMDL
MODEL 4
REMARK VINA RESULT:     -10.9      1.385      2.277
REMARK  Name = 9604654
REMARK  6 active torsions:
REMARK  status: ('A' for Active; 'I' for Inactive)
REMARK    1  A    between atoms: O_1  and  C_2
REMARK    2  A    between atoms: O_1  and  C_17
REMARK    3  A    between atoms: C_2  and  P_3
REMARK    4  A    between atoms: C_7  and  C_11
REMARK    5  A    between atoms: C_17  and  C_18
REMARK    6  A    between atoms: C_18  and  N_19
REMARK                            x       y       z     vdW  Elec       q    Type
REMARK                         _______ _______ _______ _____ _____    ______ ____
ROOT
ATOM      1  O   UNL     1      35.487 -19.745 -19.863  0.00  0.00    -0.340 OA
ENDROOT
BRANCH   1   2
ATOM      2  C   UNL     1      34.676 -19.019 -20.776  0.00  0.00    +0.258 C 
BRANCH   2   3
ATOM      3  P   UNL     1      35.844 -18.071 -21.731  0.00  0.00    +0.373 P 
ATOM      4  O   UNL     1      35.334 -16.541 -21.618  0.00  0.00    -0.290 OA
ATOM      5  O   UNL     1      35.565 -18.477 -23.268  0.00  0.00    -0.292 OA
ATOM      6  O   UNL     1      37.264 -18.274 -21.289  0.00  0.00    -0.255 OA
ATOM      7  C   UNL     1      34.586 -15.956 -22.683  0.00  0.00    +0.149 C 
ATOM      8  C   UNL     1      33.612 -16.967 -23.290  0.00  0.00    +0.067 C 
ATOM      9  C   UNL     1      34.334 -18.166 -23.903  0.00  0.00    +0.154 C 
BRANCH   7  11
ATOM     10 CL   UNL     1      32.714 -11.160 -23.534  0.00  0.00    -0.082 Cl
ATOM     11  C   UNL     1      33.868 -14.734 -22.156  0.00  0.00    +0.006 C 
ATOM     12  C   UNL     1      33.648 -13.637 -22.991  0.00  0.00    +0.009 C 
ATOM     13  C   UNL     1      33.422 -14.703 -20.834  0.00  0.00    -0.002 C 
ATOM     14  C   UNL     1      32.984 -12.512 -22.504  0.00  0.00    +0.057 C 
ATOM     15  C   UNL     1      32.759 -13.577 -20.347  0.00  0.00    +0.001 C 
ATOM     16  C   UNL     1      32.540 -12.481 -21.182  0.00  0.00    +0.011 C 
ENDBRANCH   7  11
ENDBRANCH   2   3
ENDBRANCH   1   2
BRANCH   1  17
ATOM     17  C   UNL     1      35.160 -21.127 -19.861  0.00  0.00    +0.164 C 
BRANCH  17  18
ATOM     18  C   UNL     1      35.127 -21.644 -18.429  0.00  0.00    +0.126 C 
BRANCH  18  19
ATOM     19  N   UNL     1      33.769 -21.908 -17.959  0.00  0.00    -0.269 N 
ATOM     20  N   UNL     1      31.557 -21.923 -17.937  0.00  0.00    -0.242 NA
ATOM     21  N   UNL     1      34.239 -23.062 -15.878  0.00  0.00    -0.228 NA
ATOM     22  N   UNL     1      32.170 -23.693 -14.748  0.00  0.00    -0.229 NA
ATOM     23  C   UNL     1      33.428 -22.544 -16.813  0.00  0.00    +0.151 C 
ATOM     24  C   UNL     1      32.043 -22.546 -16.815  0.00  0.00    +0.140 C 
ATOM     25  C   UNL     1      32.628 -21.549 -18.605  0.00  0.00    +0.221 C 
ATOM     26  C   UNL     1      31.413 -23.149 -15.731  0.00  0.00    +0.143 C 
ATOM     27  C   UNL     1      33.517 -23.617 -14.882  0.00  0.00    +0.253 C 
ATOM     28  N   UNL     1      30.010 -23.198 -15.651  0.00  0.00    -0.342 N 
ATOM     29  H   UNL     1      29.576 -23.628 -14.879  0.00  0.00    +0.144 HD
ATOM     30  H   UNL     1      29.462 -22.803 -16.367  0.00  0.00    +0.144 HD
ENDBRANCH  18  19
ENDBRANCH  17  18
ENDBRANCH   1  17
TORSDOF 6
ENDMDL
MODEL 5
REMARK VINA RESULT:     -10.9      6.118      9.776
REMARK  Name = 9604654
REMARK  6 active torsions:
REMARK  status: ('A' for Active; 'I' for Inactive)
REMARK    1  A    between atoms: O_1  and  C_2
REMARK    2  A    between atoms: O_1  and  C_17
REMARK    3  A    between atoms: C_2  and  P_3
REMARK    4  A    between atoms: C_7  and  C_11
REMARK    5  A    between atoms: C_17  and  C_18
REMARK    6  A    between atoms: C_18  and  N_19
REMARK                            x       y       z     vdW  Elec       q    Type
REMARK                         _______ _______ _______ _____ _____    ______ ____
ROOT
ATOM      1  O   UNL     1      34.628 -15.629 -22.468  0.00  0.00    -0.340 OA
ENDROOT
BRANCH   1   2
ATOM      2  C   UNL     1      34.165 -16.667 -21.618  0.00  0.00    +0.258 C 
BRANCH   2   3
ATOM      3  P   UNL     1      34.462 -18.155 -22.552  0.00  0.00    +0.373 P 
ATOM      4  O   UNL     1      34.178 -19.364 -21.517  0.00  0.00    -0.290 OA
ATOM      5  O   UNL     1      36.058 -18.196 -22.790  0.00  0.00    -0.292 OA
ATOM      6  O   UNL     1      33.650 -18.228 -23.812  0.00  0.00    -0.255 OA
ATOM      7  C   UNL     1      35.265 -20.023 -20.869  0.00  0.00    +0.149 C 
ATOM      8  C   UNL     1      36.360 -19.027 -20.485  0.00  0.00    +0.067 C 
ATOM      9  C   UNL     1      36.964 -18.335 -21.705  0.00  0.00    +0.154 C 
BRANCH   7  11
ATOM     10 CL   UNL     1      36.156 -22.193 -16.208  0.00  0.00    -0.082 Cl
ATOM     11  C   UNL     1      34.733 -20.763 -19.663  0.00  0.00    +0.006 C 
ATOM     12  C   UNL     1      35.591 -21.099 -18.613  0.00  0.00    +0.009 C 
ATOM     13  C   UNL     1      33.383 -21.110 -19.596  0.00  0.00    -0.002 C 
ATOM     14  C   UNL     1      35.099 -21.780 -17.501  0.00  0.00    +0.057 C 
ATOM     15  C   UNL     1      32.891 -21.792 -18.483  0.00  0.00    +0.001 C 
ATOM     16  C   UNL     1      33.749 -22.127 -17.436  0.00  0.00    +0.011 C 
ENDBRANCH   7  11
ENDBRANCH   2   3
ENDBRANCH   1   2
BRANCH   1  17
ATOM     17  C   UNL     1      33.554 -14.999 -23.153  0.00  0.00    +0.164 C 
BRANCH  17  18
ATOM     18  C   UNL     1      33.775 -13.493 -23.176  0.00  0.00    +0.126 C 
BRANCH  18  19
ATOM     19  N   UNL     1      32.943 -12.789 -22.203  0.00  0.00    -0.269 N 
ATOM     20  N   UNL     1      31.804 -12.419 -20.343  0.00  0.00    -0.242 NA
ATOM     21  N   UNL     1      32.579 -10.693 -23.368  0.00  0.00    -0.228 NA
ATOM     22  N   UNL     1      31.192  -9.189 -22.037  0.00  0.00    -0.229 NA
ATOM     23  C   UNL     1      32.436 -11.540 -22.338  0.00  0.00    +0.151 C 
ATOM     24  C   UNL     1      31.727 -11.324 -21.167  0.00  0.00    +0.140 C 
ATOM     25  C   UNL     1      32.546 -13.285 -21.001  0.00  0.00    +0.221 C 
ATOM     26  C   UNL     1      31.090 -10.095 -21.035  0.00  0.00    +0.143 C 
ATOM     27  C   UNL     1      31.920  -9.539 -23.125  0.00  0.00    +0.253 C 
ATOM     28  N   UNL     1      30.351  -9.789 -19.879  0.00  0.00    -0.342 N 
ATOM     29  H   UNL     1      29.904  -8.915 -19.797  0.00  0.00    +0.144 HD
ATOM     30  H   UNL     1      30.278 -10.449 -19.152  0.00  0.00    +0.144 HD
ENDBRANCH  18  19
ENDBRANCH  17  18
ENDBRANCH   1  17
TORSDOF 6
ENDMDL
MODEL 6
REMARK VINA RESULT:     -10.6      1.218      2.097
REMARK  Name = 9604654
REMARK  6 active torsions:
REMARK  status: ('A' for Active; 'I' for Inactive)
REMARK    1  A    between atoms: O_1  and  C_2
REMARK    2  A    between atoms: O_1  and  C_17
REMARK    3  A    between atoms: C_2  and  P_3
REMARK    4  A    between atoms: C_7  and  C_11
REMARK    5  A    between atoms: C_17  and  C_18
REMARK    6  A    between atoms: C_18  and  N_19
REMARK                            x       y       z     vdW  Elec       q    Type
REMARK                         _______ _______ _______ _____ _____    ______ ____
ROOT
ATOM      1  O   UNL     1      34.415 -19.798 -19.605  0.00  0.00    -0.340 OA
ENDROOT
BRANCH   1   2
ATOM      2  C   UNL     1      33.976 -19.065 -20.740  0.00  0.00    +0.258 C 
BRANCH   2   3
ATOM      3  P   UNL     1      35.441 -18.219 -21.300  0.00  0.00    +0.373 P 
ATOM      4  O   UNL     1      34.966 -16.699 -21.580  0.00  0.00    -0.290 OA
ATOM      5  O   UNL     1      35.746 -18.823 -22.765  0.00  0.00    -0.292 OA
ATOM      6  O   UNL     1      36.587 -18.331 -20.337  0.00  0.00    -0.255 OA
ATOM      7  C   UNL     1      34.686 -16.271 -22.912  0.00  0.00    +0.149 C 
ATOM      8  C   UNL     1      33.984 -17.373 -23.707  0.00  0.00    +0.067 C 
ATOM      9  C   UNL     1      34.851 -18.623 -23.848  0.00  0.00    +0.154 C 
BRANCH   7  11
ATOM     10 CL   UNL     1      32.314 -12.620 -20.036  0.00  0.00    -0.082 Cl
ATOM     11  C   UNL     1      33.856 -15.010 -22.851  0.00  0.00    +0.006 C 
ATOM     12  C   UNL     1      33.508 -14.460 -21.615  0.00  0.00    +0.009 C 
ATOM     13  C   UNL     1      33.438 -14.390 -24.029  0.00  0.00    -0.002 C 
ATOM     14  C   UNL     1      32.743 -13.296 -21.559  0.00  0.00    +0.057 C 
ATOM     15  C   UNL     1      32.673 -13.225 -23.974  0.00  0.00    +0.001 C 
ATOM     16  C   UNL     1      32.325 -12.678 -22.738  0.00  0.00    +0.011 C 
ENDBRANCH   7  11
ENDBRANCH   2   3
ENDBRANCH   1   2
BRANCH   1  17
ATOM     17  C   UNL     1      34.335 -21.199 -19.828  0.00  0.00    +0.164 C 
BRANCH  17  18
ATOM     18  C   UNL     1      33.742 -21.879 -18.602  0.00  0.00    +0.126 C 
BRANCH  18  19
ATOM     19  N   UNL     1      34.694 -21.977 -17.498  0.00  0.00    -0.269 N 
ATOM     20  N   UNL     1      36.601 -21.792 -16.393  0.00  0.00    -0.242 NA
ATOM     21  N   UNL     1      33.291 -22.980 -15.793  0.00  0.00    -0.228 NA
ATOM     22  N   UNL     1      34.544 -23.320 -13.727  0.00  0.00    -0.229 NA
ATOM     23  C   UNL     1      34.441 -22.477 -16.265  0.00  0.00    +0.151 C 
ATOM     24  C   UNL     1      35.643 -22.353 -15.587  0.00  0.00    +0.140 C 
ATOM     25  C   UNL     1      35.993 -21.578 -17.541  0.00  0.00    +0.221 C 
ATOM     26  C   UNL     1      35.671 -22.799 -14.269  0.00  0.00    +0.143 C 
ATOM     27  C   UNL     1      33.440 -23.377 -14.511  0.00  0.00    +0.253 C 
ATOM     28  N   UNL     1      36.847 -22.710 -13.505  0.00  0.00    -0.342 N 
ATOM     29  H   UNL     1      36.854 -23.028 -12.573  0.00  0.00    +0.144 HD
ATOM     30  H   UNL     1      37.664 -22.331 -13.902  0.00  0.00    +0.144 HD
ENDBRANCH  18  19
ENDBRANCH  17  18
ENDBRANCH   1  17
TORSDOF 6
ENDMDL
MODEL 7
REMARK VINA RESULT:     -10.5      7.600     10.561
REMARK  Name = 9604654
REMARK  6 active torsions:
REMARK  status: ('A' for Active; 'I' for Inactive)
REMARK    1  A    between atoms: O_1  and  C_2
REMARK    2  A    between atoms: O_1  and  C_17
REMARK    3  A    between atoms: C_2  and  P_3
REMARK    4  A    between atoms: C_7  and  C_11
REMARK    5  A    between atoms: C_17  and  C_18
REMARK    6  A    between atoms: C_18  and  N_19
REMARK                            x       y       z     vdW  Elec       q    Type
REMARK                         _______ _______ _______ _____ _____    ______ ____
ROOT
ATOM      1  O   UNL     1      31.562 -10.265 -23.035  0.00  0.00    -0.340 OA
ENDROOT
BRANCH   1   2
ATOM      2  C   UNL     1      32.460  -9.171 -22.924  0.00  0.00    +0.258 C 
BRANCH   2   3
ATOM      3  P   UNL     1      31.398  -7.740 -22.931  0.00  0.00    +0.373 P 
ATOM      4  O   UNL     1      31.883  -6.864 -24.200  0.00  0.00    -0.290 OA
ATOM      5  O   UNL     1      31.847  -6.871 -21.646  0.00  0.00    -0.292 OA
ATOM      6  O   UNL     1      29.939  -8.093 -22.955  0.00  0.00    -0.255 OA
ATOM      7  C   UNL     1      32.740  -5.739 -24.008  0.00  0.00    +0.149 C 
ATOM      8  C   UNL     1      33.781  -6.021 -22.924  0.00  0.00    +0.067 C 
ATOM      9  C   UNL     1      33.139  -6.287 -21.564  0.00  0.00    +0.154 C 
BRANCH   7  11
ATOM     10 CL   UNL     1      36.789  -3.718 -26.606  0.00  0.00    -0.082 Cl
ATOM     11  C   UNL     1      33.387  -5.393 -25.329  0.00  0.00    +0.006 C 
ATOM     12  C   UNL     1      34.644  -4.785 -25.355  0.00  0.00    +0.009 C 
ATOM     13  C   UNL     1      32.731  -5.684 -26.526  0.00  0.00    -0.002 C 
ATOM     14  C   UNL     1      35.241  -4.468 -26.575  0.00  0.00    +0.057 C 
ATOM     15  C   UNL     1      33.328  -5.367 -27.746  0.00  0.00    +0.001 C 
ATOM     16  C   UNL     1      34.583  -4.758 -27.771  0.00  0.00    +0.011 C 
ENDBRANCH   7  11
ENDBRANCH   2   3
ENDBRANCH   1   2
BRANCH   1  17
ATOM     17  C   UNL     1      31.985 -11.368 -22.245  0.00  0.00    +0.164 C 
BRANCH  17  18
ATOM     18  C   UNL     1      33.020 -12.180 -23.010  0.00  0.00    +0.126 C 
BRANCH  18  19
ATOM     19  N   UNL     1      33.499 -13.334 -22.253  0.00  0.00    -0.269 N 
ATOM     20  N   UNL     1      34.130 -14.547 -20.514  0.00  0.00    -0.242 NA
ATOM     21  N   UNL     1      33.786 -14.946 -24.043  0.00  0.00    -0.228 NA
ATOM     22  N   UNL     1      34.599 -17.076 -23.171  0.00  0.00    -0.229 NA
ATOM     23  C   UNL     1      33.827 -14.545 -22.763  0.00  0.00    +0.151 C 
ATOM     24  C   UNL     1      34.218 -15.292 -21.663  0.00  0.00    +0.140 C 
ATOM     25  C   UNL     1      33.693 -13.369 -20.908  0.00  0.00    +0.221 C 
ATOM     26  C   UNL     1      34.615 -16.604 -21.901  0.00  0.00    +0.143 C 
ATOM     27  C   UNL     1      34.192 -16.230 -24.148  0.00  0.00    +0.253 C 
ATOM     28  N   UNL     1      35.026 -17.434 -20.844  0.00  0.00    -0.342 N 
ATOM     29  H   UNL     1      35.304 -18.360 -21.025  0.00  0.00    +0.144 HD
ATOM     30  H   UNL     1      35.036 -17.088 -19.922  0.00  0.00    +0.144 HD
ENDBRANCH  18  19
ENDBRANCH  17  18
ENDBRANCH   1  17
TORSDOF 6
ENDMDL
MODEL 8
REMARK VINA RESULT:     -10.4      6.241      9.506
REMARK  Name = 9604654
REMARK  6 active torsions:
REMARK  status: ('A' for Active; 'I' for Inactive)
REMARK    1  A    between atoms: O_1  and  C_2
REMARK    2  A    between atoms: O_1  and  C_17
REMARK    3  A    between atoms: C_2  and  P_3
REMARK    4  A    between atoms: C_7  and  C_11
REMARK    5  A    between atoms: C_17  and  C_18
REMARK    6  A    between atoms: C_18  and  N_19
REMARK                            x       y       z     vdW  Elec       q    Type
REMARK                         _______ _______ _______ _____ _____    ______ ____
ROOT
ATOM      1  O   UNL     1      36.035 -22.109 -14.860  0.00  0.00    -0.340 OA
ENDROOT
BRANCH   1   2
ATOM      2  C   UNL     1      36.912 -22.752 -13.947  0.00  0.00    +0.258 C 
BRANCH   2   3
ATOM      3  P   UNL     1      36.341 -24.439 -13.916  0.00  0.00    +0.373 P 
ATOM      4  O   UNL     1      34.748 -24.348 -14.177  0.00  0.00    -0.290 OA
ATOM      5  O   UNL     1      36.471 -24.904 -12.376  0.00  0.00    -0.292 OA
ATOM      6  O   UNL     1      37.068 -25.322 -14.889  0.00  0.00    -0.255 OA
ATOM      7  C   UNL     1      33.837 -24.435 -13.081  0.00  0.00    +0.149 C 
ATOM      8  C   UNL     1      34.381 -23.698 -11.856  0.00  0.00    +0.067 C 
ATOM      9  C   UNL     1      35.690 -24.304 -11.354  0.00  0.00    +0.154 C 
BRANCH   7  11
ATOM     10 CL   UNL     1      28.790 -25.250 -14.124  0.00  0.00    -0.082 Cl
ATOM     11  C   UNL     1      32.500 -23.881 -13.519  0.00  0.00    +0.006 C 
ATOM     12  C   UNL     1      31.390 -24.723 -13.610  0.00  0.00    +0.009 C 
ATOM     13  C   UNL     1      32.373 -22.527 -13.830  0.00  0.00    -0.002 C 
ATOM     14  C   UNL     1      30.157 -24.212 -14.012  0.00  0.00    +0.057 C 
ATOM     15  C   UNL     1      31.140 -22.015 -14.233  0.00  0.00    +0.001 C 
ATOM     16  C   UNL     1      30.032 -22.857 -14.324  0.00  0.00    +0.011 C 
ENDBRANCH   7  11
ENDBRANCH   2   3
ENDBRANCH   1   2
BRANCH   1  17
ATOM     17  C   UNL     1      36.742 -21.259 -15.751  0.00  0.00    +0.164 C 
BRANCH  17  18
ATOM     18  C   UNL     1      36.833 -21.915 -17.121  0.00  0.00    +0.126 C 
BRANCH  18  19
ATOM     19  N   UNL     1      35.824 -21.414 -18.052  0.00  0.00    -0.269 N 
ATOM     20  N   UNL     1      34.955 -20.299 -19.753  0.00  0.00    -0.242 NA
ATOM     21  N   UNL     1      33.836 -22.485 -17.165  0.00  0.00    -0.228 NA
ATOM     22  N   UNL     1      31.868 -21.886 -18.478  0.00  0.00    -0.229 NA
ATOM     23  C   UNL     1      34.500 -21.699 -18.026  0.00  0.00    +0.151 C 
ATOM     24  C   UNL     1      33.972 -20.995 -19.097  0.00  0.00    +0.140 C 
ATOM     25  C   UNL     1      36.061 -20.575 -19.094  0.00  0.00    +0.221 C 
ATOM     26  C   UNL     1      32.602 -21.109 -19.310  0.00  0.00    +0.143 C 
ATOM     27  C   UNL     1      32.522 -22.517 -17.472  0.00  0.00    +0.253 C 
ATOM     28  N   UNL     1      31.982 -20.431 -20.374  0.00  0.00    -0.342 N 
ATOM     29  H   UNL     1      31.012 -20.520 -20.515  0.00  0.00    +0.144 HD
ATOM     30  H   UNL     1      32.518 -19.867 -20.977  0.00  0.00    +0.144 HD
ENDBRANCH  18  19
ENDBRANCH  17  18
ENDBRANCH   1  17
TORSDOF 6
ENDMDL
MODEL 9
REMARK VINA RESULT:     -10.3      6.271      8.042
REMARK  Name = 9604654
REMARK  6 active torsions:
REMARK  status: ('A' for Active; 'I' for Inactive)
REMARK    1  A    between atoms: O_1  and  C_2
REMARK    2  A    between atoms: O_1  and  C_17
REMARK    3  A    between atoms: C_2  and  P_3
REMARK    4  A    between atoms: C_7  and  C_11
REMARK    5  A    between atoms: C_17  and  C_18
REMARK    6  A    between atoms: C_18  and  N_19
REMARK                            x       y       z     vdW  Elec       q    Type
REMARK                         _______ _______ _______ _____ _____    ______ ____
ROOT
ATOM      1  O   UNL     1      32.422 -23.058 -12.366  0.00  0.00    -0.340 OA
ENDROOT
BRANCH   1   2
ATOM      2  C   UNL     1      31.532 -22.615 -13.379  0.00  0.00    +0.258 C 
BRANCH   2   3
ATOM      3  P   UNL     1      31.504 -23.960 -14.548  0.00  0.00    +0.373 P 
ATOM      4  O   UNL     1      32.644 -23.594 -15.635  0.00  0.00    -0.290 OA
ATOM      5  O   UNL     1      30.114 -23.796 -15.351  0.00  0.00    -0.292 OA
ATOM      6  O   UNL     1      31.687 -25.302 -13.902  0.00  0.00    -0.255 OA
ATOM      7  C   UNL     1      32.279 -23.017 -16.889  0.00  0.00    +0.149 C 
ATOM      8  C   UNL     1      31.137 -22.014 -16.719  0.00  0.00    +0.067 C 
ATOM      9  C   UNL     1      29.867 -22.671 -16.181  0.00  0.00    +0.154 C 
BRANCH   7  11
ATOM     10 CL   UNL     1      37.216 -21.412 -16.364  0.00  0.00    -0.082 Cl
ATOM     11  C   UNL     1      33.502 -22.375 -17.500  0.00  0.00    +0.006 C 
ATOM     12  C   UNL     1      34.661 -22.208 -16.738  0.00  0.00    +0.009 C 
ATOM     13  C   UNL     1      33.477 -21.949 -18.829  0.00  0.00    -0.002 C 
ATOM     14  C   UNL     1      35.789 -21.617 -17.304  0.00  0.00    +0.057 C 
ATOM     15  C   UNL     1      34.606 -21.357 -19.395  0.00  0.00    +0.001 C 
ATOM     16  C   UNL     1      35.762 -21.190 -18.632  0.00  0.00    +0.011 C 
ENDBRANCH   7  11
ENDBRANCH   2   3
ENDBRANCH   1   2
BRANCH   1  17
ATOM     17  C   UNL     1      33.755 -23.156 -12.849  0.00  0.00    +0.164 C 
BRANCH  17  18
ATOM     18  C   UNL     1      34.619 -23.878 -11.825  0.00  0.00    +0.126 C 
BRANCH  18  19
ATOM     19  N   UNL     1      36.031 -23.900 -12.198  0.00  0.00    -0.269 N 
ATOM     20  N   UNL     1      38.154 -23.284 -12.288  0.00  0.00    -0.242 NA
ATOM     21  N   UNL     1      36.078 -25.855 -13.633  0.00  0.00    -0.228 NA
ATOM     22  N   UNL     1      38.329 -26.249 -14.490  0.00  0.00    -0.229 NA
ATOM     23  C   UNL     1      36.631 -24.804 -13.008  0.00  0.00    +0.151 C 
ATOM     24  C   UNL     1      37.957 -24.405 -13.054  0.00  0.00    +0.140 C 
ATOM     25  C   UNL     1      36.968 -23.006 -11.786  0.00  0.00    +0.221 C 
ATOM     26  C   UNL     1      38.819 -25.172 -13.830  0.00  0.00    +0.143 C 
ATOM     27  C   UNL     1      37.008 -26.519 -14.352  0.00  0.00    +0.253 C 
ATOM     28  N   UNL     1      40.182 -24.842 -13.932  0.00  0.00    -0.342 N 
ATOM     29  H   UNL     1      40.782 -25.393 -14.484  0.00  0.00    +0.144 HD
ATOM     30  H   UNL     1      40.535 -24.059 -13.451  0.00  0.00    +0.144 HD
ENDBRANCH  18  19
ENDBRANCH  17  18
ENDBRANCH   1  17
TORSDOF 6
ENDMDL
