MODEL 1
REMARK VINA RESULT:     -12.1      0.000      0.000
REMARK  Name = 71492799
REMARK  6 active torsions:
REMARK  status: ('A' for Active; 'I' for Inactive)
REMARK    1  A    between atoms: N_1  and  C_20
REMARK    2  A    between atoms: C_4  and  C_6
REMARK    3  A    between atoms: C_7  and  C_15
REMARK    4  A    between atoms: C_8  and  C_19
REMARK    5  A    between atoms: C_21  and  C_24
REMARK    6  A    between atoms: N_23  and  N_26
REMARK                            x       y       z     vdW  Elec       q    Type
REMARK                         _______ _______ _______ _____ _____    ______ ____
ROOT
ATOM      1  N   UNL     1      34.376 -19.893 -21.266  0.00  0.00    -0.176 N 
ATOM      2  N   UNL     1      34.790 -20.550 -20.173  0.00  0.00    -0.122 NA
ATOM      3  N   UNL     1      32.637 -20.359 -19.855  0.00  0.00    -0.194 NA
ATOM      4  C   UNL     1      33.750 -20.823 -19.338  0.00  0.00    +0.050 C 
ATOM      5  C   UNL     1      33.066 -19.803 -21.025  0.00  0.00    +0.252 C 
ENDROOT
BRANCH   4   6
ATOM      6  C   UNL     1      33.861 -21.516 -18.085  0.00  0.00    +0.063 C 
ATOM      7  C   UNL     1      32.821 -22.667 -16.233  0.00  0.00    +0.072 C 
ATOM      8  C   UNL     1      35.221 -22.386 -16.288  0.00  0.00    +0.072 C 
ATOM      9  C   UNL     1      35.114 -21.713 -17.505  0.00  0.00    +0.014 C 
ATOM     10  C   UNL     1      32.715 -21.994 -17.449  0.00  0.00    +0.014 C 
ATOM     11  C   UNL     1      34.075 -22.864 -15.652  0.00  0.00    +0.008 C 
BRANCH   7  15
ATOM     12  F   UNL     1      30.700 -23.759 -16.405  0.00  0.00    -0.166 F 
ATOM     13  F   UNL     1      31.855 -24.131 -14.608  0.00  0.00    -0.166 F 
ATOM     14  F   UNL     1      30.906 -22.198 -14.905  0.00  0.00    -0.166 F 
ATOM     15  C   UNL     1      31.597 -23.180 -15.554  0.00  0.00    +0.419 C 
ENDBRANCH   7  15
BRANCH   8  19
ATOM     16  F   UNL     1      36.794 -23.905 -15.355  0.00  0.00    -0.166 F 
ATOM     17  F   UNL     1      37.600 -22.221 -16.470  0.00  0.00    -0.166 F 
ATOM     18  F   UNL     1      36.740 -21.905 -14.505  0.00  0.00    -0.166 F 
ATOM     19  C   UNL     1      36.561 -22.598 -15.668  0.00  0.00    +0.419 C 
ENDBRANCH   8  19
ENDBRANCH   4   6
BRANCH   1  20
ATOM     20  C   UNL     1      35.087 -19.430 -22.347  0.00  0.00    +0.092 C 
ATOM     21  C   UNL     1      35.461 -18.154 -22.523  0.00  0.00    +0.077 C 
BRANCH  21  24
ATOM     22  O   UNL     1      35.396 -17.245 -20.316  0.00  0.00    -0.269 OA
ATOM     23  N   UNL     1      34.427 -16.067 -22.068  0.00  0.00    -0.231 N 
ATOM     24  C   UNL     1      35.105 -17.129 -21.502  0.00  0.00    +0.263 C 
ATOM     25  H   UNL     1      34.232 -16.048 -23.032  0.00  0.00    +0.173 HD
BRANCH  23  26
ATOM     26  N   UNL     1      34.038 -15.044 -21.252  0.00  0.00    -0.248 N 
ATOM     27  H   UNL     1      34.156 -15.113 -20.277  0.00  0.00    +0.172 HD
ATOM     28  N   UNL     1      32.842 -13.016 -20.998  0.00  0.00    -0.228 NA
ATOM     29  C   UNL     1      33.467 -13.895 -21.812  0.00  0.00    +0.144 C 
ATOM     30  C   UNL     1      33.584 -13.734 -23.184  0.00  0.00    +0.036 C 
ATOM     31  C   UNL     1      33.022 -12.598 -23.756  0.00  0.00    +0.005 C 
ATOM     32  C   UNL     1      32.371 -11.671 -22.951  0.00  0.00    +0.021 C 
ATOM     33  C   UNL     1      32.308 -11.924 -21.590  0.00  0.00    +0.100 C 
ENDBRANCH  23  26
ENDBRANCH  21  24
ENDBRANCH   1  20
TORSDOF 6
ENDMDL
MODEL 2
REMARK VINA RESULT:     -12.1      0.043      3.145
REMARK  Name = 71492799
REMARK  6 active torsions:
REMARK  status: ('A' for Active; 'I' for Inactive)
REMARK    1  A    between atoms: N_1  and  C_20
REMARK    2  A    between atoms: C_4  and  C_6
REMARK    3  A    between atoms: C_7  and  C_15
REMARK    4  A    between atoms: C_8  and  C_19
REMARK    5  A    between atoms: C_21  and  C_24
REMARK    6  A    between atoms: N_23  and  N_26
REMARK                            x       y       z     vdW  Elec       q    Type
REMARK                         _______ _______ _______ _____ _____    ______ ____
ROOT
ATOM      1  N   UNL     1      34.400 -19.867 -21.285  0.00  0.00    -0.176 N 
ATOM      2  N   UNL     1      34.816 -20.516 -20.186  0.00  0.00    -0.122 NA
ATOM      3  N   UNL     1      32.654 -20.374 -19.896  0.00  0.00    -0.194 NA
ATOM      4  C   UNL     1      33.772 -20.814 -19.365  0.00  0.00    +0.050 C 
ATOM      5  C   UNL     1      33.085 -19.807 -21.060  0.00  0.00    +0.252 C 
ENDROOT
BRANCH   4   6
ATOM      6  C   UNL     1      33.882 -21.506 -18.112  0.00  0.00    +0.063 C 
ATOM      7  C   UNL     1      35.241 -22.370 -16.312  0.00  0.00    +0.072 C 
ATOM      8  C   UNL     1      32.843 -22.656 -16.259  0.00  0.00    +0.072 C 
ATOM      9  C   UNL     1      32.736 -21.984 -17.477  0.00  0.00    +0.014 C 
ATOM     10  C   UNL     1      35.134 -21.699 -17.529  0.00  0.00    +0.014 C 
ATOM     11  C   UNL     1      34.095 -22.849 -15.676  0.00  0.00    +0.008 C 
BRANCH   7  15
ATOM     12  F   UNL     1      37.622 -22.222 -16.496  0.00  0.00    -0.166 F 
ATOM     13  F   UNL     1      36.762 -21.857 -14.539  0.00  0.00    -0.166 F 
ATOM     14  F   UNL     1      36.806 -23.876 -15.344  0.00  0.00    -0.166 F 
ATOM     15  C   UNL     1      36.580 -22.574 -15.687  0.00  0.00    +0.419 C 
ENDBRANCH   7  15
BRANCH   8  19
ATOM     16  F   UNL     1      30.937 -22.188 -14.916  0.00  0.00    -0.166 F 
ATOM     17  F   UNL     1      30.712 -23.729 -16.433  0.00  0.00    -0.166 F 
ATOM     18  F   UNL     1      31.873 -24.132 -14.646  0.00  0.00    -0.166 F 
ATOM     19  C   UNL     1      31.618 -23.168 -15.579  0.00  0.00    +0.419 C 
ENDBRANCH   8  19
ENDBRANCH   4   6
BRANCH   1  20
ATOM     20  C   UNL     1      35.114 -19.387 -22.356  0.00  0.00    +0.092 C 
ATOM     21  C   UNL     1      35.469 -18.104 -22.520  0.00  0.00    +0.077 C 
BRANCH  21  24
ATOM     22  O   UNL     1      35.353 -17.220 -20.306  0.00  0.00    -0.269 OA
ATOM     23  N   UNL     1      34.423 -16.024 -22.066  0.00  0.00    -0.231 N 
ATOM     24  C   UNL     1      35.088 -17.091 -21.496  0.00  0.00    +0.263 C 
ATOM     25  H   UNL     1      34.250 -15.994 -23.035  0.00  0.00    +0.173 HD
BRANCH  23  26
ATOM     26  N   UNL     1      34.013 -15.010 -21.249  0.00  0.00    -0.248 N 
ATOM     27  H   UNL     1      34.110 -15.090 -20.273  0.00  0.00    +0.172 HD
ATOM     28  N   UNL     1      32.806 -12.988 -20.999  0.00  0.00    -0.228 NA
ATOM     29  C   UNL     1      33.451 -13.857 -21.809  0.00  0.00    +0.144 C 
ATOM     30  C   UNL     1      33.599 -13.681 -23.176  0.00  0.00    +0.036 C 
ATOM     31  C   UNL     1      33.046 -12.540 -23.748  0.00  0.00    +0.005 C 
ATOM     32  C   UNL     1      32.375 -11.623 -22.948  0.00  0.00    +0.021 C 
ATOM     33  C   UNL     1      32.283 -11.891 -21.591  0.00  0.00    +0.100 C 
ENDBRANCH  23  26
ENDBRANCH  21  24
ENDBRANCH   1  20
TORSDOF 6
ENDMDL
MODEL 3
REMARK VINA RESULT:     -11.2      5.287      7.518
REMARK  Name = 71492799
REMARK  6 active torsions:
REMARK  status: ('A' for Active; 'I' for Inactive)
REMARK    1  A    between atoms: N_1  and  C_20
REMARK    2  A    between atoms: C_4  and  C_6
REMARK    3  A    between atoms: C_7  and  C_15
REMARK    4  A    between atoms: C_8  and  C_19
REMARK    5  A    between atoms: C_21  and  C_24
REMARK    6  A    between atoms: N_23  and  N_26
REMARK                            x       y       z     vdW  Elec       q    Type
REMARK                         _______ _______ _______ _____ _____    ______ ____
ROOT
ATOM      1  N   UNL     1      35.386 -21.178 -18.150  0.00  0.00    -0.176 N 
ATOM      2  N   UNL     1      35.495 -22.148 -17.230  0.00  0.00    -0.122 NA
ATOM      3  N   UNL     1      37.131 -20.791 -16.722  0.00  0.00    -0.194 NA
ATOM      4  C   UNL     1      36.535 -21.911 -16.384  0.00  0.00    +0.050 C 
ATOM      5  C   UNL     1      36.398 -20.382 -17.798  0.00  0.00    +0.252 C 
ENDROOT
BRANCH   4   6
ATOM      6  C   UNL     1      36.916 -22.759 -15.290  0.00  0.00    +0.063 C 
ATOM      7  C   UNL     1      36.431 -23.741 -13.138  0.00  0.00    +0.072 C 
ATOM      8  C   UNL     1      38.511 -24.251 -14.257  0.00  0.00    +0.072 C 
ATOM      9  C   UNL     1      38.141 -23.426 -15.319  0.00  0.00    +0.014 C 
ATOM     10  C   UNL     1      36.062 -22.918 -14.199  0.00  0.00    +0.014 C 
ATOM     11  C   UNL     1      37.656 -24.409 -13.166  0.00  0.00    +0.008 C 
BRANCH   7  15
ATOM     12  F   UNL     1      35.389 -22.790 -11.205  0.00  0.00    -0.166 F 
ATOM     13  F   UNL     1      34.241 -24.252 -12.323  0.00  0.00    -0.166 F 
ATOM     14  F   UNL     1      35.933 -24.894 -11.118  0.00  0.00    -0.166 F 
ATOM     15  C   UNL     1      35.517 -23.913 -11.972  0.00  0.00    +0.419 C 
ENDBRANCH   7  15
BRANCH   8  19
ATOM     16  F   UNL     1      39.963 -25.845 -13.254  0.00  0.00    -0.166 F 
ATOM     17  F   UNL     1      40.015 -25.700 -15.423  0.00  0.00    -0.166 F 
ATOM     18  F   UNL     1      40.899 -24.132 -14.212  0.00  0.00    -0.166 F 
ATOM     19  C   UNL     1      39.820 -24.965 -14.288  0.00  0.00    +0.419 C 
ENDBRANCH   8  19
ENDBRANCH   4   6
BRANCH   1  20
ATOM     20  C   UNL     1      34.488 -21.027 -19.179  0.00  0.00    +0.092 C 
ATOM     21  C   UNL     1      33.348 -21.721 -19.302  0.00  0.00    +0.077 C 
BRANCH  21  24
ATOM     22  O   UNL     1      33.154 -23.941 -18.444  0.00  0.00    -0.269 OA
ATOM     23  N   UNL     1      32.448 -22.147 -17.149  0.00  0.00    -0.231 N 
ATOM     24  C   UNL     1      32.983 -22.738 -18.276  0.00  0.00    +0.263 C 
ATOM     25  H   UNL     1      32.345 -21.170 -17.091  0.00  0.00    +0.173 HD
BRANCH  23  26
ATOM     26  N   UNL     1      32.069 -22.956 -16.117  0.00  0.00    -0.248 N 
ATOM     27  H   UNL     1      32.747 -23.420 -15.574  0.00  0.00    +0.172 HD
ATOM     28  N   UNL     1      30.333 -24.120 -15.004  0.00  0.00    -0.228 NA
ATOM     29  C   UNL     1      30.708 -23.122 -15.835  0.00  0.00    +0.144 C 
ATOM     30  C   UNL     1      29.824 -22.239 -16.436  0.00  0.00    +0.036 C 
ATOM     31  C   UNL     1      28.468 -22.391 -16.166  0.00  0.00    +0.005 C 
ATOM     32  C   UNL     1      28.044 -23.405 -15.316  0.00  0.00    +0.021 C 
ATOM     33  C   UNL     1      29.007 -24.236 -14.766  0.00  0.00    +0.100 C 
ENDBRANCH  23  26
ENDBRANCH  21  24
ENDBRANCH   1  20
TORSDOF 6
ENDMDL
MODEL 4
REMARK VINA RESULT:     -11.1      5.362      8.079
REMARK  Name = 71492799
REMARK  6 active torsions:
REMARK  status: ('A' for Active; 'I' for Inactive)
REMARK    1  A    between atoms: N_1  and  C_20
REMARK    2  A    between atoms: C_4  and  C_6
REMARK    3  A    between atoms: C_7  and  C_15
REMARK    4  A    between atoms: C_8  and  C_19
REMARK    5  A    between atoms: C_21  and  C_24
REMARK    6  A    between atoms: N_23  and  N_26
REMARK                            x       y       z     vdW  Elec       q    Type
REMARK                         _______ _______ _______ _____ _____    ______ ____
ROOT
ATOM      1  N   UNL     1      35.376 -21.218 -18.098  0.00  0.00    -0.176 N 
ATOM      2  N   UNL     1      35.509 -22.163 -17.155  0.00  0.00    -0.122 NA
ATOM      3  N   UNL     1      37.113 -20.756 -16.684  0.00  0.00    -0.194 NA
ATOM      4  C   UNL     1      36.545 -21.882 -16.318  0.00  0.00    +0.050 C 
ATOM      5  C   UNL     1      36.369 -20.390 -17.768  0.00  0.00    +0.252 C 
ENDROOT
BRANCH   4   6
ATOM      6  C   UNL     1      36.948 -22.695 -15.206  0.00  0.00    +0.063 C 
ATOM      7  C   UNL     1      38.521 -24.224 -14.194  0.00  0.00    +0.072 C 
ATOM      8  C   UNL     1      36.553 -23.532 -12.975  0.00  0.00    +0.072 C 
ATOM      9  C   UNL     1      36.161 -22.743 -14.056  0.00  0.00    +0.014 C 
ATOM     10  C   UNL     1      38.128 -23.435 -15.274  0.00  0.00    +0.014 C 
ATOM     11  C   UNL     1      37.733 -24.273 -13.043  0.00  0.00    +0.008 C 
BRANCH   7  15
ATOM     12  F   UNL     1      39.897 -25.957 -13.284  0.00  0.00    -0.166 F 
ATOM     13  F   UNL     1      39.934 -25.700 -15.437  0.00  0.00    -0.166 F 
ATOM     14  F   UNL     1      40.898 -24.233 -14.154  0.00  0.00    -0.166 F 
ATOM     15  C   UNL     1      39.783 -25.014 -14.265  0.00  0.00    +0.419 C 
ENDBRANCH   7  15
BRANCH   8  19
ATOM     16  F   UNL     1      36.193 -22.789 -10.745  0.00  0.00    -0.166 F 
ATOM     17  F   UNL     1      34.422 -23.177 -11.945  0.00  0.00    -0.166 F 
ATOM     18  F   UNL     1      35.610 -24.833 -11.203  0.00  0.00    -0.166 F 
ATOM     19  C   UNL     1      35.711 -23.583 -11.744  0.00  0.00    +0.419 C 
ENDBRANCH   8  19
ENDBRANCH   4   6
BRANCH   1  20
ATOM     20  C   UNL     1      34.473 -21.113 -19.129  0.00  0.00    +0.092 C 
ATOM     21  C   UNL     1      33.336 -21.818 -19.219  0.00  0.00    +0.077 C 
BRANCH  21  24
ATOM     22  O   UNL     1      33.112 -24.007 -18.291  0.00  0.00    -0.269 OA
ATOM     23  N   UNL     1      32.505 -22.158 -17.023  0.00  0.00    -0.231 N 
ATOM     24  C   UNL     1      32.981 -22.795 -18.152  0.00  0.00    +0.263 C 
ATOM     25  H   UNL     1      32.432 -21.177 -16.989  0.00  0.00    +0.173 HD
BRANCH  23  26
ATOM     26  N   UNL     1      32.142 -22.927 -15.955  0.00  0.00    -0.248 N 
ATOM     27  H   UNL     1      32.829 -23.316 -15.366  0.00  0.00    +0.172 HD
ATOM     28  N   UNL     1      30.444 -24.129 -14.824  0.00  0.00    -0.228 NA
ATOM     29  C   UNL     1      30.785 -23.160 -15.702  0.00  0.00    +0.144 C 
ATOM     30  C   UNL     1      29.870 -22.370 -16.380  0.00  0.00    +0.036 C 
ATOM     31  C   UNL     1      28.518 -22.589 -16.141  0.00  0.00    +0.005 C 
ATOM     32  C   UNL     1      28.128 -23.576 -15.244  0.00  0.00    +0.021 C 
ATOM     33  C   UNL     1      29.121 -24.313 -14.617  0.00  0.00    +0.100 C 
ENDBRANCH  23  26
ENDBRANCH  21  24
ENDBRANCH   1  20
TORSDOF 6
ENDMDL
MODEL 5
REMARK VINA RESULT:     -10.9      2.770      4.541
REMARK  Name = 71492799
REMARK  6 active torsions:
REMARK  status: ('A' for Active; 'I' for Inactive)
REMARK    1  A    between atoms: N_1  and  C_20
REMARK    2  A    between atoms: C_4  and  C_6
REMARK    3  A    between atoms: C_7  and  C_15
REMARK    4  A    between atoms: C_8  and  C_19
REMARK    5  A    between atoms: C_21  and  C_24
REMARK    6  A    between atoms: N_23  and  N_26
REMARK                            x       y       z     vdW  Elec       q    Type
REMARK                         _______ _______ _______ _____ _____    ______ ____
ROOT
ATOM      1  N   UNL     1      34.893 -21.421 -18.903  0.00  0.00    -0.176 N 
ATOM      2  N   UNL     1      34.306 -21.564 -17.706  0.00  0.00    -0.122 NA
ATOM      3  N   UNL     1      32.971 -22.654 -19.050  0.00  0.00    -0.194 NA
ATOM      4  C   UNL     1      33.163 -22.298 -17.801  0.00  0.00    +0.050 C 
ATOM      5  C   UNL     1      34.046 -22.099 -19.682  0.00  0.00    +0.252 C 
ENDROOT
BRANCH   4   6
ATOM      6  C   UNL     1      32.304 -22.631 -16.700  0.00  0.00    +0.063 C 
ATOM      7  C   UNL     1      32.017 -23.441 -14.442  0.00  0.00    +0.072 C 
ATOM      8  C   UNL     1      30.090 -22.789 -15.747  0.00  0.00    +0.072 C 
ATOM      9  C   UNL     1      30.924 -22.466 -16.817  0.00  0.00    +0.014 C 
ATOM     10  C   UNL     1      32.850 -23.118 -15.512  0.00  0.00    +0.014 C 
ATOM     11  C   UNL     1      30.636 -23.276 -14.559  0.00  0.00    +0.008 C 
BRANCH   7  15
ATOM     12  F   UNL     1      33.860 -24.464 -13.312  0.00  0.00    -0.166 F 
ATOM     13  F   UNL     1      32.701 -23.014 -12.191  0.00  0.00    -0.166 F 
ATOM     14  F   UNL     1      31.859 -24.970 -12.629  0.00  0.00    -0.166 F 
ATOM     15  C   UNL     1      32.599 -23.959 -13.171  0.00  0.00    +0.419 C 
ENDBRANCH   7  15
BRANCH   8  19
ATOM     16  F   UNL     1      27.917 -23.712 -15.465  0.00  0.00    -0.166 F 
ATOM     17  F   UNL     1      28.124 -21.574 -15.131  0.00  0.00    -0.166 F 
ATOM     18  F   UNL     1      28.199 -22.366 -17.149  0.00  0.00    -0.166 F 
ATOM     19  C   UNL     1      28.614 -22.612 -15.871  0.00  0.00    +0.419 C 
ENDBRANCH   8  19
ENDBRANCH   4   6
BRANCH   1  20
ATOM     20  C   UNL     1      36.046 -20.762 -19.254  0.00  0.00    +0.092 C 
ATOM     21  C   UNL     1      36.123 -19.809 -20.195  0.00  0.00    +0.077 C 
BRANCH  21  24
ATOM     22  O   UNL     1      33.816 -19.225 -20.390  0.00  0.00    -0.269 OA
ATOM     23  N   UNL     1      35.155 -19.252 -22.288  0.00  0.00    -0.231 N 
ATOM     24  C   UNL     1      34.899 -19.401 -20.940  0.00  0.00    +0.263 C 
ATOM     25  H   UNL     1      36.055 -19.411 -22.653  0.00  0.00    +0.173 HD
BRANCH  23  26
ATOM     26  N   UNL     1      34.125 -18.875 -23.101  0.00  0.00    -0.248 N 
ATOM     27  H   UNL     1      33.481 -19.544 -23.429  0.00  0.00    +0.172 HD
ATOM     28  N   UNL     1      33.149 -17.212 -24.475  0.00  0.00    -0.228 NA
ATOM     29  C   UNL     1      33.992 -17.531 -23.467  0.00  0.00    +0.144 C 
ATOM     30  C   UNL     1      34.742 -16.605 -22.760  0.00  0.00    +0.036 C 
ATOM     31  C   UNL     1      34.621 -15.265 -23.112  0.00  0.00    +0.005 C 
ATOM     32  C   UNL     1      33.765 -14.897 -24.143  0.00  0.00    +0.021 C 
ATOM     33  C   UNL     1      33.058 -15.900 -24.788  0.00  0.00    +0.100 C 
ENDBRANCH  23  26
ENDBRANCH  21  24
ENDBRANCH   1  20
TORSDOF 6
ENDMDL
MODEL 6
REMARK VINA RESULT:     -10.9      2.807      3.762
REMARK  Name = 71492799
REMARK  6 active torsions:
REMARK  status: ('A' for Active; 'I' for Inactive)
REMARK    1  A    between atoms: N_1  and  C_20
REMARK    2  A    between atoms: C_4  and  C_6
REMARK    3  A    between atoms: C_7  and  C_15
REMARK    4  A    between atoms: C_8  and  C_19
REMARK    5  A    between atoms: C_21  and  C_24
REMARK    6  A    between atoms: N_23  and  N_26
REMARK                            x       y       z     vdW  Elec       q    Type
REMARK                         _______ _______ _______ _____ _____    ______ ____
ROOT
ATOM      1  N   UNL     1      34.896 -21.462 -18.839  0.00  0.00    -0.176 N 
ATOM      2  N   UNL     1      34.241 -21.575 -17.674  0.00  0.00    -0.122 NA
ATOM      3  N   UNL     1      33.041 -22.786 -19.041  0.00  0.00    -0.194 NA
ATOM      4  C   UNL     1      33.139 -22.363 -17.802  0.00  0.00    +0.050 C 
ATOM      5  C   UNL     1      34.130 -22.214 -19.633  0.00  0.00    +0.252 C 
ENDROOT
BRANCH   4   6
ATOM      6  C   UNL     1      32.227 -22.682 -16.740  0.00  0.00    +0.063 C 
ATOM      7  C   UNL     1      29.966 -22.876 -15.912  0.00  0.00    +0.072 C 
ATOM      8  C   UNL     1      31.830 -23.417 -14.473  0.00  0.00    +0.072 C 
ATOM      9  C   UNL     1      32.716 -23.107 -15.505  0.00  0.00    +0.014 C 
ATOM     10  C   UNL     1      30.852 -22.567 -16.943  0.00  0.00    +0.014 C 
ATOM     11  C   UNL     1      30.455 -23.302 -14.676  0.00  0.00    +0.008 C 
BRANCH   7  15
ATOM     12  F   UNL     1      28.061 -23.349 -17.279  0.00  0.00    -0.166 F 
ATOM     13  F   UNL     1      27.748 -23.319 -15.134  0.00  0.00    -0.166 F 
ATOM     14  F   UNL     1      28.081 -21.458 -16.207  0.00  0.00    -0.166 F 
ATOM     15  C   UNL     1      28.496 -22.756 -16.129  0.00  0.00    +0.419 C 
ENDBRANCH   7  15
BRANCH   8  19
ATOM     16  F   UNL     1      33.662 -24.255 -13.209  0.00  0.00    -0.166 F 
ATOM     17  F   UNL     1      32.292 -22.916 -12.180  0.00  0.00    -0.166 F 
ATOM     18  F   UNL     1      31.680 -24.946 -12.639  0.00  0.00    -0.166 F 
ATOM     19  C   UNL     1      32.353 -23.874 -13.153  0.00  0.00    +0.419 C 
ENDBRANCH   8  19
ENDBRANCH   4   6
BRANCH   1  20
ATOM     20  C   UNL     1      36.041 -20.769 -19.151  0.00  0.00    +0.092 C 
ATOM     21  C   UNL     1      36.121 -19.816 -20.091  0.00  0.00    +0.077 C 
BRANCH  21  24
ATOM     22  O   UNL     1      33.800 -19.334 -20.371  0.00  0.00    -0.269 OA
ATOM     23  N   UNL     1      35.217 -19.247 -22.209  0.00  0.00    -0.231 N 
ATOM     24  C   UNL     1      34.912 -19.445 -20.877  0.00  0.00    +0.263 C 
ATOM     25  H   UNL     1      36.139 -19.354 -22.538  0.00  0.00    +0.173 HD
BRANCH  23  26
ATOM     26  N   UNL     1      34.206 -18.896 -23.056  0.00  0.00    -0.248 N 
ATOM     27  H   UNL     1      33.599 -19.583 -23.416  0.00  0.00    +0.172 HD
ATOM     28  N   UNL     1      33.224 -17.251 -24.448  0.00  0.00    -0.228 NA
ATOM     29  C   UNL     1      34.038 -17.553 -23.412  0.00  0.00    +0.144 C 
ATOM     30  C   UNL     1      34.729 -16.610 -22.667  0.00  0.00    +0.036 C 
ATOM     31  C   UNL     1      34.574 -15.271 -23.008  0.00  0.00    +0.005 C 
ATOM     32  C   UNL     1      33.744 -14.921 -24.067  0.00  0.00    +0.021 C 
ATOM     33  C   UNL     1      33.098 -15.939 -24.749  0.00  0.00    +0.100 C 
ENDBRANCH  23  26
ENDBRANCH  21  24
ENDBRANCH   1  20
TORSDOF 6
ENDMDL
MODEL 7
REMARK VINA RESULT:     -10.8      5.075      8.302
REMARK  Name = 71492799
REMARK  6 active torsions:
REMARK  status: ('A' for Active; 'I' for Inactive)
REMARK    1  A    between atoms: N_1  and  C_20
REMARK    2  A    between atoms: C_4  and  C_6
REMARK    3  A    between atoms: C_7  and  C_15
REMARK    4  A    between atoms: C_8  and  C_19
REMARK    5  A    between atoms: C_21  and  C_24
REMARK    6  A    between atoms: N_23  and  N_26
REMARK                            x       y       z     vdW  Elec       q    Type
REMARK                         _______ _______ _______ _____ _____    ______ ____
ROOT
ATOM      1  N   UNL     1      37.415 -22.293 -16.082  0.00  0.00    -0.176 N 
ATOM      2  N   UNL     1      36.621 -22.198 -17.160  0.00  0.00    -0.122 NA
ATOM      3  N   UNL     1      37.139 -20.117 -16.734  0.00  0.00    -0.194 NA
ATOM      4  C   UNL     1      36.462 -20.901 -17.541  0.00  0.00    +0.050 C 
ATOM      5  C   UNL     1      37.701 -21.007 -15.865  0.00  0.00    +0.252 C 
ENDROOT
BRANCH   4   6
ATOM      6  C   UNL     1      35.673 -20.463 -18.658  0.00  0.00    +0.063 C 
ATOM      7  C   UNL     1      33.565 -20.405 -19.836  0.00  0.00    +0.072 C 
ATOM      8  C   UNL     1      35.483 -19.242 -20.734  0.00  0.00    +0.072 C 
ATOM      9  C   UNL     1      36.249 -19.668 -19.649  0.00  0.00    +0.014 C 
ATOM     10  C   UNL     1      34.331 -20.831 -18.752  0.00  0.00    +0.014 C 
ATOM     11  C   UNL     1      34.140 -19.610 -20.828  0.00  0.00    +0.008 C 
BRANCH   7  15
ATOM     12  F   UNL     1      31.383 -20.424 -18.854  0.00  0.00    -0.166 F 
ATOM     13  F   UNL     1      31.489 -20.255 -21.014  0.00  0.00    -0.166 F 
ATOM     14  F   UNL     1      31.960 -22.146 -20.050  0.00  0.00    -0.166 F 
ATOM     15  C   UNL     1      32.129 -20.796 -19.936  0.00  0.00    +0.419 C 
ENDBRANCH   7  15
BRANCH   8  19
ATOM     16  F   UNL     1      35.760 -17.075 -21.673  0.00  0.00    -0.166 F 
ATOM     17  F   UNL     1      37.464 -18.421 -21.795  0.00  0.00    -0.166 F 
ATOM     18  F   UNL     1      35.734 -18.748 -23.061  0.00  0.00    -0.166 F 
ATOM     19  C   UNL     1      36.098 -18.392 -21.794  0.00  0.00    +0.419 C 
ENDBRANCH   8  19
ENDBRANCH   4   6
BRANCH   1  20
ATOM     20  C   UNL     1      37.830 -23.398 -15.380  0.00  0.00    +0.092 C 
ATOM     21  C   UNL     1      37.276 -23.825 -14.235  0.00  0.00    +0.077 C 
BRANCH  21  24
ATOM     22  O   UNL     1      36.273 -22.143 -12.870  0.00  0.00    -0.269 OA
ATOM     23  N   UNL     1      34.921 -23.589 -14.084  0.00  0.00    -0.231 N 
ATOM     24  C   UNL     1      36.128 -23.083 -13.644  0.00  0.00    +0.263 C 
ATOM     25  H   UNL     1      34.888 -24.348 -14.710  0.00  0.00    +0.173 HD
BRANCH  23  26
ATOM     26  N   UNL     1      33.774 -23.005 -13.629  0.00  0.00    -0.248 N 
ATOM     27  H   UNL     1      33.702 -22.715 -12.691  0.00  0.00    +0.172 HD
ATOM     28  N   UNL     1      31.489 -22.501 -13.994  0.00  0.00    -0.228 NA
ATOM     29  C   UNL     1      32.698 -22.822 -14.506  0.00  0.00    +0.144 C 
ATOM     30  C   UNL     1      32.950 -22.983 -15.860  0.00  0.00    +0.036 C 
ATOM     31  C   UNL     1      31.891 -22.805 -16.744  0.00  0.00    +0.005 C 
ATOM     32  C   UNL     1      30.633 -22.475 -16.256  0.00  0.00    +0.021 C 
ATOM     33  C   UNL     1      30.485 -22.336 -14.885  0.00  0.00    +0.100 C 
ENDBRANCH  23  26
ENDBRANCH  21  24
ENDBRANCH   1  20
TORSDOF 6
ENDMDL
MODEL 8
REMARK VINA RESULT:     -10.8      5.077      8.739
REMARK  Name = 71492799
REMARK  6 active torsions:
REMARK  status: ('A' for Active; 'I' for Inactive)
REMARK    1  A    between atoms: N_1  and  C_20
REMARK    2  A    between atoms: C_4  and  C_6
REMARK    3  A    between atoms: C_7  and  C_15
REMARK    4  A    between atoms: C_8  and  C_19
REMARK    5  A    between atoms: C_21  and  C_24
REMARK    6  A    between atoms: N_23  and  N_26
REMARK                            x       y       z     vdW  Elec       q    Type
REMARK                         _______ _______ _______ _____ _____    ______ ____
ROOT
ATOM      1  N   UNL     1      37.414 -22.299 -16.074  0.00  0.00    -0.176 N 
ATOM      2  N   UNL     1      36.620 -22.200 -17.151  0.00  0.00    -0.122 NA
ATOM      3  N   UNL     1      37.146 -20.122 -16.726  0.00  0.00    -0.194 NA
ATOM      4  C   UNL     1      36.466 -20.903 -17.532  0.00  0.00    +0.050 C 
ATOM      5  C   UNL     1      37.706 -21.014 -15.857  0.00  0.00    +0.252 C 
ENDROOT
BRANCH   4   6
ATOM      6  C   UNL     1      35.678 -20.461 -18.649  0.00  0.00    +0.063 C 
ATOM      7  C   UNL     1      35.490 -19.237 -20.722  0.00  0.00    +0.072 C 
ATOM      8  C   UNL     1      33.571 -20.402 -19.830  0.00  0.00    +0.072 C 
ATOM      9  C   UNL     1      34.336 -20.830 -18.745  0.00  0.00    +0.014 C 
ATOM     10  C   UNL     1      36.254 -19.665 -19.638  0.00  0.00    +0.014 C 
ATOM     11  C   UNL     1      34.148 -19.605 -20.819  0.00  0.00    +0.008 C 
BRANCH   7  15
ATOM     12  F   UNL     1      37.472 -18.397 -21.767  0.00  0.00    -0.166 F 
ATOM     13  F   UNL     1      35.761 -18.758 -23.050  0.00  0.00    -0.166 F 
ATOM     14  F   UNL     1      35.749 -17.074 -21.674  0.00  0.00    -0.166 F 
ATOM     15  C   UNL     1      36.107 -18.387 -21.781  0.00  0.00    +0.419 C 
ENDBRANCH   7  15
BRANCH   8  19
ATOM     16  F   UNL     1      31.515 -20.239 -21.012  0.00  0.00    -0.166 F 
ATOM     17  F   UNL     1      31.948 -22.144 -20.059  0.00  0.00    -0.166 F 
ATOM     18  F   UNL     1      31.389 -20.432 -18.850  0.00  0.00    -0.166 F 
ATOM     19  C   UNL     1      32.137 -20.797 -19.933  0.00  0.00    +0.419 C 
ENDBRANCH   8  19
ENDBRANCH   4   6
BRANCH   1  20
ATOM     20  C   UNL     1      37.826 -23.406 -15.372  0.00  0.00    +0.092 C 
ATOM     21  C   UNL     1      37.268 -23.834 -14.230  0.00  0.00    +0.077 C 
BRANCH  21  24
ATOM     22  O   UNL     1      36.262 -22.143 -12.877  0.00  0.00    -0.269 OA
ATOM     23  N   UNL     1      34.911 -23.607 -14.072  0.00  0.00    -0.231 N 
ATOM     24  C   UNL     1      36.118 -23.091 -13.642  0.00  0.00    +0.263 C 
ATOM     25  H   UNL     1      34.880 -24.372 -14.690  0.00  0.00    +0.173 HD
BRANCH  23  26
ATOM     26  N   UNL     1      33.763 -23.024 -13.619  0.00  0.00    -0.248 N 
ATOM     27  H   UNL     1      33.689 -22.740 -12.679  0.00  0.00    +0.172 HD
ATOM     28  N   UNL     1      31.481 -22.515 -13.990  0.00  0.00    -0.228 NA
ATOM     29  C   UNL     1      32.691 -22.834 -14.499  0.00  0.00    +0.144 C 
ATOM     30  C   UNL     1      32.949 -22.988 -15.852  0.00  0.00    +0.036 C 
ATOM     31  C   UNL     1      31.894 -22.804 -16.740  0.00  0.00    +0.005 C 
ATOM     32  C   UNL     1      30.634 -22.474 -16.254  0.00  0.00    +0.021 C 
ATOM     33  C   UNL     1      30.481 -22.343 -14.883  0.00  0.00    +0.100 C 
ENDBRANCH  23  26
ENDBRANCH  21  24
ENDBRANCH   1  20
TORSDOF 6
ENDMDL
MODEL 9
REMARK VINA RESULT:     -10.8      4.897      7.775
REMARK  Name = 71492799
REMARK  6 active torsions:
REMARK  status: ('A' for Active; 'I' for Inactive)
REMARK    1  A    between atoms: N_1  and  C_20
REMARK    2  A    between atoms: C_4  and  C_6
REMARK    3  A    between atoms: C_7  and  C_15
REMARK    4  A    between atoms: C_8  and  C_19
REMARK    5  A    between atoms: C_21  and  C_24
REMARK    6  A    between atoms: N_23  and  N_26
REMARK                            x       y       z     vdW  Elec       q    Type
REMARK                         _______ _______ _______ _____ _____    ______ ____
ROOT
ATOM      1  N   UNL     1      34.039 -21.527 -19.066  0.00  0.00    -0.176 N 
ATOM      2  N   UNL     1      33.513 -22.160 -18.007  0.00  0.00    -0.122 NA
ATOM      3  N   UNL     1      31.842 -20.967 -18.757  0.00  0.00    -0.194 NA
ATOM      4  C   UNL     1      32.206 -21.821 -17.829  0.00  0.00    +0.050 C 
ATOM      5  C   UNL     1      32.987 -20.819 -19.485  0.00  0.00    +0.252 C 
ENDROOT
BRANCH   4   6
ATOM      6  C   UNL     1      31.360 -22.327 -16.785  0.00  0.00    +0.063 C 
ATOM      7  C   UNL     1      29.153 -22.820 -15.937  0.00  0.00    +0.072 C 
ATOM      8  C   UNL     1      31.100 -23.307 -14.593  0.00  0.00    +0.072 C 
ATOM      9  C   UNL     1      31.923 -22.816 -15.607  0.00  0.00    +0.014 C 
ATOM     10  C   UNL     1      29.975 -22.329 -16.949  0.00  0.00    +0.014 C 
ATOM     11  C   UNL     1      29.715 -23.310 -14.757  0.00  0.00    +0.008 C 
BRANCH   7  15
ATOM     12  F   UNL     1      26.983 -22.542 -14.969  0.00  0.00    -0.166 F 
ATOM     13  F   UNL     1      27.227 -21.916 -17.030  0.00  0.00    -0.166 F 
ATOM     14  F   UNL     1      27.198 -24.033 -16.537  0.00  0.00    -0.166 F 
ATOM     15  C   UNL     1      27.672 -22.825 -16.113  0.00  0.00    +0.419 C 
ENDBRANCH   7  15
BRANCH   8  19
ATOM     16  F   UNL     1      31.803 -22.878 -12.362  0.00  0.00    -0.166 F 
ATOM     17  F   UNL     1      30.988 -24.852 -12.770  0.00  0.00    -0.166 F 
ATOM     18  F   UNL     1      32.964 -24.327 -13.494  0.00  0.00    -0.166 F 
ATOM     19  C   UNL     1      31.702 -23.832 -13.332  0.00  0.00    +0.419 C 
ENDBRANCH   8  19
ENDBRANCH   4   6
BRANCH   1  20
ATOM     20  C   UNL     1      35.307 -21.579 -19.592  0.00  0.00    +0.092 C 
ATOM     21  C   UNL     1      36.429 -21.340 -18.897  0.00  0.00    +0.077 C 
BRANCH  21  24
ATOM     22  O   UNL     1      36.717 -19.911 -17.006  0.00  0.00    -0.269 OA
ATOM     23  N   UNL     1      35.808 -22.029 -16.713  0.00  0.00    -0.231 N 
ATOM     24  C   UNL     1      36.347 -20.993 -17.450  0.00  0.00    +0.263 C 
ATOM     25  H   UNL     1      35.533 -22.868 -17.146  0.00  0.00    +0.173 HD
BRANCH  23  26
ATOM     26  N   UNL     1      35.666 -21.854 -15.366  0.00  0.00    -0.248 N 
ATOM     27  H   UNL     1      35.414 -20.974 -15.004  0.00  0.00    +0.172 HD
ATOM     28  N   UNL     1      36.008 -22.696 -13.180  0.00  0.00    -0.228 NA
ATOM     29  C   UNL     1      35.882 -22.936 -14.504  0.00  0.00    +0.144 C 
ATOM     30  C   UNL     1      35.953 -24.196 -15.076  0.00  0.00    +0.036 C 
ATOM     31  C   UNL     1      36.168 -25.281 -14.232  0.00  0.00    +0.005 C 
ATOM     32  C   UNL     1      36.302 -25.076 -12.865  0.00  0.00    +0.021 C 
ATOM     33  C   UNL     1      36.216 -23.776 -12.392  0.00  0.00    +0.100 C 
ENDBRANCH  23  26
ENDBRANCH  21  24
ENDBRANCH   1  20
TORSDOF 6
ENDMDL
