MODEL 1
REMARK VINA RESULT:     -12.3      0.000      0.000
REMARK  Name = 25011731
REMARK  3 active torsions:
REMARK  status: ('A' for Active; 'I' for Inactive)
REMARK    1  A    between atoms: N_1  and  C_24
REMARK    2  A    between atoms: N_2  and  C_15
REMARK    3  A    between atoms: C_21  and  N_28
REMARK                            x       y       z     vdW  Elec       q    Type
REMARK                         _______ _______ _______ _____ _____    ______ ____
ROOT
ATOM      1  N   UNL     1      31.969 -21.355 -18.354  0.00  0.00    -0.247 N 
ATOM      2  N   UNL     1      33.509 -24.310 -15.005  0.00  0.00    -0.284 N 
ATOM      3  N   UNL     1      32.754 -22.819 -16.701  0.00  0.00    -0.322 NA
ATOM      4  N   UNL     1      30.416 -22.255 -16.848  0.00  0.00    -0.170 NA
ATOM      5  C   UNL     1      31.700 -22.184 -17.247  0.00  0.00    +0.150 C 
ATOM      6  C   UNL     1      32.461 -23.603 -15.643  0.00  0.00    +0.198 C 
ATOM      7  C   UNL     1      31.187 -23.762 -15.135  0.00  0.00    +0.070 C 
ATOM      8  C   UNL     1      30.194 -23.057 -15.785  0.00  0.00    +0.116 C 
ATOM      9  H   UNL     1      31.170 -20.912 -18.719  0.00  0.00    +0.165 HD
ATOM     10  H   UNL     1      33.224 -25.161 -14.598  0.00  0.00    +0.155 HD
ENDROOT
BRANCH   2  15
ATOM     11 CL   UNL     1      34.274 -21.380 -14.629  0.00  0.00    -0.081 Cl
ATOM     12  O   UNL     1      35.525 -26.381 -15.012  0.00  0.00    -0.433 OA
ATOM     13  O   UNL     1      37.882 -25.964 -14.734  0.00  0.00    -0.435 OA
ATOM     14  C   UNL     1      35.800 -25.058 -14.850  0.00  0.00    +0.191 C 
ATOM     15  C   UNL     1      34.876 -24.033 -14.839  0.00  0.00    +0.098 C 
ATOM     16  C   UNL     1      37.146 -24.820 -14.692  0.00  0.00    +0.178 C 
ATOM     17  C   UNL     1      35.352 -22.732 -14.658  0.00  0.00    +0.074 C 
ATOM     18  C   UNL     1      37.642 -23.545 -14.512  0.00  0.00    +0.041 C 
ATOM     19  C   UNL     1      36.848 -26.949 -14.939  0.00  0.00    +0.429 C 
ATOM     20  C   UNL     1      36.727 -22.490 -14.496  0.00  0.00    +0.016 C 
ENDBRANCH   2  15
BRANCH   1  24
ATOM     21  C   UNL     1      34.343 -19.702 -20.669  0.00  0.00    +0.049 C 
ATOM     22  C   UNL     1      33.165 -20.017 -19.991  0.00  0.00    +0.030 C 
ATOM     23  C   UNL     1      35.515 -20.408 -20.396  0.00  0.00    +0.015 C 
ATOM     24  C   UNL     1      33.159 -21.037 -19.041  0.00  0.00    +0.059 C 
ATOM     25  C   UNL     1      35.509 -21.428 -19.445  0.00  0.00    +0.003 C 
ATOM     26  C   UNL     1      34.332 -21.743 -18.768  0.00  0.00    +0.015 C 
BRANCH  21  28
ATOM     27  O   UNL     1      34.603 -16.732 -23.634  0.00  0.00    -0.350 OA
ATOM     28  N   UNL     1      34.350 -18.679 -21.623  0.00  0.00    -0.303 N 
ATOM     29  C   UNL     1      35.112 -17.450 -21.373  0.00  0.00    +0.123 C 
ATOM     30  C   UNL     1      34.205 -19.049 -23.038  0.00  0.00    +0.123 C 
ATOM     31  C   UNL     1      34.589 -16.329 -22.264  0.00  0.00    +0.164 C 
ATOM     32  C   UNL     1      33.730 -17.842 -23.839  0.00  0.00    +0.164 C 
ENDBRANCH  21  28
ENDBRANCH   1  24
TORSDOF 3
ENDMDL
MODEL 2
REMARK VINA RESULT:     -11.2      2.044      2.605
REMARK  Name = 25011731
REMARK  3 active torsions:
REMARK  status: ('A' for Active; 'I' for Inactive)
REMARK    1  A    between atoms: N_1  and  C_24
REMARK    2  A    between atoms: N_2  and  C_15
REMARK    3  A    between atoms: C_21  and  N_28
REMARK                            x       y       z     vdW  Elec       q    Type
REMARK                         _______ _______ _______ _____ _____    ______ ____
ROOT
ATOM      1  N   UNL     1      32.637 -21.996 -17.132  0.00  0.00    -0.247 N 
ATOM      2  N   UNL     1      34.275 -25.105 -13.975  0.00  0.00    -0.284 N 
ATOM      3  N   UNL     1      33.471 -23.535 -15.575  0.00  0.00    -0.322 NA
ATOM      4  N   UNL     1      31.124 -22.991 -15.645  0.00  0.00    -0.170 NA
ATOM      5  C   UNL     1      32.399 -22.884 -16.065  0.00  0.00    +0.150 C 
ATOM      6  C   UNL     1      33.207 -24.378 -14.554  0.00  0.00    +0.198 C 
ATOM      7  C   UNL     1      31.945 -24.578 -14.031  0.00  0.00    +0.070 C 
ATOM      8  C   UNL     1      30.932 -23.851 -14.622  0.00  0.00    +0.116 C 
ATOM      9  H   UNL     1      31.826 -21.543 -17.457  0.00  0.00    +0.165 HD
ATOM     10  H   UNL     1      34.007 -25.980 -13.609  0.00  0.00    +0.155 HD
ENDROOT
BRANCH   2  15
ATOM     11 CL   UNL     1      36.201 -26.663 -15.757  0.00  0.00    -0.081 Cl
ATOM     12  O   UNL     1      35.254 -23.155 -12.081  0.00  0.00    -0.433 OA
ATOM     13  O   UNL     1      37.586 -22.631 -11.774  0.00  0.00    -0.435 OA
ATOM     14  C   UNL     1      36.060 -23.882 -12.902  0.00  0.00    +0.191 C 
ATOM     15  C   UNL     1      35.642 -24.822 -13.822  0.00  0.00    +0.098 C 
ATOM     16  C   UNL     1      37.392 -23.583 -12.727  0.00  0.00    +0.178 C 
ATOM     17  C   UNL     1      36.622 -25.469 -14.579  0.00  0.00    +0.074 C 
ATOM     18  C   UNL     1      38.379 -24.206 -13.462  0.00  0.00    +0.041 C 
ATOM     19  C   UNL     1      36.228 -22.366 -11.368  0.00  0.00    +0.429 C 
ATOM     20  C   UNL     1      37.982 -25.163 -14.400  0.00  0.00    +0.016 C 
ENDBRANCH   2  15
BRANCH   1  24
ATOM     21  C   UNL     1      34.886 -20.476 -19.655  0.00  0.00    +0.049 C 
ATOM     22  C   UNL     1      33.725 -20.839 -18.971  0.00  0.00    +0.030 C 
ATOM     23  C   UNL     1      36.130 -20.900 -19.190  0.00  0.00    +0.015 C 
ATOM     24  C   UNL     1      33.809 -21.628 -17.824  0.00  0.00    +0.059 C 
ATOM     25  C   UNL     1      36.215 -21.688 -18.043  0.00  0.00    +0.003 C 
ATOM     26  C   UNL     1      35.055 -22.052 -17.360  0.00  0.00    +0.015 C 
BRANCH  21  28
ATOM     27  O   UNL     1      34.572 -17.881 -22.949  0.00  0.00    -0.350 OA
ATOM     28  N   UNL     1      34.801 -19.685 -20.806  0.00  0.00    -0.303 N 
ATOM     29  C   UNL     1      33.498 -19.443 -21.434  0.00  0.00    +0.123 C 
ATOM     30  C   UNL     1      35.791 -18.614 -20.984  0.00  0.00    +0.123 C 
ATOM     31  C   UNL     1      33.696 -19.007 -22.882  0.00  0.00    +0.164 C 
ATOM     32  C   UNL     1      35.867 -18.223 -22.455  0.00  0.00    +0.164 C 
ENDBRANCH  21  28
ENDBRANCH   1  24
TORSDOF 3
ENDMDL
MODEL 3
REMARK VINA RESULT:     -11.1      1.731      2.197
REMARK  Name = 25011731
REMARK  3 active torsions:
REMARK  status: ('A' for Active; 'I' for Inactive)
REMARK    1  A    between atoms: N_1  and  C_24
REMARK    2  A    between atoms: N_2  and  C_15
REMARK    3  A    between atoms: C_21  and  N_28
REMARK                            x       y       z     vdW  Elec       q    Type
REMARK                         _______ _______ _______ _____ _____    ______ ____
ROOT
ATOM      1  N   UNL     1      32.264 -21.394 -18.373  0.00  0.00    -0.247 N 
ATOM      2  N   UNL     1      34.122 -24.305 -15.149  0.00  0.00    -0.284 N 
ATOM      3  N   UNL     1      33.206 -22.836 -16.784  0.00  0.00    -0.322 NA
ATOM      4  N   UNL     1      30.858 -22.296 -16.729  0.00  0.00    -0.170 NA
ATOM      5  C   UNL     1      32.102 -22.216 -17.240  0.00  0.00    +0.150 C 
ATOM      6  C   UNL     1      33.015 -23.614 -15.698  0.00  0.00    +0.198 C 
ATOM      7  C   UNL     1      31.792 -23.781 -15.079  0.00  0.00    +0.070 C 
ATOM      8  C   UNL     1      30.739 -23.090 -15.644  0.00  0.00    +0.116 C 
ATOM      9  H   UNL     1      31.430 -20.962 -18.669  0.00  0.00    +0.165 HD
ATOM     10  H   UNL     1      33.882 -25.155 -14.713  0.00  0.00    +0.155 HD
ENDROOT
BRANCH   2  15
ATOM     11 CL   UNL     1      35.962 -26.538 -14.179  0.00  0.00    -0.081 Cl
ATOM     12  O   UNL     1      35.190 -21.737 -15.931  0.00  0.00    -0.433 OA
ATOM     13  O   UNL     1      37.534 -21.182 -15.875  0.00  0.00    -0.435 OA
ATOM     14  C   UNL     1      35.956 -22.771 -15.489  0.00  0.00    +0.191 C 
ATOM     15  C   UNL     1      35.495 -24.014 -15.106  0.00  0.00    +0.098 C 
ATOM     16  C   UNL     1      37.295 -22.455 -15.458  0.00  0.00    +0.178 C 
ATOM     17  C   UNL     1      36.439 -24.953 -14.680  0.00  0.00    +0.074 C 
ATOM     18  C   UNL     1      38.247 -23.363 -15.042  0.00  0.00    +0.041 C 
ATOM     19  C   UNL     1      36.197 -20.732 -16.171  0.00  0.00    +0.429 C 
ATOM     20  C   UNL     1      37.806 -24.629 -14.649  0.00  0.00    +0.016 C 
ENDBRANCH   2  15
BRANCH   1  24
ATOM     21  C   UNL     1      34.440 -19.674 -20.829  0.00  0.00    +0.049 C 
ATOM     22  C   UNL     1      33.329 -19.993 -20.047  0.00  0.00    +0.030 C 
ATOM     23  C   UNL     1      35.606 -20.431 -20.726  0.00  0.00    +0.015 C 
ATOM     24  C   UNL     1      33.385 -21.071 -19.164  0.00  0.00    +0.059 C 
ATOM     25  C   UNL     1      35.663 -21.509 -19.842  0.00  0.00    +0.003 C 
ATOM     26  C   UNL     1      34.553 -21.828 -19.061  0.00  0.00    +0.015 C 
BRANCH  21  28
ATOM     27  O   UNL     1      34.512 -16.516 -23.605  0.00  0.00    -0.350 OA
ATOM     28  N   UNL     1      34.384 -18.593 -21.716  0.00  0.00    -0.303 N 
ATOM     29  C   UNL     1      35.106 -17.355 -21.407  0.00  0.00    +0.123 C 
ATOM     30  C   UNL     1      34.216 -18.880 -23.147  0.00  0.00    +0.123 C 
ATOM     31  C   UNL     1      34.519 -16.201 -22.213  0.00  0.00    +0.164 C 
ATOM     32  C   UNL     1      33.676 -17.645 -23.859  0.00  0.00    +0.164 C 
ENDBRANCH  21  28
ENDBRANCH   1  24
TORSDOF 3
ENDMDL
MODEL 4
REMARK VINA RESULT:     -10.0      3.537      6.305
REMARK  Name = 25011731
REMARK  3 active torsions:
REMARK  status: ('A' for Active; 'I' for Inactive)
REMARK    1  A    between atoms: N_1  and  C_24
REMARK    2  A    between atoms: N_2  and  C_15
REMARK    3  A    between atoms: C_21  and  N_28
REMARK                            x       y       z     vdW  Elec       q    Type
REMARK                         _______ _______ _______ _____ _____    ______ ____
ROOT
ATOM      1  N   UNL     1      32.811 -22.132 -17.778  0.00  0.00    -0.247 N 
ATOM      2  N   UNL     1      36.892 -22.181 -15.399  0.00  0.00    -0.284 N 
ATOM      3  N   UNL     1      34.824 -22.165 -16.580  0.00  0.00    -0.322 NA
ATOM      4  N   UNL     1      34.740 -21.330 -18.839  0.00  0.00    -0.170 NA
ATOM      5  C   UNL     1      34.193 -21.862 -17.730  0.00  0.00    +0.150 C 
ATOM      6  C   UNL     1      36.146 -21.894 -16.568  0.00  0.00    +0.198 C 
ATOM      7  C   UNL     1      36.827 -21.349 -17.638  0.00  0.00    +0.070 C 
ATOM      8  C   UNL     1      36.065 -21.084 -18.758  0.00  0.00    +0.116 C 
ATOM      9  H   UNL     1      32.392 -21.895 -18.638  0.00  0.00    +0.165 HD
ATOM     10  H   UNL     1      37.661 -21.581 -15.262  0.00  0.00    +0.155 HD
ENDROOT
BRANCH   2  15
ATOM     11 CL   UNL     1      34.255 -22.181 -13.865  0.00  0.00    -0.081 Cl
ATOM     12  O   UNL     1      38.963 -24.103 -14.791  0.00  0.00    -0.433 OA
ATOM     13  O   UNL     1      38.771 -25.791 -13.083  0.00  0.00    -0.435 OA
ATOM     14  C   UNL     1      37.767 -24.049 -14.144  0.00  0.00    +0.191 C 
ATOM     15  C   UNL     1      36.748 -23.154 -14.397  0.00  0.00    +0.098 C 
ATOM     16  C   UNL     1      37.657 -25.014 -13.168  0.00  0.00    +0.178 C 
ATOM     17  C   UNL     1      35.588 -23.257 -13.625  0.00  0.00    +0.074 C 
ATOM     18  C   UNL     1      36.523 -25.137 -12.393  0.00  0.00    +0.041 C 
ATOM     19  C   UNL     1      39.595 -25.207 -14.112  0.00  0.00    +0.429 C 
ATOM     20  C   UNL     1      35.476 -24.242 -12.629  0.00  0.00    +0.016 C 
ENDBRANCH   2  15
BRANCH   1  24
ATOM     21  C   UNL     1      29.680 -22.833 -15.925  0.00  0.00    +0.049 C 
ATOM     22  C   UNL     1      30.570 -22.295 -16.856  0.00  0.00    +0.030 C 
ATOM     23  C   UNL     1      30.133 -23.752 -14.978  0.00  0.00    +0.015 C 
ATOM     24  C   UNL     1      31.911 -22.675 -16.838  0.00  0.00    +0.059 C 
ATOM     25  C   UNL     1      31.475 -24.132 -14.961  0.00  0.00    +0.003 C 
ATOM     26  C   UNL     1      32.364 -23.594 -15.890  0.00  0.00    +0.015 C 
BRANCH  21  28
ATOM     27  O   UNL     1      25.569 -21.951 -15.902  0.00  0.00    -0.350 OA
ATOM     28  N   UNL     1      28.335 -22.453 -15.942  0.00  0.00    -0.303 N 
ATOM     29  C   UNL     1      27.522 -22.689 -17.139  0.00  0.00    +0.123 C 
ATOM     30  C   UNL     1      27.596 -22.464 -14.671  0.00  0.00    +0.123 C 
ATOM     31  C   UNL     1      26.297 -21.781 -17.119  0.00  0.00    +0.164 C 
ATOM     32  C   UNL     1      26.367 -21.567 -14.783  0.00  0.00    +0.164 C 
ENDBRANCH  21  28
ENDBRANCH   1  24
TORSDOF 3
ENDMDL
MODEL 5
REMARK VINA RESULT:     -10.0      4.023      6.626
REMARK  Name = 25011731
REMARK  3 active torsions:
REMARK  status: ('A' for Active; 'I' for Inactive)
REMARK    1  A    between atoms: N_1  and  C_24
REMARK    2  A    between atoms: N_2  and  C_15
REMARK    3  A    between atoms: C_21  and  N_28
REMARK                            x       y       z     vdW  Elec       q    Type
REMARK                         _______ _______ _______ _____ _____    ______ ____
ROOT
ATOM      1  N   UNL     1      33.156 -22.202 -17.299  0.00  0.00    -0.247 N 
ATOM      2  N   UNL     1      37.170 -22.564 -14.835  0.00  0.00    -0.284 N 
ATOM      3  N   UNL     1      35.136 -22.391 -16.059  0.00  0.00    -0.322 NA
ATOM      4  N   UNL     1      35.138 -21.395 -18.254  0.00  0.00    -0.170 NA
ATOM      5  C   UNL     1      34.545 -21.985 -17.199  0.00  0.00    +0.150 C 
ATOM      6  C   UNL     1      36.465 -22.169 -15.997  0.00  0.00    +0.198 C 
ATOM      7  C   UNL     1      37.192 -21.573 -17.009  0.00  0.00    +0.070 C 
ATOM      8  C   UNL     1      36.468 -21.203 -18.124  0.00  0.00    +0.116 C 
ATOM      9  H   UNL     1      32.768 -21.890 -18.149  0.00  0.00    +0.165 HD
ATOM     10  H   UNL     1      37.955 -22.003 -14.637  0.00  0.00    +0.155 HD
ENDROOT
BRANCH   2  15
ATOM     11 CL   UNL     1      39.267 -24.780 -14.784  0.00  0.00    -0.081 Cl
ATOM     12  O   UNL     1      34.898 -22.630 -13.051  0.00  0.00    -0.433 OA
ATOM     13  O   UNL     1      34.499 -24.383 -11.446  0.00  0.00    -0.435 OA
ATOM     14  C   UNL     1      35.865 -23.587 -13.079  0.00  0.00    +0.191 C 
ATOM     15  C   UNL     1      36.968 -23.600 -13.908  0.00  0.00    +0.098 C 
ATOM     16  C   UNL     1      35.638 -24.588 -12.162  0.00  0.00    +0.178 C 
ATOM     17  C   UNL     1      37.856 -24.672 -13.789  0.00  0.00    +0.074 C 
ATOM     18  C   UNL     1      36.499 -25.656 -12.024  0.00  0.00    +0.041 C 
ATOM     19  C   UNL     1      34.034 -23.142 -12.015  0.00  0.00    +0.429 C 
ATOM     20  C   UNL     1      37.624 -25.693 -12.853  0.00  0.00    +0.016 C 
ENDBRANCH   2  15
BRANCH   1  24
ATOM     21  C   UNL     1      29.939 -22.991 -15.639  0.00  0.00    +0.049 C 
ATOM     22  C   UNL     1      30.870 -22.420 -16.508  0.00  0.00    +0.030 C 
ATOM     23  C   UNL     1      30.354 -23.921 -14.686  0.00  0.00    +0.015 C 
ATOM     24  C   UNL     1      32.215 -22.778 -16.422  0.00  0.00    +0.059 C 
ATOM     25  C   UNL     1      31.699 -24.280 -14.601  0.00  0.00    +0.003 C 
ATOM     26  C   UNL     1      32.629 -23.709 -15.468  0.00  0.00    +0.015 C 
BRANCH  21  28
ATOM     27  O   UNL     1      25.819 -22.170 -15.808  0.00  0.00    -0.350 OA
ATOM     28  N   UNL     1      28.590 -22.632 -15.724  0.00  0.00    -0.303 N 
ATOM     29  C   UNL     1      27.821 -22.958 -16.930  0.00  0.00    +0.123 C 
ATOM     30  C   UNL     1      27.809 -22.572 -14.481  0.00  0.00    +0.123 C 
ATOM     31  C   UNL     1      26.584 -22.068 -17.009  0.00  0.00    +0.164 C 
ATOM     32  C   UNL     1      26.574 -21.702 -14.691  0.00  0.00    +0.164 C 
ENDBRANCH  21  28
ENDBRANCH   1  24
TORSDOF 3
ENDMDL
MODEL 6
REMARK VINA RESULT:     -10.0      8.772     15.198
REMARK  Name = 25011731
REMARK  3 active torsions:
REMARK  status: ('A' for Active; 'I' for Inactive)
REMARK    1  A    between atoms: N_1  and  C_24
REMARK    2  A    between atoms: N_2  and  C_15
REMARK    3  A    between atoms: C_21  and  N_28
REMARK                            x       y       z     vdW  Elec       q    Type
REMARK                         _______ _______ _______ _____ _____    ______ ____
ROOT
ATOM      1  N   UNL     1      31.825 -11.209 -20.863  0.00  0.00    -0.247 N 
ATOM      2  N   UNL     1      31.990  -6.604 -21.905  0.00  0.00    -0.284 N 
ATOM      3  N   UNL     1      31.915  -8.930 -21.401  0.00  0.00    -0.322 NA
ATOM      4  N   UNL     1      31.218  -9.660 -19.212  0.00  0.00    -0.170 NA
ATOM      5  C   UNL     1      31.644  -9.867 -20.473  0.00  0.00    +0.150 C 
ATOM      6  C   UNL     1      31.730  -7.657 -20.995  0.00  0.00    +0.198 C 
ATOM      7  C   UNL     1      31.297  -7.310 -19.730  0.00  0.00    +0.070 C 
ATOM      8  C   UNL     1      31.055  -8.364 -18.873  0.00  0.00    +0.116 C 
ATOM      9  H   UNL     1      31.615 -11.858 -20.153  0.00  0.00    +0.165 HD
ATOM     10  H   UNL     1      32.290  -5.771 -21.474  0.00  0.00    +0.155 HD
ENDROOT
BRANCH   2  15
ATOM     11 CL   UNL     1      29.531  -7.862 -23.202  0.00  0.00    -0.081 Cl
ATOM     12  O   UNL     1      34.015  -5.309 -23.510  0.00  0.00    -0.433 OA
ATOM     13  O   UNL     1      33.919  -5.134 -25.911  0.00  0.00    -0.435 OA
ATOM     14  C   UNL     1      32.897  -5.889 -24.026  0.00  0.00    +0.191 C 
ATOM     15  C   UNL     1      31.903  -6.518 -23.305  0.00  0.00    +0.098 C 
ATOM     16  C   UNL     1      32.842  -5.789 -25.398  0.00  0.00    +0.178 C 
ATOM     17  C   UNL     1      30.826  -7.055 -24.015  0.00  0.00    +0.074 C 
ATOM     18  C   UNL     1      31.790  -6.310 -26.123  0.00  0.00    +0.041 C 
ATOM     19  C   UNL     1      34.658  -4.834 -24.710  0.00  0.00    +0.429 C 
ATOM     20  C   UNL     1      30.770  -6.952 -25.415  0.00  0.00    +0.016 C 
ENDBRANCH   2  15
BRANCH   1  24
ATOM     21  C   UNL     1      33.115 -13.710 -23.273  0.00  0.00    +0.049 C 
ATOM     22  C   UNL     1      32.697 -13.123 -22.078  0.00  0.00    +0.030 C 
ATOM     23  C   UNL     1      33.081 -12.977 -24.459  0.00  0.00    +0.015 C 
ATOM     24  C   UNL     1      32.248 -11.803 -22.070  0.00  0.00    +0.059 C 
ATOM     25  C   UNL     1      32.631 -11.657 -24.451  0.00  0.00    +0.003 C 
ATOM     26  C   UNL     1      32.214 -11.070 -23.257  0.00  0.00    +0.015 C 
BRANCH  21  28
ATOM     27  O   UNL     1      34.729 -17.592 -23.353  0.00  0.00    -0.350 OA
ATOM     28  N   UNL     1      33.567 -15.034 -23.282  0.00  0.00    -0.303 N 
ATOM     29  C   UNL     1      33.686 -15.758 -24.552  0.00  0.00    +0.123 C 
ATOM     30  C   UNL     1      34.506 -15.452 -22.232  0.00  0.00    +0.123 C 
ATOM     31  C   UNL     1      33.703 -17.260 -24.289  0.00  0.00    +0.164 C 
ATOM     32  C   UNL     1      34.478 -16.971 -22.093  0.00  0.00    +0.164 C 
ENDBRANCH  21  28
ENDBRANCH   1  24
TORSDOF 3
ENDMDL
MODEL 7
REMARK VINA RESULT:      -9.7     10.124     14.878
REMARK  Name = 25011731
REMARK  3 active torsions:
REMARK  status: ('A' for Active; 'I' for Inactive)
REMARK    1  A    between atoms: N_1  and  C_24
REMARK    2  A    between atoms: N_2  and  C_15
REMARK    3  A    between atoms: C_21  and  N_28
REMARK                            x       y       z     vdW  Elec       q    Type
REMARK                         _______ _______ _______ _____ _____    ______ ____
ROOT
ATOM      1  N   UNL     1      32.471  -6.369 -21.209  0.00  0.00    -0.247 N 
ATOM      2  N   UNL     1      31.312 -10.938 -20.887  0.00  0.00    -0.284 N 
ATOM      3  N   UNL     1      31.904  -8.639 -21.071  0.00  0.00    -0.322 NA
ATOM      4  N   UNL     1      31.516  -7.150 -19.216  0.00  0.00    -0.170 NA
ATOM      5  C   UNL     1      31.937  -7.438 -20.463  0.00  0.00    +0.150 C 
ATOM      6  C   UNL     1      31.387  -9.639 -20.328  0.00  0.00    +0.198 C 
ATOM      7  C   UNL     1      30.920  -9.476 -19.039  0.00  0.00    +0.070 C 
ATOM      8  C   UNL     1      31.011  -8.196 -18.530  0.00  0.00    +0.116 C 
ATOM      9  H   UNL     1      32.476  -5.513 -20.724  0.00  0.00    +0.165 HD
ATOM     10  H   UNL     1      30.561 -11.475 -20.545  0.00  0.00    +0.155 HD
ENDROOT
BRANCH   2  15
ATOM     11 CL   UNL     1      31.552  -9.630 -23.634  0.00  0.00    -0.081 Cl
ATOM     12  O   UNL     1      32.656 -13.430 -20.309  0.00  0.00    -0.433 OA
ATOM     13  O   UNL     1      34.018 -14.624 -21.898  0.00  0.00    -0.435 OA
ATOM     14  C   UNL     1      32.722 -12.797 -21.512  0.00  0.00    +0.191 C 
ATOM     15  C   UNL     1      32.101 -11.608 -21.837  0.00  0.00    +0.098 C 
ATOM     16  C   UNL     1      33.500 -13.478 -22.420  0.00  0.00    +0.178 C 
ATOM     17  C   UNL     1      32.288 -11.111 -23.129  0.00  0.00    +0.074 C 
ATOM     18  C   UNL     1      33.701 -13.009 -23.701  0.00  0.00    +0.041 C 
ATOM     19  C   UNL     1      33.478 -14.588 -20.562  0.00  0.00    +0.429 C 
ATOM     20  C   UNL     1      33.083 -11.807 -24.056  0.00  0.00    +0.016 C 
ENDBRANCH   2  15
BRANCH   1  24
ATOM     21  C   UNL     1      33.068  -5.225 -24.682  0.00  0.00    +0.049 C 
ATOM     22  C   UNL     1      32.544  -5.305 -23.391  0.00  0.00    +0.030 C 
ATOM     23  C   UNL     1      34.050  -6.125 -25.092  0.00  0.00    +0.015 C 
ATOM     24  C   UNL     1      33.001  -6.287 -22.513  0.00  0.00    +0.059 C 
ATOM     25  C   UNL     1      34.508  -7.108 -24.214  0.00  0.00    +0.003 C 
ATOM     26  C   UNL     1      33.983  -7.189 -22.925  0.00  0.00    +0.015 C 
BRANCH  21  28
ATOM     27  O   UNL     1      31.463  -2.421 -27.373  0.00  0.00    -0.350 OA
ATOM     28  N   UNL     1      32.610  -4.240 -25.563  0.00  0.00    -0.303 N 
ATOM     29  C   UNL     1      32.850  -4.378 -27.004  0.00  0.00    +0.123 C 
ATOM     30  C   UNL     1      31.398  -3.494 -25.199  0.00  0.00    +0.123 C 
ATOM     31  C   UNL     1      32.724  -3.017 -27.680  0.00  0.00    +0.164 C 
ATOM     32  C   UNL     1      31.350  -2.180 -25.971  0.00  0.00    +0.164 C 
ENDBRANCH  21  28
ENDBRANCH   1  24
TORSDOF 3
ENDMDL
MODEL 8
REMARK VINA RESULT:      -9.6      9.366     15.955
REMARK  Name = 25011731
REMARK  3 active torsions:
REMARK  status: ('A' for Active; 'I' for Inactive)
REMARK    1  A    between atoms: N_1  and  C_24
REMARK    2  A    between atoms: N_2  and  C_15
REMARK    3  A    between atoms: C_21  and  N_28
REMARK                            x       y       z     vdW  Elec       q    Type
REMARK                         _______ _______ _______ _____ _____    ______ ____
ROOT
ATOM      1  N   UNL     1      31.560 -10.210 -20.946  0.00  0.00    -0.247 N 
ATOM      2  N   UNL     1      32.776  -5.785 -22.070  0.00  0.00    -0.284 N 
ATOM      3  N   UNL     1      32.173  -8.023 -21.523  0.00  0.00    -0.322 NA
ATOM      4  N   UNL     1      31.014  -8.481 -19.460  0.00  0.00    -0.170 NA
ATOM      5  C   UNL     1      31.584  -8.837 -20.628  0.00  0.00    +0.150 C 
ATOM      6  C   UNL     1      32.177  -6.716 -21.187  0.00  0.00    +0.198 C 
ATOM      7  C   UNL     1      31.628  -6.221 -20.021  0.00  0.00    +0.070 C 
ATOM      8  C   UNL     1      31.055  -7.160 -19.187  0.00  0.00    +0.116 C 
ATOM      9  H   UNL     1      31.120 -10.766 -20.263  0.00  0.00    +0.165 HD
ATOM     10  H   UNL     1      33.161  -4.999 -21.618  0.00  0.00    +0.155 HD
ENDROOT
BRANCH   2  15
ATOM     11 CL   UNL     1      34.677  -7.850 -23.268  0.00  0.00    -0.081 Cl
ATOM     12  O   UNL     1      31.378  -3.901 -23.757  0.00  0.00    -0.433 OA
ATOM     13  O   UNL     1      31.602  -3.819 -26.155  0.00  0.00    -0.435 OA
ATOM     14  C   UNL     1      32.238  -4.844 -24.228  0.00  0.00    +0.191 C 
ATOM     15  C   UNL     1      32.928  -5.765 -23.466  0.00  0.00    +0.098 C 
ATOM     16  C   UNL     1      32.366  -4.798 -25.598  0.00  0.00    +0.178 C 
ATOM     17  C   UNL     1      33.769  -6.659 -24.133  0.00  0.00    +0.074 C 
ATOM     18  C   UNL     1      33.189  -5.669 -26.281  0.00  0.00    +0.041 C 
ATOM     19  C   UNL     1      30.980  -3.254 -24.984  0.00  0.00    +0.429 C 
ATOM     20  C   UNL     1      33.899  -6.612 -25.532  0.00  0.00    +0.016 C 
ENDBRANCH   2  15
BRANCH   1  24
ATOM     21  C   UNL     1      33.051 -12.940 -22.958  0.00  0.00    +0.049 C 
ATOM     22  C   UNL     1      32.573 -12.217 -21.865  0.00  0.00    +0.030 C 
ATOM     23  C   UNL     1      32.996 -12.387 -24.237  0.00  0.00    +0.015 C 
ATOM     24  C   UNL     1      32.043 -10.941 -22.050  0.00  0.00    +0.059 C 
ATOM     25  C   UNL     1      32.465 -11.110 -24.423  0.00  0.00    +0.003 C 
ATOM     26  C   UNL     1      31.989 -10.388 -23.330  0.00  0.00    +0.015 C 
BRANCH  21  28
ATOM     27  O   UNL     1      34.902 -16.669 -22.370  0.00  0.00    -0.350 OA
ATOM     28  N   UNL     1      33.583 -14.220 -22.773  0.00  0.00    -0.303 N 
ATOM     29  C   UNL     1      34.170 -14.941 -23.907  0.00  0.00    +0.123 C 
ATOM     30  C   UNL     1      34.154 -14.549 -21.459  0.00  0.00    +0.123 C 
ATOM     31  C   UNL     1      34.218 -16.434 -23.600  0.00  0.00    +0.164 C 
ATOM     32  C   UNL     1      34.203 -16.063 -21.283  0.00  0.00    +0.164 C 
ENDBRANCH  21  28
ENDBRANCH   1  24
TORSDOF 3
ENDMDL
MODEL 9
REMARK VINA RESULT:      -9.4      2.489      4.457
REMARK  Name = 25011731
REMARK  3 active torsions:
REMARK  status: ('A' for Active; 'I' for Inactive)
REMARK    1  A    between atoms: N_1  and  C_24
REMARK    2  A    between atoms: N_2  and  C_15
REMARK    3  A    between atoms: C_21  and  N_28
REMARK                            x       y       z     vdW  Elec       q    Type
REMARK                         _______ _______ _______ _____ _____    ______ ____
ROOT
ATOM      1  N   UNL     1      36.041 -21.247 -18.273  0.00  0.00    -0.247 N 
ATOM      2  N   UNL     1      33.976 -22.667 -14.268  0.00  0.00    -0.284 N 
ATOM      3  N   UNL     1      34.996 -21.946 -16.295  0.00  0.00    -0.322 NA
ATOM      4  N   UNL     1      37.389 -22.080 -16.547  0.00  0.00    -0.170 NA
ATOM      5  C   UNL     1      36.147 -21.784 -16.975  0.00  0.00    +0.150 C 
ATOM      6  C   UNL     1      35.135 -22.462 -15.056  0.00  0.00    +0.198 C 
ATOM      7  C   UNL     1      36.350 -22.807 -14.500  0.00  0.00    +0.070 C 
ATOM      8  C   UNL     1      37.454 -22.592 -15.299  0.00  0.00    +0.116 C 
ATOM      9  H   UNL     1      36.907 -21.148 -18.731  0.00  0.00    +0.165 HD
ATOM     10  H   UNL     1      34.136 -22.587 -13.299  0.00  0.00    +0.155 HD
ENDROOT
BRANCH   2  15
ATOM     11 CL   UNL     1      33.437 -23.485 -17.158  0.00  0.00    -0.081 Cl
ATOM     12  O   UNL     1      31.827 -22.522 -12.341  0.00  0.00    -0.433 OA
ATOM     13  O   UNL     1      29.525 -23.016 -12.855  0.00  0.00    -0.435 OA
ATOM     14  C   UNL     1      31.653 -22.878 -13.643  0.00  0.00    +0.191 C 
ATOM     15  C   UNL     1      32.644 -22.963 -14.600  0.00  0.00    +0.098 C 
ATOM     16  C   UNL     1      30.338 -23.161 -13.937  0.00  0.00    +0.178 C 
ATOM     17  C   UNL     1      32.270 -23.350 -15.889  0.00  0.00    +0.074 C 
ATOM     18  C   UNL     1      29.942 -23.544 -15.201  0.00  0.00    +0.041 C 
ATOM     19  C   UNL     1      30.474 -22.610 -11.849  0.00  0.00    +0.429 C 
ATOM     20  C   UNL     1      30.927 -23.638 -16.188  0.00  0.00    +0.016 C 
ENDBRANCH   2  15
BRANCH   1  24
ATOM     21  C   UNL     1      34.003 -19.404 -20.758  0.00  0.00    +0.049 C 
ATOM     22  C   UNL     1      35.095 -19.820 -19.995  0.00  0.00    +0.030 C 
ATOM     23  C   UNL     1      32.755 -19.998 -20.570  0.00  0.00    +0.015 C 
ATOM     24  C   UNL     1      34.938 -20.827 -19.044  0.00  0.00    +0.059 C 
ATOM     25  C   UNL     1      32.598 -21.006 -19.618  0.00  0.00    +0.003 C 
ATOM     26  C   UNL     1      33.689 -21.420 -18.856  0.00  0.00    +0.015 C 
BRANCH  21  28
ATOM     27  O   UNL     1      34.714 -16.488 -23.702  0.00  0.00    -0.350 OA
ATOM     28  N   UNL     1      34.159 -18.393 -21.712  0.00  0.00    -0.303 N 
ATOM     29  C   UNL     1      34.970 -17.211 -21.400  0.00  0.00    +0.123 C 
ATOM     30  C   UNL     1      34.121 -18.770 -23.132  0.00  0.00    +0.123 C 
ATOM     31  C   UNL     1      34.600 -16.070 -22.342  0.00  0.00    +0.164 C 
ATOM     32  C   UNL     1      33.796 -17.545 -23.980  0.00  0.00    +0.164 C 
ENDBRANCH  21  28
ENDBRANCH   1  24
TORSDOF 3
ENDMDL
