MODEL 1
REMARK VINA RESULT:     -11.8      0.000      0.000
REMARK  Name = 6102685
REMARK  5 active torsions:
REMARK  status: ('A' for Active; 'I' for Inactive)
REMARK    1  A    between atoms: C_7  and  C_12
REMARK    2  A    between atoms: C_9  and  N_15
REMARK    3  A    between atoms: C_12  and  O_13
REMARK    4  A    between atoms: N_15  and  S_17
REMARK    5  A    between atoms: S_17  and  C_20
REMARK                            x       y       z     vdW  Elec       q    Type
REMARK                         _______ _______ _______ _____ _____    ______ ____
ROOT
ATOM      1  C   UNL     1      33.001 -11.893 -24.242  0.00  0.00    +0.005 C 
ATOM      2  C   UNL     1      33.009 -12.706 -22.948  0.00  0.00    +0.026 C 
ATOM      3  C   UNL     1      32.376 -12.699 -25.373  0.00  0.00    +0.005 C 
ATOM      4  C   UNL     1      33.515 -14.115 -23.134  0.00  0.00    -0.019 C 
ATOM      5  C   UNL     1      33.200 -13.954 -25.654  0.00  0.00    +0.026 C 
ATOM      6  C   UNL     1      33.567 -14.717 -24.406  0.00  0.00    -0.026 C 
ATOM      7  C   UNL     1      33.889 -14.860 -22.005  0.00  0.00    +0.086 C 
ATOM      8  C   UNL     1      34.026 -16.037 -24.524  0.00  0.00    -0.003 C 
ATOM      9  C   UNL     1      34.333 -16.174 -22.136  0.00  0.00    +0.071 C 
ATOM     10  C   UNL     1      34.404 -16.763 -23.395  0.00  0.00    +0.016 C 
ENDROOT
BRANCH   7  12
ATOM     11  O   UNL     1      34.516 -13.361 -20.248  0.00  0.00    -0.245 OA
ATOM     12  C   UNL     1      33.806 -14.276 -20.666  0.00  0.00    +0.339 C 
BRANCH  12  13
ATOM     13  O   UNL     1      32.842 -14.860 -19.911  0.00  0.00    -0.477 OA
ATOM     14  H   UNL     1      32.081 -15.224 -20.319  0.00  0.00    +0.295 HD
ENDBRANCH  12  13
ENDBRANCH   7  12
BRANCH   9  15
ATOM     15  N   UNL     1      34.719 -16.946 -20.994  0.00  0.00    -0.215 N 
ATOM     16  H   UNL     1      34.438 -16.678 -20.088  0.00  0.00    +0.174 HD
BRANCH  15  17
ATOM     17  S   UNL     1      35.688 -18.348 -21.232  0.00  0.00    +0.074 S 
ATOM     18  O   UNL     1      35.704 -18.674 -22.647  0.00  0.00    -0.150 OA
ATOM     19  O   UNL     1      36.938 -18.219 -20.508  0.00  0.00    -0.150 OA
BRANCH  17  20
ATOM     20  C   UNL     1      34.726 -19.598 -20.429  0.00  0.00    +0.125 C 
ATOM     21  C   UNL     1      33.348 -19.567 -20.547  0.00  0.00    +0.020 C 
ATOM     22  C   UNL     1      35.371 -20.580 -19.701  0.00  0.00    +0.020 C 
ATOM     23  C   UNL     1      32.590 -20.552 -19.914  0.00  0.00    +0.001 C 
ATOM     24  C   UNL     1      34.612 -21.565 -19.067  0.00  0.00    +0.001 C 
ATOM     25  C   UNL     1      33.222 -21.551 -19.174  0.00  0.00    +0.000 C 
ENDBRANCH  17  20
ENDBRANCH  15  17
ENDBRANCH   9  15
TORSDOF 5
ENDMDL
MODEL 2
REMARK VINA RESULT:     -11.4      2.136      2.986
REMARK  Name = 6102685
REMARK  5 active torsions:
REMARK  status: ('A' for Active; 'I' for Inactive)
REMARK    1  A    between atoms: C_7  and  C_12
REMARK    2  A    between atoms: C_9  and  N_15
REMARK    3  A    between atoms: C_12  and  O_13
REMARK    4  A    between atoms: N_15  and  S_17
REMARK    5  A    between atoms: S_17  and  C_20
REMARK                            x       y       z     vdW  Elec       q    Type
REMARK                         _______ _______ _______ _____ _____    ______ ____
ROOT
ATOM      1  C   UNL     1      31.616 -12.212 -22.867  0.00  0.00    +0.005 C 
ATOM      2  C   UNL     1      32.583 -13.176 -23.552  0.00  0.00    +0.026 C 
ATOM      3  C   UNL     1      32.238 -11.645 -21.598  0.00  0.00    +0.005 C 
ATOM      4  C   UNL     1      33.206 -14.169 -22.603  0.00  0.00    -0.019 C 
ATOM      5  C   UNL     1      32.522 -12.763 -20.596  0.00  0.00    +0.026 C 
ATOM      6  C   UNL     1      33.212 -13.954 -21.212  0.00  0.00    -0.026 C 
ATOM      7  C   UNL     1      33.843 -15.305 -23.127  0.00  0.00    +0.086 C 
ATOM      8  C   UNL     1      33.823 -14.897 -20.372  0.00  0.00    -0.003 C 
ATOM      9  C   UNL     1      34.455 -16.229 -22.281  0.00  0.00    +0.071 C 
ATOM     10  C   UNL     1      34.443 -16.027 -20.905  0.00  0.00    +0.016 C 
ENDROOT
BRANCH   7  12
ATOM     11  O   UNL     1      34.867 -15.329 -25.289  0.00  0.00    -0.245 OA
ATOM     12  C   UNL     1      33.889 -15.535 -24.570  0.00  0.00    +0.339 C 
BRANCH  12  13
ATOM     13  O   UNL     1      32.712 -16.011 -25.051  0.00  0.00    -0.477 OA
ATOM     14  H   UNL     1      32.124 -15.440 -25.503  0.00  0.00    +0.295 HD
ENDBRANCH  12  13
ENDBRANCH   7  12
BRANCH   9  15
ATOM     15  N   UNL     1      35.106 -17.393 -22.800  0.00  0.00    -0.215 N 
ATOM     16  H   UNL     1      36.073 -17.385 -22.990  0.00  0.00    +0.174 HD
BRANCH  15  17
ATOM     17  S   UNL     1      34.167 -18.807 -23.088  0.00  0.00    +0.074 S 
ATOM     18  O   UNL     1      32.789 -18.417 -23.318  0.00  0.00    -0.150 OA
ATOM     19  O   UNL     1      34.842 -19.667 -24.041  0.00  0.00    -0.150 OA
BRANCH  17  20
ATOM     20  C   UNL     1      34.217 -19.606 -21.509  0.00  0.00    +0.125 C 
ATOM     21  C   UNL     1      33.029 -19.889 -20.860  0.00  0.00    +0.020 C 
ATOM     22  C   UNL     1      35.443 -19.932 -20.958  0.00  0.00    +0.020 C 
ATOM     23  C   UNL     1      33.069 -20.518 -19.615  0.00  0.00    +0.001 C 
ATOM     24  C   UNL     1      35.482 -20.561 -19.713  0.00  0.00    +0.001 C 
ATOM     25  C   UNL     1      34.295 -20.854 -19.043  0.00  0.00    +0.000 C 
ENDBRANCH  17  20
ENDBRANCH  15  17
ENDBRANCH   9  15
TORSDOF 5
ENDMDL
MODEL 3
REMARK VINA RESULT:     -11.0      2.363      7.830
REMARK  Name = 6102685
REMARK  5 active torsions:
REMARK  status: ('A' for Active; 'I' for Inactive)
REMARK    1  A    between atoms: C_7  and  C_12
REMARK    2  A    between atoms: C_9  and  N_15
REMARK    3  A    between atoms: C_12  and  O_13
REMARK    4  A    between atoms: N_15  and  S_17
REMARK    5  A    between atoms: S_17  and  C_20
REMARK                            x       y       z     vdW  Elec       q    Type
REMARK                         _______ _______ _______ _____ _____    ______ ____
ROOT
ATOM      1  C   UNL     1      33.230 -23.295 -16.247  0.00  0.00    +0.005 C 
ATOM      2  C   UNL     1      32.807 -22.267 -17.294  0.00  0.00    +0.026 C 
ATOM      3  C   UNL     1      34.357 -22.743 -15.383  0.00  0.00    +0.005 C 
ATOM      4  C   UNL     1      33.972 -21.643 -18.021  0.00  0.00    -0.019 C 
ATOM      5  C   UNL     1      35.591 -22.455 -16.235  0.00  0.00    +0.026 C 
ATOM      6  C   UNL     1      35.279 -21.698 -17.501  0.00  0.00    -0.026 C 
ATOM      7  C   UNL     1      33.735 -20.945 -19.216  0.00  0.00    +0.086 C 
ATOM      8  C   UNL     1      36.326 -21.084 -18.205  0.00  0.00    -0.003 C 
ATOM      9  C   UNL     1      34.784 -20.331 -19.899  0.00  0.00    +0.071 C 
ATOM     10  C   UNL     1      36.079 -20.402 -19.396  0.00  0.00    +0.016 C 
ENDROOT
BRANCH   7  12
ATOM     11  O   UNL     1      31.702 -19.809 -19.766  0.00  0.00    -0.245 OA
ATOM     12  C   UNL     1      32.382 -20.836 -19.760  0.00  0.00    +0.339 C 
BRANCH  12  13
ATOM     13  O   UNL     1      31.940 -22.013 -20.272  0.00  0.00    -0.477 OA
ATOM     14  H   UNL     1      32.012 -22.800 -19.770  0.00  0.00    +0.295 HD
ENDBRANCH  12  13
ENDBRANCH   7  12
BRANCH   9  15
ATOM     15  N   UNL     1      34.558 -19.617 -21.119  0.00  0.00    -0.215 N 
ATOM     16  H   UNL     1      33.888 -19.931 -21.769  0.00  0.00    +0.174 HD
BRANCH  15  17
ATOM     17  S   UNL     1      35.484 -18.199 -21.430  0.00  0.00    +0.074 S 
ATOM     18  O   UNL     1      35.368 -17.304 -20.294  0.00  0.00    -0.150 OA
ATOM     19  O   UNL     1      36.795 -18.561 -21.933  0.00  0.00    -0.150 OA
BRANCH  17  20
ATOM     20  C   UNL     1      34.581 -17.458 -22.761  0.00  0.00    +0.125 C 
ATOM     21  C   UNL     1      34.607 -16.083 -22.908  0.00  0.00    +0.020 C 
ATOM     22  C   UNL     1      33.870 -18.269 -23.625  0.00  0.00    +0.020 C 
ATOM     23  C   UNL     1      33.895 -15.499 -23.956  0.00  0.00    +0.001 C 
ATOM     24  C   UNL     1      33.158 -17.685 -24.673  0.00  0.00    +0.001 C 
ATOM     25  C   UNL     1      33.171 -16.301 -24.839  0.00  0.00    +0.000 C 
ENDBRANCH  17  20
ENDBRANCH  15  17
ENDBRANCH   9  15
TORSDOF 5
ENDMDL
MODEL 4
REMARK VINA RESULT:     -10.8      6.150     10.866
REMARK  Name = 6102685
REMARK  5 active torsions:
REMARK  status: ('A' for Active; 'I' for Inactive)
REMARK    1  A    between atoms: C_7  and  C_12
REMARK    2  A    between atoms: C_9  and  N_15
REMARK    3  A    between atoms: C_12  and  O_13
REMARK    4  A    between atoms: N_15  and  S_17
REMARK    5  A    between atoms: S_17  and  C_20
REMARK                            x       y       z     vdW  Elec       q    Type
REMARK                         _______ _______ _______ _____ _____    ______ ____
ROOT
ATOM      1  C   UNL     1      37.269 -25.738 -12.631  0.00  0.00    +0.005 C 
ATOM      2  C   UNL     1      35.989 -24.912 -12.752  0.00  0.00    +0.026 C 
ATOM      3  C   UNL     1      38.494 -24.849 -12.799  0.00  0.00    +0.005 C 
ATOM      4  C   UNL     1      35.992 -23.982 -13.939  0.00  0.00    -0.019 C 
ATOM      5  C   UNL     1      38.512 -24.221 -14.191  0.00  0.00    +0.026 C 
ATOM      6  C   UNL     1      37.186 -23.625 -14.593  0.00  0.00    -0.026 C 
ATOM      7  C   UNL     1      34.779 -23.417 -14.365  0.00  0.00    +0.086 C 
ATOM      8  C   UNL     1      37.139 -22.739 -15.680  0.00  0.00    -0.003 C 
ATOM      9  C   UNL     1      34.748 -22.530 -15.440  0.00  0.00    +0.071 C 
ATOM     10  C   UNL     1      35.926 -22.193 -16.099  0.00  0.00    +0.016 C 
ENDROOT
BRANCH   7  12
ATOM     11  O   UNL     1      32.658 -24.495 -14.111  0.00  0.00    -0.245 OA
ATOM     12  C   UNL     1      33.527 -23.737 -13.681  0.00  0.00    +0.339 C 
BRANCH  12  13
ATOM     13  O   UNL     1      33.417 -23.095 -12.489  0.00  0.00    -0.477 OA
ATOM     14  H   UNL     1      33.957 -23.350 -11.767  0.00  0.00    +0.295 HD
ENDBRANCH  12  13
ENDBRANCH   7  12
BRANCH   9  15
ATOM     15  N   UNL     1      33.519 -21.948 -15.887  0.00  0.00    -0.215 N 
ATOM     16  H   UNL     1      33.124 -21.182 -15.411  0.00  0.00    +0.174 HD
BRANCH  15  17
ATOM     17  S   UNL     1      32.744 -22.614 -17.273  0.00  0.00    +0.074 S 
ATOM     18  O   UNL     1      33.279 -23.940 -17.518  0.00  0.00    -0.150 OA
ATOM     19  O   UNL     1      31.310 -22.420 -17.182  0.00  0.00    -0.150 OA
BRANCH  17  20
ATOM     20  C   UNL     1      33.350 -21.569 -18.568  0.00  0.00    +0.125 C 
ATOM     21  C   UNL     1      34.704 -21.560 -18.848  0.00  0.00    +0.020 C 
ATOM     22  C   UNL     1      32.456 -20.784 -19.272  0.00  0.00    +0.020 C 
ATOM     23  C   UNL     1      35.181 -20.736 -19.867  0.00  0.00    +0.001 C 
ATOM     24  C   UNL     1      32.933 -19.960 -20.292  0.00  0.00    +0.001 C 
ATOM     25  C   UNL     1      34.295 -19.937 -20.590  0.00  0.00    +0.000 C 
ENDBRANCH  17  20
ENDBRANCH  15  17
ENDBRANCH   9  15
TORSDOF 5
ENDMDL
MODEL 5
REMARK VINA RESULT:     -10.8      4.926     10.063
REMARK  Name = 6102685
REMARK  5 active torsions:
REMARK  status: ('A' for Active; 'I' for Inactive)
REMARK    1  A    between atoms: C_7  and  C_12
REMARK    2  A    between atoms: C_9  and  N_15
REMARK    3  A    between atoms: C_12  and  O_13
REMARK    4  A    between atoms: N_15  and  S_17
REMARK    5  A    between atoms: S_17  and  C_20
REMARK                            x       y       z     vdW  Elec       q    Type
REMARK                         _______ _______ _______ _____ _____    ______ ____
ROOT
ATOM      1  C   UNL     1      36.292 -22.955 -11.623  0.00  0.00    +0.005 C 
ATOM      2  C   UNL     1      36.758 -22.804 -13.070  0.00  0.00    +0.026 C 
ATOM      3  C   UNL     1      35.311 -24.114 -11.498  0.00  0.00    +0.005 C 
ATOM      4  C   UNL     1      35.627 -22.842 -14.067  0.00  0.00    -0.019 C 
ATOM      5  C   UNL     1      34.060 -23.848 -12.332  0.00  0.00    +0.026 C 
ATOM      6  C   UNL     1      34.366 -23.371 -13.730  0.00  0.00    -0.026 C 
ATOM      7  C   UNL     1      35.855 -22.390 -15.376  0.00  0.00    +0.086 C 
ATOM      8  C   UNL     1      33.352 -23.404 -14.699  0.00  0.00    -0.003 C 
ATOM      9  C   UNL     1      34.841 -22.438 -16.331  0.00  0.00    +0.071 C 
ATOM     10  C   UNL     1      33.590 -22.942 -15.993  0.00  0.00    +0.016 C 
ENDROOT
BRANCH   7  12
ATOM     11  O   UNL     1      38.211 -22.524 -15.776  0.00  0.00    -0.245 OA
ATOM     12  C   UNL     1      37.166 -21.873 -15.767  0.00  0.00    +0.339 C 
BRANCH  12  13
ATOM     13  O   UNL     1      37.113 -20.565 -16.130  0.00  0.00    -0.477 OA
ATOM     14  H   UNL     1      37.544 -20.276 -16.909  0.00  0.00    +0.295 HD
ENDBRANCH  12  13
ENDBRANCH   7  12
BRANCH   9  15
ATOM     15  N   UNL     1      35.059 -21.979 -17.669  0.00  0.00    -0.215 N 
ATOM     16  H   UNL     1      35.960 -21.715 -17.970  0.00  0.00    +0.174 HD
BRANCH  15  17
ATOM     17  S   UNL     1      33.717 -21.894 -18.743  0.00  0.00    +0.074 S 
ATOM     18  O   UNL     1      33.646 -23.127 -19.506  0.00  0.00    -0.150 OA
ATOM     19  O   UNL     1      32.544 -21.415 -18.037  0.00  0.00    -0.150 OA
BRANCH  17  20
ATOM     20  C   UNL     1      34.227 -20.624 -19.867  0.00  0.00    +0.125 C 
ATOM     21  C   UNL     1      33.284 -20.036 -20.691  0.00  0.00    +0.020 C 
ATOM     22  C   UNL     1      35.556 -20.247 -19.897  0.00  0.00    +0.020 C 
ATOM     23  C   UNL     1      33.686 -19.036 -21.576  0.00  0.00    +0.001 C 
ATOM     24  C   UNL     1      35.958 -19.247 -20.783  0.00  0.00    +0.001 C 
ATOM     25  C   UNL     1      35.023 -18.642 -21.622  0.00  0.00    +0.000 C 
ENDBRANCH  17  20
ENDBRANCH  15  17
ENDBRANCH   9  15
TORSDOF 5
ENDMDL
MODEL 6
REMARK VINA RESULT:     -10.8      9.041     10.898
REMARK  Name = 6102685
REMARK  5 active torsions:
REMARK  status: ('A' for Active; 'I' for Inactive)
REMARK    1  A    between atoms: C_7  and  C_12
REMARK    2  A    between atoms: C_9  and  N_15
REMARK    3  A    between atoms: C_12  and  O_13
REMARK    4  A    between atoms: N_15  and  S_17
REMARK    5  A    between atoms: S_17  and  C_20
REMARK                            x       y       z     vdW  Elec       q    Type
REMARK                         _______ _______ _______ _____ _____    ______ ____
ROOT
ATOM      1  C   UNL     1      37.470 -22.005 -15.786  0.00  0.00    +0.005 C 
ATOM      2  C   UNL     1      36.523 -22.423 -14.661  0.00  0.00    +0.026 C 
ATOM      3  C   UNL     1      36.794 -20.993 -16.702  0.00  0.00    +0.005 C 
ATOM      4  C   UNL     1      35.139 -22.771 -15.148  0.00  0.00    -0.019 C 
ATOM      5  C   UNL     1      35.570 -21.613 -17.371  0.00  0.00    +0.026 C 
ATOM      6  C   UNL     1      34.676 -22.354 -16.410  0.00  0.00    -0.026 C 
ATOM      7  C   UNL     1      34.275 -23.478 -14.297  0.00  0.00    +0.086 C 
ATOM      8  C   UNL     1      33.372 -22.685 -16.808  0.00  0.00    -0.003 C 
ATOM      9  C   UNL     1      32.978 -23.791 -14.702  0.00  0.00    +0.071 C 
ATOM     10  C   UNL     1      32.527 -23.397 -15.957  0.00  0.00    +0.016 C 
ENDROOT
BRANCH   7  12
ATOM     11  O   UNL     1      35.514 -24.795 -12.729  0.00  0.00    -0.245 OA
ATOM     12  C   UNL     1      34.714 -23.889 -12.964  0.00  0.00    +0.339 C 
BRANCH  12  13
ATOM     13  O   UNL     1      34.134 -23.150 -11.983  0.00  0.00    -0.477 OA
ATOM     14  H   UNL     1      34.120 -22.215 -12.046  0.00  0.00    +0.295 HD
ENDBRANCH  12  13
ENDBRANCH   7  12
BRANCH   9  15
ATOM     15  N   UNL     1      32.087 -24.514 -13.846  0.00  0.00    -0.215 N 
ATOM     16  H   UNL     1      32.202 -25.481 -13.702  0.00  0.00    +0.174 HD
BRANCH  15  17
ATOM     17  S   UNL     1      30.807 -23.659 -13.074  0.00  0.00    +0.074 S 
ATOM     18  O   UNL     1      30.176 -24.533 -12.103  0.00  0.00    -0.150 OA
ATOM     19  O   UNL     1      31.261 -22.341 -12.671  0.00  0.00    -0.150 OA
BRANCH  17  20
ATOM     20  C   UNL     1      29.655 -23.450 -14.401  0.00  0.00    +0.125 C 
ATOM     21  C   UNL     1      29.157 -24.570 -15.043  0.00  0.00    +0.020 C 
ATOM     22  C   UNL     1      29.275 -22.172 -14.768  0.00  0.00    +0.020 C 
ATOM     23  C   UNL     1      28.249 -24.405 -16.089  0.00  0.00    +0.001 C 
ATOM     24  C   UNL     1      28.367 -22.008 -15.815  0.00  0.00    +0.001 C 
ATOM     25  C   UNL     1      27.854 -23.124 -16.475  0.00  0.00    +0.000 C 
ENDBRANCH  17  20
ENDBRANCH  15  17
ENDBRANCH   9  15
TORSDOF 5
ENDMDL
MODEL 7
REMARK VINA RESULT:     -10.4      8.246     10.485
REMARK  Name = 6102685
REMARK  5 active torsions:
REMARK  status: ('A' for Active; 'I' for Inactive)
REMARK    1  A    between atoms: C_7  and  C_12
REMARK    2  A    between atoms: C_9  and  N_15
REMARK    3  A    between atoms: C_12  and  O_13
REMARK    4  A    between atoms: N_15  and  S_17
REMARK    5  A    between atoms: S_17  and  C_20
REMARK                            x       y       z     vdW  Elec       q    Type
REMARK                         _______ _______ _______ _____ _____    ______ ____
ROOT
ATOM      1  C   UNL     1      33.214 -21.873 -18.472  0.00  0.00    +0.005 C 
ATOM      2  C   UNL     1      33.180 -22.629 -17.144  0.00  0.00    +0.026 C 
ATOM      3  C   UNL     1      34.583 -22.010 -19.127  0.00  0.00    +0.005 C 
ATOM      4  C   UNL     1      34.378 -22.352 -16.271  0.00  0.00    -0.019 C 
ATOM      5  C   UNL     1      35.663 -21.388 -18.244  0.00  0.00    +0.026 C 
ATOM      6  C   UNL     1      35.563 -21.804 -16.798  0.00  0.00    -0.026 C 
ATOM      7  C   UNL     1      34.327 -22.703 -14.912  0.00  0.00    +0.086 C 
ATOM      8  C   UNL     1      36.657 -21.585 -15.948  0.00  0.00    -0.003 C 
ATOM      9  C   UNL     1      35.426 -22.489 -14.082  0.00  0.00    +0.071 C 
ATOM     10  C   UNL     1      36.590 -21.929 -14.598  0.00  0.00    +0.016 C 
ENDROOT
BRANCH   7  12
ATOM     11  O   UNL     1      32.055 -22.732 -14.164  0.00  0.00    -0.245 OA
ATOM     12  C   UNL     1      33.125 -23.312 -14.345  0.00  0.00    +0.339 C 
BRANCH  12  13
ATOM     13  O   UNL     1      33.314 -24.620 -14.029  0.00  0.00    -0.477 OA
ATOM     14  H   UNL     1      32.988 -24.959 -13.219  0.00  0.00    +0.295 HD
ENDBRANCH  12  13
ENDBRANCH   7  12
BRANCH   9  15
ATOM     15  N   UNL     1      35.388 -22.840 -12.695  0.00  0.00    -0.215 N 
ATOM     16  H   UNL     1      34.533 -22.867 -12.207  0.00  0.00    +0.174 HD
BRANCH  15  17
ATOM     17  S   UNL     1      36.867 -23.210 -11.895  0.00  0.00    +0.074 S 
ATOM     18  O   UNL     1      37.754 -22.065 -11.992  0.00  0.00    -0.150 OA
ATOM     19  O   UNL     1      36.597 -23.805 -10.600  0.00  0.00    -0.150 OA
BRANCH  17  20
ATOM     20  C   UNL     1      37.542 -24.470 -12.939  0.00  0.00    +0.125 C 
ATOM     21  C   UNL     1      38.878 -24.408 -13.292  0.00  0.00    +0.020 C 
ATOM     22  C   UNL     1      36.720 -25.490 -13.379  0.00  0.00    +0.020 C 
ATOM     23  C   UNL     1      39.409 -25.401 -14.116  0.00  0.00    +0.001 C 
ATOM     24  C   UNL     1      37.251 -26.484 -14.203  0.00  0.00    +0.001 C 
ATOM     25  C   UNL     1      38.596 -26.439 -14.570  0.00  0.00    +0.000 C 
ENDBRANCH  17  20
ENDBRANCH  15  17
ENDBRANCH   9  15
TORSDOF 5
ENDMDL
MODEL 8
REMARK VINA RESULT:     -10.3      2.635      3.839
REMARK  Name = 6102685
REMARK  5 active torsions:
REMARK  status: ('A' for Active; 'I' for Inactive)
REMARK    1  A    between atoms: C_7  and  C_12
REMARK    2  A    between atoms: C_9  and  N_15
REMARK    3  A    between atoms: C_12  and  O_13
REMARK    4  A    between atoms: N_15  and  S_17
REMARK    5  A    between atoms: S_17  and  C_20
REMARK                            x       y       z     vdW  Elec       q    Type
REMARK                         _______ _______ _______ _____ _____    ______ ____
ROOT
ATOM      1  C   UNL     1      30.734 -10.976 -21.699  0.00  0.00    +0.005 C 
ATOM      2  C   UNL     1      31.681 -11.535 -22.760  0.00  0.00    +0.026 C 
ATOM      3  C   UNL     1      31.465 -10.794 -20.375  0.00  0.00    +0.005 C 
ATOM      4  C   UNL     1      32.496 -12.706 -22.271  0.00  0.00    -0.019 C 
ATOM      5  C   UNL     1      31.961 -12.140 -19.850  0.00  0.00    +0.026 C 
ATOM      6  C   UNL     1      32.660 -12.968 -20.898  0.00  0.00    -0.026 C 
ATOM      7  C   UNL     1      33.151 -13.520 -23.210  0.00  0.00    +0.086 C 
ATOM      8  C   UNL     1      33.446 -14.057 -20.494  0.00  0.00    -0.003 C 
ATOM      9  C   UNL     1      33.936 -14.594 -22.793  0.00  0.00    +0.071 C 
ATOM     10  C   UNL     1      34.082 -14.864 -21.436  0.00  0.00    +0.016 C 
ENDROOT
BRANCH   7  12
ATOM     11  O   UNL     1      33.446 -12.237 -25.208  0.00  0.00    -0.245 OA
ATOM     12  C   UNL     1      33.032 -13.249 -24.642  0.00  0.00    +0.339 C 
BRANCH  12  13
ATOM     13  O   UNL     1      32.403 -14.255 -25.303  0.00  0.00    -0.477 OA
ATOM     14  H   UNL     1      32.675 -15.142 -25.177  0.00  0.00    +0.295 HD
ENDBRANCH  12  13
ENDBRANCH   7  12
BRANCH   9  15
ATOM     15  N   UNL     1      34.608 -15.433 -23.738  0.00  0.00    -0.215 N 
ATOM     16  H   UNL     1      35.425 -15.124 -24.193  0.00  0.00    +0.174 HD
BRANCH  15  17
ATOM     17  S   UNL     1      33.958 -16.993 -24.066  0.00  0.00    +0.074 S 
ATOM     18  O   UNL     1      32.515 -16.941 -23.923  0.00  0.00    -0.150 OA
ATOM     19  O   UNL     1      34.544 -17.531 -25.279  0.00  0.00    -0.150 OA
BRANCH  17  20
ATOM     20  C   UNL     1      34.575 -17.940 -22.703  0.00  0.00    +0.125 C 
ATOM     21  C   UNL     1      33.760 -18.897 -22.125  0.00  0.00    +0.020 C 
ATOM     22  C   UNL     1      35.857 -17.703 -22.245  0.00  0.00    +0.020 C 
ATOM     23  C   UNL     1      34.246 -19.642 -21.050  0.00  0.00    +0.001 C 
ATOM     24  C   UNL     1      36.343 -18.449 -21.170  0.00  0.00    +0.001 C 
ATOM     25  C   UNL     1      35.538 -19.418 -20.574  0.00  0.00    +0.000 C 
ENDBRANCH  17  20
ENDBRANCH  15  17
ENDBRANCH   9  15
TORSDOF 5
ENDMDL
MODEL 9
REMARK VINA RESULT:     -10.3      6.614      9.593
REMARK  Name = 6102685
REMARK  5 active torsions:
REMARK  status: ('A' for Active; 'I' for Inactive)
REMARK    1  A    between atoms: C_7  and  C_12
REMARK    2  A    between atoms: C_9  and  N_15
REMARK    3  A    between atoms: C_12  and  O_13
REMARK    4  A    between atoms: N_15  and  S_17
REMARK    5  A    between atoms: S_17  and  C_20
REMARK                            x       y       z     vdW  Elec       q    Type
REMARK                         _______ _______ _______ _____ _____    ______ ____
ROOT
ATOM      1  C   UNL     1      35.208 -20.990 -20.080  0.00  0.00    +0.005 C 
ATOM      2  C   UNL     1      35.827 -20.932 -18.684  0.00  0.00    +0.026 C 
ATOM      3  C   UNL     1      33.725 -20.647 -20.018  0.00  0.00    +0.005 C 
ATOM      4  C   UNL     1      35.010 -21.650 -17.640  0.00  0.00    -0.019 C 
ATOM      5  C   UNL     1      32.975 -21.669 -19.166  0.00  0.00    +0.026 C 
ATOM      6  C   UNL     1      33.654 -21.962 -17.852  0.00  0.00    -0.026 C 
ATOM      7  C   UNL     1      35.603 -21.964 -16.407  0.00  0.00    +0.086 C 
ATOM      8  C   UNL     1      32.931 -22.612 -16.841  0.00  0.00    -0.003 C 
ATOM      9  C   UNL     1      34.870 -22.601 -15.407  0.00  0.00    +0.071 C 
ATOM     10  C   UNL     1      33.535 -22.927 -15.624  0.00  0.00    +0.016 C 
ENDROOT
BRANCH   7  12
ATOM     11  O   UNL     1      37.898 -22.423 -15.907  0.00  0.00    -0.245 OA
ATOM     12  C   UNL     1      36.999 -21.616 -16.141  0.00  0.00    +0.339 C 
BRANCH  12  13
ATOM     13  O   UNL     1      37.209 -20.274 -16.181  0.00  0.00    -0.477 OA
ATOM     14  H   UNL     1      37.114 -19.808 -16.988  0.00  0.00    +0.295 HD
ENDBRANCH  12  13
ENDBRANCH   7  12
BRANCH   9  15
ATOM     15  N   UNL     1      35.462 -22.929 -14.146  0.00  0.00    -0.215 N 
ATOM     16  H   UNL     1      35.778 -22.220 -13.540  0.00  0.00    +0.174 HD
BRANCH  15  17
ATOM     17  S   UNL     1      35.612 -24.587 -13.709  0.00  0.00    +0.074 S 
ATOM     18  O   UNL     1      35.240 -24.741 -12.314  0.00  0.00    -0.150 OA
ATOM     19  O   UNL     1      34.992 -25.425 -14.717  0.00  0.00    -0.150 OA
BRANCH  17  20
ATOM     20  C   UNL     1      37.362 -24.833 -13.804  0.00  0.00    +0.125 C 
ATOM     21  C   UNL     1      37.865 -25.759 -14.701  0.00  0.00    +0.020 C 
ATOM     22  C   UNL     1      38.191 -24.096 -12.979  0.00  0.00    +0.020 C 
ATOM     23  C   UNL     1      39.244 -25.953 -14.775  0.00  0.00    +0.001 C 
ATOM     24  C   UNL     1      39.571 -24.290 -13.053  0.00  0.00    +0.001 C 
ATOM     25  C   UNL     1      40.096 -25.218 -13.951  0.00  0.00    +0.000 C 
ENDBRANCH  17  20
ENDBRANCH  15  17
ENDBRANCH   9  15
TORSDOF 5
ENDMDL
