MODEL 1
REMARK VINA RESULT:     -13.1      0.000      0.000
REMARK  Name = 9999276
REMARK  5 active torsions:
REMARK  status: ('A' for Active; 'I' for Inactive)
REMARK    1  A    between atoms: C_3  and  C_11
REMARK    2  A    between atoms: C_6  and  C_20
REMARK    3  A    between atoms: C_14  and  N_19
REMARK    4  A    between atoms: C_25  and  C_27
REMARK    5  A    between atoms: C_27  and  O_28
REMARK                            x       y       z     vdW  Elec       q    Type
REMARK                         _______ _______ _______ _____ _____    ______ ____
ROOT
ATOM      1  N   UNL     1      34.172 -22.872 -16.452  0.00  0.00    -0.400 NA
ATOM      2  N   UNL     1      32.236 -24.530 -13.839  0.00  0.00    -0.242 NA
ATOM      3  C   UNL     1      33.808 -23.596 -15.367  0.00  0.00    +0.149 C 
ATOM      4  C   UNL     1      32.507 -23.791 -14.933  0.00  0.00    +0.107 C 
ATOM      5  C   UNL     1      31.499 -23.178 -15.695  0.00  0.00    +0.005 C 
ATOM      6  C   UNL     1      33.174 -22.302 -17.155  0.00  0.00    +0.131 C 
ATOM      7  C   UNL     1      31.835 -22.421 -16.825  0.00  0.00    +0.030 C 
ATOM      8  C   UNL     1      30.169 -23.352 -15.289  0.00  0.00    +0.056 C 
ATOM      9  C   UNL     1      29.879 -24.112 -14.163  0.00  0.00    -0.001 C 
ATOM     10  C   UNL     1      30.939 -24.674 -13.480  0.00  0.00    +0.095 C 
ENDROOT
BRANCH   3  11
ATOM     11  C   UNL     1      34.934 -24.177 -14.666  0.00  0.00    +0.033 C 
ATOM     12  C   UNL     1      35.488 -23.516 -13.571  0.00  0.00    +0.027 C 
ATOM     13  C   UNL     1      35.462 -25.397 -15.088  0.00  0.00    +0.003 C 
ATOM     14  C   UNL     1      36.573 -24.076 -12.896  0.00  0.00    +0.143 C 
ATOM     15  C   UNL     1      36.546 -25.957 -14.413  0.00  0.00    +0.002 C 
ATOM     16  C   UNL     1      37.102 -25.296 -13.318  0.00  0.00    +0.024 C 
BRANCH  14  19
ATOM     17  O   UNL     1      37.548 -22.229 -11.930  0.00  0.00    -0.126 OA
ATOM     18  O   UNL     1      37.208 -24.008 -10.685  0.00  0.00    -0.126 OA
ATOM     19  N   UNL     1      37.139 -23.404 -11.780  0.00  0.00    +0.058 N 
ENDBRANCH  14  19
ENDBRANCH   3  11
BRANCH   6  20
ATOM     20  C   UNL     1      33.594 -21.536 -18.304  0.00  0.00    +0.030 C 
ATOM     21  C   UNL     1      34.950 -21.427 -18.618  0.00  0.00    +0.003 C 
ATOM     22  C   UNL     1      32.643 -20.899 -19.106  0.00  0.00    +0.003 C 
ATOM     23  C   UNL     1      35.355 -20.687 -19.729  0.00  0.00    +0.007 C 
ATOM     24  C   UNL     1      33.049 -20.158 -20.217  0.00  0.00    +0.007 C 
ATOM     25  C   UNL     1      34.403 -20.053 -20.528  0.00  0.00    +0.075 C 
BRANCH  25  27
ATOM     26  O   UNL     1      34.277 -19.294 -22.794  0.00  0.00    -0.245 OA
ATOM     27  C   UNL     1      34.825 -19.281 -21.687  0.00  0.00    +0.338 C 
BRANCH  27  28
ATOM     28  O   UNL     1      35.918 -18.512 -21.430  0.00  0.00    -0.477 OA
ATOM     29  H   UNL     1      35.865 -17.579 -21.507  0.00  0.00    +0.295 HD
ENDBRANCH  27  28
ENDBRANCH  25  27
ENDBRANCH   6  20
TORSDOF 5
ENDMDL
MODEL 2
REMARK VINA RESULT:     -13.0      1.573      1.893
REMARK  Name = 9999276
REMARK  5 active torsions:
REMARK  status: ('A' for Active; 'I' for Inactive)
REMARK    1  A    between atoms: C_3  and  C_11
REMARK    2  A    between atoms: C_6  and  C_20
REMARK    3  A    between atoms: C_14  and  N_19
REMARK    4  A    between atoms: C_25  and  C_27
REMARK    5  A    between atoms: C_27  and  O_28
REMARK                            x       y       z     vdW  Elec       q    Type
REMARK                         _______ _______ _______ _____ _____    ______ ____
ROOT
ATOM      1  N   UNL     1      34.443 -22.501 -16.458  0.00  0.00    -0.400 NA
ATOM      2  N   UNL     1      32.701 -24.327 -13.820  0.00  0.00    -0.242 NA
ATOM      3  C   UNL     1      34.158 -23.210 -15.340  0.00  0.00    +0.149 C 
ATOM      4  C   UNL     1      32.893 -23.621 -14.951  0.00  0.00    +0.107 C 
ATOM      5  C   UNL     1      31.834 -23.261 -15.802  0.00  0.00    +0.005 C 
ATOM      6  C   UNL     1      33.398 -22.177 -17.245  0.00  0.00    +0.131 C 
ATOM      7  C   UNL     1      32.089 -22.527 -16.968  0.00  0.00    +0.030 C 
ATOM      8  C   UNL     1      30.539 -23.658 -15.444  0.00  0.00    +0.056 C 
ATOM      9  C   UNL     1      30.331 -24.386 -14.280  0.00  0.00    -0.001 C 
ATOM     10  C   UNL     1      31.435 -24.691 -13.509  0.00  0.00    +0.095 C 
ENDROOT
BRANCH   3  11
ATOM     11  C   UNL     1      35.329 -23.521 -14.547  0.00  0.00    +0.033 C 
ATOM     12  C   UNL     1      36.063 -24.676 -14.813  0.00  0.00    +0.027 C 
ATOM     13  C   UNL     1      35.720 -22.664 -13.519  0.00  0.00    +0.003 C 
ATOM     14  C   UNL     1      37.191 -24.975 -14.049  0.00  0.00    +0.143 C 
ATOM     15  C   UNL     1      36.849 -22.963 -12.755  0.00  0.00    +0.002 C 
ATOM     16  C   UNL     1      37.583 -24.119 -13.020  0.00  0.00    +0.024 C 
BRANCH  14  19
ATOM     17  O   UNL     1      37.323 -27.222 -14.527  0.00  0.00    -0.126 OA
ATOM     18  O   UNL     1      39.190 -26.079 -14.339  0.00  0.00    -0.126 OA
ATOM     19  N   UNL     1      37.940 -26.151 -14.318  0.00  0.00    +0.058 N 
ENDBRANCH  14  19
ENDBRANCH   3  11
BRANCH   6  20
ATOM     20  C   UNL     1      33.734 -21.421 -18.428  0.00  0.00    +0.030 C 
ATOM     21  C   UNL     1      35.070 -21.253 -18.799  0.00  0.00    +0.003 C 
ATOM     22  C   UNL     1      32.723 -20.851 -19.205  0.00  0.00    +0.003 C 
ATOM     23  C   UNL     1      35.394 -20.523 -19.942  0.00  0.00    +0.007 C 
ATOM     24  C   UNL     1      33.047 -20.120 -20.349  0.00  0.00    +0.007 C 
ATOM     25  C   UNL     1      34.381 -19.956 -20.716  0.00  0.00    +0.075 C 
BRANCH  25  27
ATOM     26  O   UNL     1      34.031 -19.127 -22.933  0.00  0.00    -0.245 OA
ATOM     27  C   UNL     1      34.718 -19.193 -21.908  0.00  0.00    +0.338 C 
BRANCH  27  28
ATOM     28  O   UNL     1      35.902 -18.533 -21.787  0.00  0.00    -0.477 OA
ATOM     29  H   UNL     1      36.709 -19.010 -21.805  0.00  0.00    +0.295 HD
ENDBRANCH  27  28
ENDBRANCH  25  27
ENDBRANCH   6  20
TORSDOF 5
ENDMDL
MODEL 3
REMARK VINA RESULT:     -12.0      3.201      5.213
REMARK  Name = 9999276
REMARK  5 active torsions:
REMARK  status: ('A' for Active; 'I' for Inactive)
REMARK    1  A    between atoms: C_3  and  C_11
REMARK    2  A    between atoms: C_6  and  C_20
REMARK    3  A    between atoms: C_14  and  N_19
REMARK    4  A    between atoms: C_25  and  C_27
REMARK    5  A    between atoms: C_27  and  O_28
REMARK                            x       y       z     vdW  Elec       q    Type
REMARK                         _______ _______ _______ _____ _____    ______ ____
ROOT
ATOM      1  N   UNL     1      33.071 -22.333 -16.869  0.00  0.00    -0.400 NA
ATOM      2  N   UNL     1      33.914 -24.070 -13.772  0.00  0.00    -0.242 NA
ATOM      3  C   UNL     1      32.999 -23.027 -15.709  0.00  0.00    +0.149 C 
ATOM      4  C   UNL     1      34.079 -23.377 -14.915  0.00  0.00    +0.107 C 
ATOM      5  C   UNL     1      35.344 -22.969 -15.372  0.00  0.00    +0.005 C 
ATOM      6  C   UNL     1      34.302 -21.961 -17.270  0.00  0.00    +0.131 C 
ATOM      7  C   UNL     1      35.459 -22.249 -16.568  0.00  0.00    +0.030 C 
ATOM      8  C   UNL     1      36.462 -23.304 -14.597  0.00  0.00    +0.056 C 
ATOM      9  C   UNL     1      36.302 -24.018 -13.417  0.00  0.00    -0.001 C 
ATOM     10  C   UNL     1      35.019 -24.374 -13.052  0.00  0.00    +0.095 C 
ENDROOT
BRANCH   3  11
ATOM     11  C   UNL     1      31.645 -23.390 -15.344  0.00  0.00    +0.033 C 
ATOM     12  C   UNL     1      30.573 -22.944 -16.116  0.00  0.00    +0.027 C 
ATOM     13  C   UNL     1      31.416 -24.183 -14.221  0.00  0.00    +0.003 C 
ATOM     14  C   UNL     1      29.269 -23.294 -15.765  0.00  0.00    +0.143 C 
ATOM     15  C   UNL     1      30.112 -24.533 -13.869  0.00  0.00    +0.002 C 
ATOM     16  C   UNL     1      29.039 -24.087 -14.640  0.00  0.00    +0.024 C 
BRANCH  14  19
ATOM     17  O   UNL     1      27.386 -23.688 -17.028  0.00  0.00    -0.126 OA
ATOM     18  O   UNL     1      28.038 -21.610 -16.738  0.00  0.00    -0.126 OA
ATOM     19  N   UNL     1      28.176 -22.840 -16.550  0.00  0.00    +0.058 N 
ENDBRANCH  14  19
ENDBRANCH   3  11
BRANCH   6  20
ATOM     20  C   UNL     1      34.346 -21.224 -18.510  0.00  0.00    +0.030 C 
ATOM     21  C   UNL     1      33.161 -20.843 -19.144  0.00  0.00    +0.003 C 
ATOM     22  C   UNL     1      35.576 -20.891 -19.084  0.00  0.00    +0.003 C 
ATOM     23  C   UNL     1      33.204 -20.131 -20.342  0.00  0.00    +0.007 C 
ATOM     24  C   UNL     1      35.619 -20.178 -20.283  0.00  0.00    +0.007 C 
ATOM     25  C   UNL     1      34.434 -19.799 -20.911  0.00  0.00    +0.075 C 
BRANCH  25  27
ATOM     26  O   UNL     1      33.555 -18.968 -22.976  0.00  0.00    -0.245 OA
ATOM     27  C   UNL     1      34.480 -19.057 -22.161  0.00  0.00    +0.338 C 
BRANCH  27  28
ATOM     28  O   UNL     1      35.680 -18.445 -22.359  0.00  0.00    -0.477 OA
ATOM     29  H   UNL     1      35.855 -18.006 -23.169  0.00  0.00    +0.295 HD
ENDBRANCH  27  28
ENDBRANCH  25  27
ENDBRANCH   6  20
TORSDOF 5
ENDMDL
MODEL 4
REMARK VINA RESULT:     -11.8      1.181      1.710
REMARK  Name = 9999276
REMARK  5 active torsions:
REMARK  status: ('A' for Active; 'I' for Inactive)
REMARK    1  A    between atoms: C_3  and  C_11
REMARK    2  A    between atoms: C_6  and  C_20
REMARK    3  A    between atoms: C_14  and  N_19
REMARK    4  A    between atoms: C_25  and  C_27
REMARK    5  A    between atoms: C_27  and  O_28
REMARK                            x       y       z     vdW  Elec       q    Type
REMARK                         _______ _______ _______ _____ _____    ______ ____
ROOT
ATOM      1  N   UNL     1      34.515 -22.240 -16.924  0.00  0.00    -0.400 NA
ATOM      2  N   UNL     1      32.693 -24.025 -14.313  0.00  0.00    -0.242 NA
ATOM      3  C   UNL     1      34.198 -22.949 -15.815  0.00  0.00    +0.149 C 
ATOM      4  C   UNL     1      32.917 -23.316 -15.436  0.00  0.00    +0.107 C 
ATOM      5  C   UNL     1      31.876 -22.907 -16.287  0.00  0.00    +0.005 C 
ATOM      6  C   UNL     1      33.487 -21.868 -17.712  0.00  0.00    +0.131 C 
ATOM      7  C   UNL     1      32.164 -22.171 -17.444  0.00  0.00    +0.030 C 
ATOM      8  C   UNL     1      30.565 -23.258 -15.940  0.00  0.00    +0.056 C 
ATOM      9  C   UNL     1      30.324 -23.989 -14.784  0.00  0.00    -0.001 C 
ATOM     10  C   UNL     1      31.413 -24.345 -14.012  0.00  0.00    +0.095 C 
ENDROOT
BRANCH   3  11
ATOM     11  C   UNL     1      35.354 -23.312 -15.020  0.00  0.00    +0.033 C 
ATOM     12  C   UNL     1      35.180 -23.856 -13.749  0.00  0.00    +0.027 C 
ATOM     13  C   UNL     1      36.637 -23.116 -15.530  0.00  0.00    +0.003 C 
ATOM     14  C   UNL     1      36.293 -24.206 -12.984  0.00  0.00    +0.143 C 
ATOM     15  C   UNL     1      37.750 -23.466 -14.765  0.00  0.00    +0.002 C 
ATOM     16  C   UNL     1      37.578 -24.009 -13.492  0.00  0.00    +0.024 C 
BRANCH  14  19
ATOM     17  O   UNL     1      37.106 -25.284 -11.120  0.00  0.00    -0.126 OA
ATOM     18  O   UNL     1      34.986 -24.706 -11.157  0.00  0.00    -0.126 OA
ATOM     19  N   UNL     1      36.119 -24.760 -11.688  0.00  0.00    +0.058 N 
ENDBRANCH  14  19
ENDBRANCH   3  11
BRANCH   6  20
ATOM     20  C   UNL     1      33.857 -21.113 -18.885  0.00  0.00    +0.030 C 
ATOM     21  C   UNL     1      32.873 -20.520 -19.678  0.00  0.00    +0.003 C 
ATOM     22  C   UNL     1      35.203 -20.973 -19.232  0.00  0.00    +0.003 C 
ATOM     23  C   UNL     1      33.231 -19.789 -20.811  0.00  0.00    +0.007 C 
ATOM     24  C   UNL     1      35.562 -20.243 -20.366  0.00  0.00    +0.007 C 
ATOM     25  C   UNL     1      34.576 -19.651 -21.154  0.00  0.00    +0.075 C 
BRANCH  25  27
ATOM     26  O   UNL     1      35.765 -17.962 -22.361  0.00  0.00    -0.245 OA
ATOM     27  C   UNL     1      34.951 -18.890 -22.336  0.00  0.00    +0.338 C 
BRANCH  27  28
ATOM     28  O   UNL     1      34.299 -19.311 -23.455  0.00  0.00    -0.477 OA
ATOM     29  H   UNL     1      34.031 -20.206 -23.533  0.00  0.00    +0.295 HD
ENDBRANCH  27  28
ENDBRANCH  25  27
ENDBRANCH   6  20
TORSDOF 5
ENDMDL
MODEL 5
REMARK VINA RESULT:     -11.2      2.249      4.506
REMARK  Name = 9999276
REMARK  5 active torsions:
REMARK  status: ('A' for Active; 'I' for Inactive)
REMARK    1  A    between atoms: C_3  and  C_11
REMARK    2  A    between atoms: C_6  and  C_20
REMARK    3  A    between atoms: C_14  and  N_19
REMARK    4  A    between atoms: C_25  and  C_27
REMARK    5  A    between atoms: C_27  and  O_28
REMARK                            x       y       z     vdW  Elec       q    Type
REMARK                         _______ _______ _______ _____ _____    ______ ____
ROOT
ATOM      1  N   UNL     1      33.817 -21.554 -17.829  0.00  0.00    -0.400 NA
ATOM      2  N   UNL     1      35.192 -23.257 -14.908  0.00  0.00    -0.242 NA
ATOM      3  C   UNL     1      33.952 -22.260 -16.681  0.00  0.00    +0.149 C 
ATOM      4  C   UNL     1      35.152 -22.547 -16.052  0.00  0.00    +0.107 C 
ATOM      5  C   UNL     1      36.313 -22.056 -16.673  0.00  0.00    +0.005 C 
ATOM      6  C   UNL     1      34.956 -21.102 -18.391  0.00  0.00    +0.131 C 
ATOM      7  C   UNL     1      36.215 -21.322 -17.862  0.00  0.00    +0.030 C 
ATOM      8  C   UNL     1      37.547 -22.325 -16.067  0.00  0.00    +0.056 C 
ATOM      9  C   UNL     1      37.598 -23.056 -14.888  0.00  0.00    -0.001 C 
ATOM     10  C   UNL     1      36.403 -23.495 -14.353  0.00  0.00    +0.095 C 
ENDROOT
BRANCH   3  11
ATOM     11  C   UNL     1      32.687 -22.710 -16.138  0.00  0.00    +0.033 C 
ATOM     12  C   UNL     1      32.641 -23.293 -14.873  0.00  0.00    +0.027 C 
ATOM     13  C   UNL     1      31.517 -22.560 -16.882  0.00  0.00    +0.003 C 
ATOM     14  C   UNL     1      31.423 -23.726 -14.349  0.00  0.00    +0.143 C 
ATOM     15  C   UNL     1      30.299 -22.993 -16.359  0.00  0.00    +0.002 C 
ATOM     16  C   UNL     1      30.252 -23.577 -15.093  0.00  0.00    +0.024 C 
BRANCH  14  19
ATOM     17  O   UNL     1      30.256 -24.537 -12.539  0.00  0.00    -0.126 OA
ATOM     18  O   UNL     1      32.452 -24.608 -12.488  0.00  0.00    -0.126 OA
ATOM     19  N   UNL     1      31.375 -24.320 -13.060  0.00  0.00    +0.058 N 
ENDBRANCH  14  19
ENDBRANCH   3  11
BRANCH   6  20
ATOM     20  C   UNL     1      34.780 -20.355 -19.614  0.00  0.00    +0.030 C 
ATOM     21  C   UNL     1      35.880 -19.766 -20.241  0.00  0.00    +0.003 C 
ATOM     22  C   UNL     1      33.507 -20.218 -20.174  0.00  0.00    +0.003 C 
ATOM     23  C   UNL     1      35.709 -19.045 -21.423  0.00  0.00    +0.007 C 
ATOM     24  C   UNL     1      33.337 -19.497 -21.356  0.00  0.00    +0.007 C 
ATOM     25  C   UNL     1      34.437 -18.910 -21.980  0.00  0.00    +0.075 C 
BRANCH  25  27
ATOM     26  O   UNL     1      33.563 -18.510 -24.171  0.00  0.00    -0.245 OA
ATOM     27  C   UNL     1      34.258 -18.158 -23.212  0.00  0.00    +0.338 C 
BRANCH  27  28
ATOM     28  O   UNL     1      34.951 -16.986 -23.212  0.00  0.00    -0.477 OA
ATOM     29  H   UNL     1      34.566 -16.213 -23.576  0.00  0.00    +0.295 HD
ENDBRANCH  27  28
ENDBRANCH  25  27
ENDBRANCH   6  20
TORSDOF 5
ENDMDL
