MODEL 1
REMARK VINA RESULT:     -10.3      0.000      0.000
REMARK  Name = 90409366
REMARK  2 active torsions:
REMARK  status: ('A' for Active; 'I' for Inactive)
REMARK    1  A    between atoms: C_15  and  C_21
REMARK    2  A    between atoms: C_24  and  C_30
REMARK                            x       y       z     vdW  Elec       q    Type
REMARK                         _______ _______ _______ _____ _____    ______ ____
ROOT
ATOM      1  F   UNL     1      30.845  -9.443 -18.792  0.00  0.00    -0.205 F 
ATOM      2  O   UNL     1      33.767 -18.511 -24.078  0.00  0.00    -0.270 OA
ATOM      3  N   UNL     1      34.177 -16.424 -23.105  0.00  0.00    -0.273 N 
ATOM      4  N   UNL     1      32.297 -12.820 -22.763  0.00  0.00    -0.142 N 
ATOM      5  N   UNL     1      32.421 -13.589 -24.783  0.00  0.00    -0.148 NA
ATOM      6  N   UNL     1      31.936 -12.592 -24.042  0.00  0.00    -0.036 NA
ATOM      7  N   UNL     1      32.326 -12.277 -20.499  0.00  0.00    -0.199 NA
ATOM      8  N   UNL     1      31.200 -10.876 -22.103  0.00  0.00    -0.177 NA
ATOM      9  C   UNL     1      33.789 -15.686 -24.345  0.00  0.00    +0.115 C 
ATOM     10  C   UNL     1      34.663 -15.612 -21.950  0.00  0.00    +0.096 C 
ATOM     11  C   UNL     1      33.601 -14.603 -21.469  0.00  0.00    +0.050 C 
ATOM     12  C   UNL     1      33.090 -14.435 -23.949  0.00  0.00    +0.096 C 
ATOM     13  C   UNL     1      33.020 -13.963 -22.664  0.00  0.00    +0.147 C 
ATOM     14  C   UNL     1      35.010 -15.418 -25.222  0.00  0.00    +0.028 C 
ATOM     15  C   UNL     1      34.163 -17.824 -23.137  0.00  0.00    +0.250 C 
ATOM     16  C   UNL     1      31.924 -11.952 -21.742  0.00  0.00    +0.110 C 
ATOM     17  C   UNL     1      31.947 -11.414 -19.534  0.00  0.00    +0.195 C 
ATOM     18  C   UNL     1      30.855 -10.056 -21.089  0.00  0.00    +0.138 C 
ATOM     19  C   UNL     1      31.203 -10.276 -19.772  0.00  0.00    +0.163 C 
ENDROOT
BRANCH  15  21
ATOM     20 CL   UNL     1      32.162 -19.638 -21.705  0.00  0.00    -0.082 Cl
ATOM     21  C   UNL     1      34.639 -18.554 -21.955  0.00  0.00    +0.064 C 
ATOM     22  C   UNL     1      33.811 -19.408 -21.226  0.00  0.00    +0.066 C 
ATOM     23  C   UNL     1      35.967 -18.372 -21.567  0.00  0.00    +0.005 C 
ATOM     24  C   UNL     1      34.311 -20.079 -20.110  0.00  0.00    +0.082 C 
ATOM     25  C   UNL     1      36.466 -19.043 -20.451  0.00  0.00    +0.000 C 
ATOM     26  C   UNL     1      35.638 -19.897 -19.722  0.00  0.00    +0.005 C 
BRANCH  24  30
ATOM     27  F   UNL     1      34.101 -21.459 -18.185  0.00  0.00    -0.166 F 
ATOM     28  F   UNL     1      32.306 -20.429 -18.851  0.00  0.00    -0.166 F 
ATOM     29  F   UNL     1      33.066 -22.118 -19.981  0.00  0.00    -0.166 F 
ATOM     30  C   UNL     1      33.460 -21.004 -19.299  0.00  0.00    +0.419 C 
ENDBRANCH  24  30
ENDBRANCH  15  21
TORSDOF 2
ENDMDL
MODEL 2
REMARK VINA RESULT:      -9.8      7.098     10.393
REMARK  Name = 90409366
REMARK  2 active torsions:
REMARK  status: ('A' for Active; 'I' for Inactive)
REMARK    1  A    between atoms: C_15  and  C_21
REMARK    2  A    between atoms: C_24  and  C_30
REMARK                            x       y       z     vdW  Elec       q    Type
REMARK                         _______ _______ _______ _____ _____    ______ ____
ROOT
ATOM      1  F   UNL     1      34.375 -19.155 -22.151  0.00  0.00    -0.205 F 
ATOM      2  O   UNL     1      33.225 -23.418 -12.190  0.00  0.00    -0.270 OA
ATOM      3  N   UNL     1      33.563 -23.543 -14.502  0.00  0.00    -0.273 N 
ATOM      4  N   UNL     1      32.225 -21.662 -17.865  0.00  0.00    -0.142 N 
ATOM      5  N   UNL     1      30.665 -22.353 -16.532  0.00  0.00    -0.148 NA
ATOM      6  N   UNL     1      30.892 -21.682 -17.661  0.00  0.00    -0.036 NA
ATOM      7  N   UNL     1      34.120 -21.047 -19.070  0.00  0.00    -0.199 NA
ATOM      8  N   UNL     1      31.913 -20.432 -19.816  0.00  0.00    -0.177 NA
ATOM      9  C   UNL     1      32.096 -23.529 -14.792  0.00  0.00    +0.115 C 
ATOM     10  C   UNL     1      34.489 -23.684 -15.665  0.00  0.00    +0.096 C 
ATOM     11  C   UNL     1      34.319 -22.534 -16.677  0.00  0.00    +0.050 C 
ATOM     12  C   UNL     1      31.872 -22.752 -16.039  0.00  0.00    +0.096 C 
ATOM     13  C   UNL     1      32.873 -22.321 -16.872  0.00  0.00    +0.147 C 
ATOM     14  C   UNL     1      31.547 -24.951 -14.885  0.00  0.00    +0.028 C 
ATOM     15  C   UNL     1      33.971 -23.532 -13.162  0.00  0.00    +0.250 C 
ATOM     16  C   UNL     1      32.778 -21.018 -18.967  0.00  0.00    +0.110 C 
ATOM     17  C   UNL     1      34.622 -20.413 -20.150  0.00  0.00    +0.195 C 
ATOM     18  C   UNL     1      32.483 -19.816 -20.872  0.00  0.00    +0.138 C 
ATOM     19  C   UNL     1      33.844 -19.773 -21.094  0.00  0.00    +0.163 C 
ENDROOT
BRANCH  15  21
ATOM     20 CL   UNL     1      35.550 -25.657 -14.690  0.00  0.00    -0.082 Cl
ATOM     21  C   UNL     1      35.406 -23.648 -12.869  0.00  0.00    +0.064 C 
ATOM     22  C   UNL     1      36.221 -24.583 -13.507  0.00  0.00    +0.066 C 
ATOM     23  C   UNL     1      35.949 -22.784 -11.918  0.00  0.00    +0.005 C 
ATOM     24  C   UNL     1      37.578 -24.654 -13.195  0.00  0.00    +0.082 C 
ATOM     25  C   UNL     1      37.307 -22.855 -11.605  0.00  0.00    +0.000 C 
ATOM     26  C   UNL     1      38.121 -23.790 -12.243  0.00  0.00    +0.005 C 
BRANCH  24  30
ATOM     27  F   UNL     1      39.657 -25.808 -13.169  0.00  0.00    -0.166 F 
ATOM     28  F   UNL     1      37.948 -26.887 -13.970  0.00  0.00    -0.166 F 
ATOM     29  F   UNL     1      38.850 -25.284 -15.120  0.00  0.00    -0.166 F 
ATOM     30  C   UNL     1      38.489 -25.639 -13.853  0.00  0.00    +0.419 C 
ENDBRANCH  24  30
ENDBRANCH  15  21
TORSDOF 2
ENDMDL
MODEL 3
REMARK VINA RESULT:      -9.4      6.718     11.761
REMARK  Name = 90409366
REMARK  2 active torsions:
REMARK  status: ('A' for Active; 'I' for Inactive)
REMARK    1  A    between atoms: C_15  and  C_21
REMARK    2  A    between atoms: C_24  and  C_30
REMARK                            x       y       z     vdW  Elec       q    Type
REMARK                         _______ _______ _______ _____ _____    ______ ____
ROOT
ATOM      1  F   UNL     1      34.109 -15.524 -22.357  0.00  0.00    -0.205 F 
ATOM      2  O   UNL     1      30.169  -5.482 -23.891  0.00  0.00    -0.270 OA
ATOM      3  N   UNL     1      31.765  -7.020 -23.142  0.00  0.00    -0.273 N 
ATOM      4  N   UNL     1      31.834 -10.708 -21.402  0.00  0.00    -0.142 N 
ATOM      5  N   UNL     1      30.555  -9.265 -20.416  0.00  0.00    -0.148 NA
ATOM      6  N   UNL     1      30.950 -10.538 -20.397  0.00  0.00    -0.036 NA
ATOM      7  N   UNL     1      33.278 -12.010 -22.681  0.00  0.00    -0.199 NA
ATOM      8  N   UNL     1      32.065 -12.951 -20.825  0.00  0.00    -0.177 NA
ATOM      9  C   UNL     1      31.067  -7.220 -21.835  0.00  0.00    +0.115 C 
ATOM     10  C   UNL     1      33.054  -7.745 -23.347  0.00  0.00    +0.096 C 
ATOM     11  C   UNL     1      32.875  -9.273 -23.248  0.00  0.00    +0.050 C 
ATOM     12  C   UNL     1      31.206  -8.647 -21.442  0.00  0.00    +0.096 C 
ATOM     13  C   UNL     1      32.020  -9.548 -22.079  0.00  0.00    +0.147 C 
ATOM     14  C   UNL     1      31.617  -6.267 -20.775  0.00  0.00    +0.028 C 
ATOM     15  C   UNL     1      31.228  -6.090 -24.042  0.00  0.00    +0.250 C 
ATOM     16  C   UNL     1      32.419 -11.946 -21.647  0.00  0.00    +0.110 C 
ATOM     17  C   UNL     1      33.827 -13.225 -22.891  0.00  0.00    +0.195 C 
ATOM     18  C   UNL     1      32.650 -14.137 -21.091  0.00  0.00    +0.138 C 
ATOM     19  C   UNL     1      33.547 -14.336 -22.121  0.00  0.00    +0.163 C 
ENDROOT
BRANCH  15  21
ATOM     20 CL   UNL     1      33.491  -4.039 -23.910  0.00  0.00    -0.082 Cl
ATOM     21  C   UNL     1      31.964  -5.816 -25.283  0.00  0.00    +0.064 C 
ATOM     22  C   UNL     1      33.014  -4.899 -25.336  0.00  0.00    +0.066 C 
ATOM     23  C   UNL     1      31.582  -6.507 -26.433  0.00  0.00    +0.005 C 
ATOM     24  C   UNL     1      33.682  -4.673 -26.539  0.00  0.00    +0.082 C 
ATOM     25  C   UNL     1      32.251  -6.280 -27.637  0.00  0.00    +0.000 C 
ATOM     26  C   UNL     1      33.301  -5.364 -27.690  0.00  0.00    +0.005 C 
BRANCH  24  30
ATOM     27  F   UNL     1      35.278  -3.576 -27.920  0.00  0.00    -0.166 F 
ATOM     28  F   UNL     1      34.481  -2.436 -26.248  0.00  0.00    -0.166 F 
ATOM     29  F   UNL     1      35.895  -4.041 -25.887  0.00  0.00    -0.166 F 
ATOM     30  C   UNL     1      34.813  -3.700 -26.644  0.00  0.00    +0.419 C 
ENDBRANCH  24  30
ENDBRANCH  15  21
TORSDOF 2
ENDMDL
MODEL 4
REMARK VINA RESULT:      -9.0      6.836     11.791
REMARK  Name = 90409366
REMARK  2 active torsions:
REMARK  status: ('A' for Active; 'I' for Inactive)
REMARK    1  A    between atoms: C_15  and  C_21
REMARK    2  A    between atoms: C_24  and  C_30
REMARK                            x       y       z     vdW  Elec       q    Type
REMARK                         _______ _______ _______ _____ _____    ______ ____
ROOT
ATOM      1  F   UNL     1      33.998 -14.905 -23.647  0.00  0.00    -0.205 F 
ATOM      2  O   UNL     1      30.368  -4.634 -23.427  0.00  0.00    -0.270 OA
ATOM      3  N   UNL     1      31.887  -6.336 -22.910  0.00  0.00    -0.273 N 
ATOM      4  N   UNL     1      31.783 -10.287 -21.902  0.00  0.00    -0.142 N 
ATOM      5  N   UNL     1      30.487  -9.017 -20.721  0.00  0.00    -0.148 NA
ATOM      6  N   UNL     1      30.852 -10.282 -20.926  0.00  0.00    -0.036 NA
ATOM      7  N   UNL     1      33.264 -11.369 -23.336  0.00  0.00    -0.199 NA
ATOM      8  N   UNL     1      31.935 -12.605 -21.752  0.00  0.00    -0.177 NA
ATOM      9  C   UNL     1      31.118  -6.757 -21.699  0.00  0.00    +0.115 C 
ATOM     10  C   UNL     1      33.169  -7.050 -23.189  0.00  0.00    +0.096 C 
ATOM     11  C   UNL     1      32.951  -8.563 -23.390  0.00  0.00    +0.050 C 
ATOM     12  C   UNL     1      31.204  -8.236 -21.579  0.00  0.00    +0.096 C 
ATOM     13  C   UNL     1      32.031  -9.026 -22.336  0.00  0.00    +0.147 C 
ATOM     14  C   UNL     1      31.632  -6.040 -20.452  0.00  0.00    +0.028 C 
ATOM     15  C   UNL     1      31.419  -5.236 -23.641  0.00  0.00    +0.250 C 
ATOM     16  C   UNL     1      32.353 -11.474 -22.350  0.00  0.00    +0.110 C 
ATOM     17  C   UNL     1      33.796 -12.539 -23.747  0.00  0.00    +0.195 C 
ATOM     18  C   UNL     1      32.506 -13.737 -22.211  0.00  0.00    +0.138 C 
ATOM     19  C   UNL     1      33.451 -13.766 -23.216  0.00  0.00    +0.163 C 
ENDROOT
BRANCH  15  21
ATOM     20 CL   UNL     1      31.252  -6.812 -26.256  0.00  0.00    -0.082 Cl
ATOM     21  C   UNL     1      32.225  -4.756 -24.771  0.00  0.00    +0.064 C 
ATOM     22  C   UNL     1      32.224  -5.399 -26.009  0.00  0.00    +0.066 C 
ATOM     23  C   UNL     1      33.008  -3.618 -24.576  0.00  0.00    +0.005 C 
ATOM     24  C   UNL     1      33.006  -4.903 -27.052  0.00  0.00    +0.082 C 
ATOM     25  C   UNL     1      33.791  -3.123 -25.620  0.00  0.00    +0.000 C 
ATOM     26  C   UNL     1      33.790  -3.766 -26.858  0.00  0.00    +0.005 C 
BRANCH  24  30
ATOM     27  F   UNL     1      34.282  -6.006 -28.729  0.00  0.00    -0.166 F 
ATOM     28  F   UNL     1      32.218  -6.646 -28.490  0.00  0.00    -0.166 F 
ATOM     29  F   UNL     1      32.656  -4.733 -29.412  0.00  0.00    -0.166 F 
ATOM     30  C   UNL     1      33.037  -5.559 -28.396  0.00  0.00    +0.419 C 
ENDBRANCH  24  30
ENDBRANCH  15  21
TORSDOF 2
ENDMDL
MODEL 5
REMARK VINA RESULT:      -8.9      6.208      9.350
REMARK  Name = 90409366
REMARK  2 active torsions:
REMARK  status: ('A' for Active; 'I' for Inactive)
REMARK    1  A    between atoms: C_15  and  C_21
REMARK    2  A    between atoms: C_24  and  C_30
REMARK                            x       y       z     vdW  Elec       q    Type
REMARK                         _______ _______ _______ _____ _____    ______ ____
ROOT
ATOM      1  F   UNL     1      36.785 -17.562 -22.451  0.00  0.00    -0.205 F 
ATOM      2  O   UNL     1      32.900 -23.139 -13.935  0.00  0.00    -0.270 OA
ATOM      3  N   UNL     1      33.910 -22.949 -16.036  0.00  0.00    -0.273 N 
ATOM      4  N   UNL     1      33.558 -20.622 -19.367  0.00  0.00    -0.142 N 
ATOM      5  N   UNL     1      31.700 -21.482 -18.663  0.00  0.00    -0.148 NA
ATOM      6  N   UNL     1      32.226 -20.664 -19.575  0.00  0.00    -0.036 NA
ATOM      7  N   UNL     1      35.700 -19.856 -19.861  0.00  0.00    -0.199 NA
ATOM      8  N   UNL     1      33.792 -19.136 -21.144  0.00  0.00    -0.177 NA
ATOM      9  C   UNL     1      32.596 -22.890 -16.746  0.00  0.00    +0.115 C 
ATOM     10  C   UNL     1      35.144 -22.934 -16.878  0.00  0.00    +0.096 C 
ATOM     11  C   UNL     1      35.238 -21.656 -17.735  0.00  0.00    +0.050 C 
ATOM     12  C   UNL     1      32.722 -21.950 -17.889  0.00  0.00    +0.096 C 
ATOM     13  C   UNL     1      33.907 -21.412 -18.322  0.00  0.00    +0.147 C 
ATOM     14  C   UNL     1      32.152 -24.284 -17.183  0.00  0.00    +0.028 C 
ATOM     15  C   UNL     1      33.904 -23.123 -14.646  0.00  0.00    +0.250 C 
ATOM     16  C   UNL     1      34.388 -19.836 -20.160  0.00  0.00    +0.110 C 
ATOM     17  C   UNL     1      36.476 -19.082 -20.650  0.00  0.00    +0.195 C 
ATOM     18  C   UNL     1      34.625 -18.384 -21.892  0.00  0.00    +0.138 C 
ATOM     19  C   UNL     1      35.988 -18.317 -21.690  0.00  0.00    +0.163 C 
ENDROOT
BRANCH  15  21
ATOM     20 CL   UNL     1      35.490 -25.675 -15.206  0.00  0.00    -0.082 Cl
ATOM     21  C   UNL     1      35.191 -23.283 -13.956  0.00  0.00    +0.064 C 
ATOM     22  C   UNL     1      35.995 -24.407 -14.138  0.00  0.00    +0.066 C 
ATOM     23  C   UNL     1      35.601 -22.263 -13.097  0.00  0.00    +0.005 C 
ATOM     24  C   UNL     1      37.210 -24.513 -13.461  0.00  0.00    +0.082 C 
ATOM     25  C   UNL     1      36.816 -22.369 -12.419  0.00  0.00    +0.000 C 
ATOM     26  C   UNL     1      37.620 -23.494 -12.601  0.00  0.00    +0.005 C 
BRANCH  24  30
ATOM     27  F   UNL     1      38.692 -25.743 -14.856  0.00  0.00    -0.166 F 
ATOM     28  F   UNL     1      39.131 -25.736 -12.726  0.00  0.00    -0.166 F 
ATOM     29  F   UNL     1      37.458 -26.892 -13.481  0.00  0.00    -0.166 F 
ATOM     30  C   UNL     1      38.105 -25.699 -13.625  0.00  0.00    +0.419 C 
ENDBRANCH  24  30
ENDBRANCH  15  21
TORSDOF 2
ENDMDL
MODEL 6
REMARK VINA RESULT:      -8.4      5.067      8.695
REMARK  Name = 90409366
REMARK  2 active torsions:
REMARK  status: ('A' for Active; 'I' for Inactive)
REMARK    1  A    between atoms: C_15  and  C_21
REMARK    2  A    between atoms: C_24  and  C_30
REMARK                            x       y       z     vdW  Elec       q    Type
REMARK                         _______ _______ _______ _____ _____    ______ ____
ROOT
ATOM      1  F   UNL     1      28.083 -22.846 -15.382  0.00  0.00    -0.205 F 
ATOM      2  O   UNL     1      36.805 -18.439 -20.201  0.00  0.00    -0.270 OA
ATOM      3  N   UNL     1      34.945 -19.855 -20.115  0.00  0.00    -0.273 N 
ATOM      4  N   UNL     1      33.074 -22.235 -17.381  0.00  0.00    -0.142 N 
ATOM      5  N   UNL     1      35.208 -22.561 -17.557  0.00  0.00    -0.148 NA
ATOM      6  N   UNL     1      34.118 -22.927 -16.881  0.00  0.00    -0.036 NA
ATOM      7  N   UNL     1      30.822 -21.646 -17.430  0.00  0.00    -0.199 NA
ATOM      8  N   UNL     1      31.651 -23.275 -15.861  0.00  0.00    -0.177 NA
ATOM      9  C   UNL     1      35.718 -20.953 -19.457  0.00  0.00    +0.115 C 
ATOM     10  C   UNL     1      33.517 -20.131 -20.452  0.00  0.00    +0.096 C 
ATOM     11  C   UNL     1      32.687 -20.475 -19.199  0.00  0.00    +0.050 C 
ATOM     12  C   UNL     1      34.827 -21.636 -18.484  0.00  0.00    +0.096 C 
ATOM     13  C   UNL     1      33.477 -21.417 -18.385  0.00  0.00    +0.147 C 
ATOM     14  C   UNL     1      36.290 -21.913 -20.498  0.00  0.00    +0.028 C 
ATOM     15  C   UNL     1      35.630 -18.685 -20.468  0.00  0.00    +0.250 C 
ATOM     16  C   UNL     1      31.791 -22.393 -16.868  0.00  0.00    +0.110 C 
ATOM     17  C   UNL     1      29.591 -21.823 -16.908  0.00  0.00    +0.195 C 
ATOM     18  C   UNL     1      30.395 -23.402 -15.386  0.00  0.00    +0.138 C 
ATOM     19  C   UNL     1      29.315 -22.696 -15.875  0.00  0.00    +0.163 C 
ENDROOT
BRANCH  15  21
ATOM     20 CL   UNL     1      34.861 -19.290 -23.364  0.00  0.00    -0.082 Cl
ATOM     21  C   UNL     1      34.899 -17.645 -21.205  0.00  0.00    +0.064 C 
ATOM     22  C   UNL     1      34.500 -17.815 -22.530  0.00  0.00    +0.066 C 
ATOM     23  C   UNL     1      34.606 -16.456 -20.535  0.00  0.00    +0.005 C 
ATOM     24  C   UNL     1      33.808 -16.798 -23.186  0.00  0.00    +0.082 C 
ATOM     25  C   UNL     1      33.914 -15.438 -21.192  0.00  0.00    +0.000 C 
ATOM     26  C   UNL     1      33.515 -15.609 -22.518  0.00  0.00    +0.005 C 
BRANCH  24  30
ATOM     27  F   UNL     1      34.402 -17.138 -25.464  0.00  0.00    -0.166 F 
ATOM     28  F   UNL     1      32.508 -17.982 -24.809  0.00  0.00    -0.166 F 
ATOM     29  F   UNL     1      32.702 -15.839 -25.078  0.00  0.00    -0.166 F 
ATOM     30  C   UNL     1      33.361 -16.936 -24.606  0.00  0.00    +0.419 C 
ENDBRANCH  24  30
ENDBRANCH  15  21
TORSDOF 2
ENDMDL
MODEL 7
REMARK VINA RESULT:      -8.2      1.434      1.964
REMARK  Name = 90409366
REMARK  2 active torsions:
REMARK  status: ('A' for Active; 'I' for Inactive)
REMARK    1  A    between atoms: C_15  and  C_21
REMARK    2  A    between atoms: C_24  and  C_30
REMARK                            x       y       z     vdW  Elec       q    Type
REMARK                         _______ _______ _______ _____ _____    ______ ____
ROOT
ATOM      1  F   UNL     1      30.674  -9.308 -19.022  0.00  0.00    -0.205 F 
ATOM      2  O   UNL     1      33.398 -18.467 -24.257  0.00  0.00    -0.270 OA
ATOM      3  N   UNL     1      33.867 -16.527 -23.037  0.00  0.00    -0.273 N 
ATOM      4  N   UNL     1      32.523 -12.681 -22.827  0.00  0.00    -0.142 N 
ATOM      5  N   UNL     1      33.018 -13.360 -24.823  0.00  0.00    -0.148 NA
ATOM      6  N   UNL     1      32.522 -12.334 -24.131  0.00  0.00    -0.036 NA
ATOM      7  N   UNL     1      32.083 -12.262 -20.580  0.00  0.00    -0.199 NA
ATOM      8  N   UNL     1      31.603 -10.616 -22.273  0.00  0.00    -0.177 NA
ATOM      9  C   UNL     1      33.907 -15.674 -24.265  0.00  0.00    +0.115 C 
ATOM     10  C   UNL     1      34.174 -15.864 -21.734  0.00  0.00    +0.096 C 
ATOM     11  C   UNL     1      33.191 -14.717 -21.427  0.00  0.00    +0.050 C 
ATOM     12  C   UNL     1      33.329 -14.346 -23.934  0.00  0.00    +0.096 C 
ATOM     13  C   UNL     1      33.020 -13.932 -22.663  0.00  0.00    +0.147 C 
ATOM     14  C   UNL     1      35.331 -15.571 -24.808  0.00  0.00    +0.028 C 
ATOM     15  C   UNL     1      33.651 -17.902 -23.194  0.00  0.00    +0.250 C 
ATOM     16  C   UNL     1      32.049 -11.814 -21.849  0.00  0.00    +0.110 C 
ATOM     17  C   UNL     1      31.615 -11.396 -19.657  0.00  0.00    +0.195 C 
ATOM     18  C   UNL     1      31.149  -9.801 -21.299  0.00  0.00    +0.138 C 
ATOM     19  C   UNL     1      31.130 -10.139 -19.961  0.00  0.00    +0.163 C 
ENDROOT
BRANCH  15  21
ATOM     20 CL   UNL     1      36.405 -18.420 -21.973  0.00  0.00    -0.082 Cl
ATOM     21  C   UNL     1      33.711 -18.758 -22.002  0.00  0.00    +0.064 C 
ATOM     22  C   UNL     1      34.914 -19.060 -21.365  0.00  0.00    +0.066 C 
ATOM     23  C   UNL     1      32.512 -19.274 -21.510  0.00  0.00    +0.005 C 
ATOM     24  C   UNL     1      34.919 -19.878 -20.235  0.00  0.00    +0.082 C 
ATOM     25  C   UNL     1      32.517 -20.092 -20.379  0.00  0.00    +0.000 C 
ATOM     26  C   UNL     1      33.720 -20.394 -19.742  0.00  0.00    +0.005 C 
BRANCH  24  30
ATOM     27  F   UNL     1      37.001 -21.026 -20.265  0.00  0.00    -0.166 F 
ATOM     28  F   UNL     1      36.938 -19.141 -19.183  0.00  0.00    -0.166 F 
ATOM     29  F   UNL     1      35.979 -20.899 -18.350  0.00  0.00    -0.166 F 
ATOM     30  C   UNL     1      36.184 -20.228 -19.519  0.00  0.00    +0.419 C 
ENDBRANCH  24  30
ENDBRANCH  15  21
TORSDOF 2
ENDMDL
MODEL 8
REMARK VINA RESULT:      -7.9      7.000     11.429
REMARK  Name = 90409366
REMARK  2 active torsions:
REMARK  status: ('A' for Active; 'I' for Inactive)
REMARK    1  A    between atoms: C_15  and  C_21
REMARK    2  A    between atoms: C_24  and  C_30
REMARK                            x       y       z     vdW  Elec       q    Type
REMARK                         _______ _______ _______ _____ _____    ______ ____
ROOT
ATOM      1  F   UNL     1      41.065 -25.836 -13.179  0.00  0.00    -0.205 F 
ATOM      2  O   UNL     1      32.569 -22.133 -18.909  0.00  0.00    -0.270 OA
ATOM      3  N   UNL     1      34.159 -22.015 -17.197  0.00  0.00    -0.273 N 
ATOM      4  N   UNL     1      36.001 -24.558 -14.593  0.00  0.00    -0.142 N 
ATOM      5  N   UNL     1      33.841 -24.711 -14.634  0.00  0.00    -0.148 NA
ATOM      6  N   UNL     1      34.944 -25.237 -14.101  0.00  0.00    -0.036 NA
ATOM      7  N   UNL     1      38.285 -24.153 -14.786  0.00  0.00    -0.199 NA
ATOM      8  N   UNL     1      37.445 -25.902 -13.358  0.00  0.00    -0.177 NA
ATOM      9  C   UNL     1      33.323 -22.830 -16.263  0.00  0.00    +0.115 C 
ATOM     10  C   UNL     1      35.454 -21.487 -16.672  0.00  0.00    +0.096 C 
ATOM     11  C   UNL     1      36.395 -22.621 -16.219  0.00  0.00    +0.050 C 
ATOM     12  C   UNL     1      34.225 -23.695 -15.458  0.00  0.00    +0.096 C 
ATOM     13  C   UNL     1      35.592 -23.586 -15.445  0.00  0.00    +0.147 C 
ATOM     14  C   UNL     1      32.448 -21.931 -15.392  0.00  0.00    +0.028 C 
ATOM     15  C   UNL     1      33.633 -21.710 -18.459  0.00  0.00    +0.250 C 
ATOM     16  C   UNL     1      37.302 -24.886 -14.229  0.00  0.00    +0.110 C 
ATOM     17  C   UNL     1      39.535 -24.498 -14.412  0.00  0.00    +0.195 C 
ATOM     18  C   UNL     1      38.720 -26.195 -13.028  0.00  0.00    +0.138 C 
ATOM     19  C   UNL     1      39.815 -25.521 -13.528  0.00  0.00    +0.163 C 
ENDROOT
BRANCH  15  21
ATOM     20 CL   UNL     1      32.110 -20.257 -20.676  0.00  0.00    -0.082 Cl
ATOM     21  C   UNL     1      34.406 -20.826 -19.342  0.00  0.00    +0.064 C 
ATOM     22  C   UNL     1      33.813 -20.115 -20.385  0.00  0.00    +0.066 C 
ATOM     23  C   UNL     1      35.777 -20.710 -19.109  0.00  0.00    +0.005 C 
ATOM     24  C   UNL     1      34.590 -19.288 -21.195  0.00  0.00    +0.082 C 
ATOM     25  C   UNL     1      36.554 -19.882 -19.920  0.00  0.00    +0.000 C 
ATOM     26  C   UNL     1      35.960 -19.172 -20.964  0.00  0.00    +0.005 C 
BRANCH  24  30
ATOM     27  F   UNL     1      33.917 -17.174 -22.051  0.00  0.00    -0.166 F 
ATOM     28  F   UNL     1      34.710 -18.603 -23.485  0.00  0.00    -0.166 F 
ATOM     29  F   UNL     1      32.730 -18.896 -22.649  0.00  0.00    -0.166 F 
ATOM     30  C   UNL     1      33.997 -18.508 -22.325  0.00  0.00    +0.419 C 
ENDBRANCH  24  30
ENDBRANCH  15  21
TORSDOF 2
ENDMDL
MODEL 9
REMARK VINA RESULT:      -7.8      8.851     13.037
REMARK  Name = 90409366
REMARK  2 active torsions:
REMARK  status: ('A' for Active; 'I' for Inactive)
REMARK    1  A    between atoms: C_15  and  C_21
REMARK    2  A    between atoms: C_24  and  C_30
REMARK                            x       y       z     vdW  Elec       q    Type
REMARK                         _______ _______ _______ _____ _____    ______ ____
ROOT
ATOM      1  F   UNL     1      31.735 -12.361 -21.544  0.00  0.00    -0.205 F 
ATOM      2  O   UNL     1      31.925  -3.238 -27.498  0.00  0.00    -0.270 OA
ATOM      3  N   UNL     1      32.685  -4.650 -25.795  0.00  0.00    -0.273 N 
ATOM      4  N   UNL     1      31.093  -7.200 -23.038  0.00  0.00    -0.142 N 
ATOM      5  N   UNL     1      30.198  -5.229 -23.071  0.00  0.00    -0.148 NA
ATOM      6  N   UNL     1      30.118  -6.434 -22.507  0.00  0.00    -0.036 NA
ATOM      7  N   UNL     1      32.253  -9.207 -23.254  0.00  0.00    -0.199 NA
ATOM      8  N   UNL     1      30.406  -8.993 -21.722  0.00  0.00    -0.177 NA
ATOM      9  C   UNL     1      31.686  -4.128 -24.814  0.00  0.00    +0.115 C 
ATOM     10  C   UNL     1      33.659  -5.670 -25.303  0.00  0.00    +0.096 C 
ATOM     11  C   UNL     1      32.950  -6.935 -24.780  0.00  0.00    +0.050 C 
ATOM     12  C   UNL     1      31.235  -5.256 -23.957  0.00  0.00    +0.096 C 
ATOM     13  C   UNL     1      31.813  -6.499 -23.949  0.00  0.00    +0.147 C 
ATOM     14  C   UNL     1      32.274  -2.977 -24.000  0.00  0.00    +0.028 C 
ATOM     15  C   UNL     1      32.717  -4.079 -27.074  0.00  0.00    +0.250 C 
ATOM     16  C   UNL     1      31.258  -8.527 -22.654  0.00  0.00    +0.110 C 
ATOM     17  C   UNL     1      32.385 -10.490 -22.858  0.00  0.00    +0.195 C 
ATOM     18  C   UNL     1      30.594 -10.282 -21.373  0.00  0.00    +0.138 C 
ATOM     19  C   UNL     1      31.576 -11.088 -21.912  0.00  0.00    +0.163 C 
ENDROOT
BRANCH  15  21
ATOM     20 CL   UNL     1      35.512  -2.897 -26.711  0.00  0.00    -0.082 Cl
ATOM     21  C   UNL     1      33.762  -4.518 -28.008  0.00  0.00    +0.064 C 
ATOM     22  C   UNL     1      35.071  -4.042 -27.934  0.00  0.00    +0.066 C 
ATOM     23  C   UNL     1      33.409  -5.441 -28.994  0.00  0.00    +0.005 C 
ATOM     24  C   UNL     1      36.028  -4.490 -28.844  0.00  0.00    +0.082 C 
ATOM     25  C   UNL     1      34.367  -5.887 -29.905  0.00  0.00    +0.000 C 
ATOM     26  C   UNL     1      35.676  -5.412 -29.830  0.00  0.00    +0.005 C 
BRANCH  24  30
ATOM     27  F   UNL     1      38.239  -4.651 -29.705  0.00  0.00    -0.166 F 
ATOM     28  F   UNL     1      37.573  -2.678 -29.079  0.00  0.00    -0.166 F 
ATOM     29  F   UNL     1      38.042  -4.184 -27.590  0.00  0.00    -0.166 F 
ATOM     30  C   UNL     1      37.443  -4.008 -28.803  0.00  0.00    +0.419 C 
ENDBRANCH  24  30
ENDBRANCH  15  21
TORSDOF 2
ENDMDL
