MODEL 1
REMARK VINA RESULT:     -11.2      0.000      0.000
REMARK  Name = 5326871
REMARK  3 active torsions:
REMARK  status: ('A' for Active; 'I' for Inactive)
REMARK    1  A    between atoms: C_1  and  C_3
REMARK    2  A    between atoms: C_1  and  O_12
REMARK    3  A    between atoms: O_12  and  C_14
REMARK                            x       y       z     vdW  Elec       q    Type
REMARK                         _______ _______ _______ _____ _____    ______ ____
ROOT
ATOM      1  C   UNL     1      34.810 -17.794 -21.238  0.00  0.00    +0.232 C 
ENDROOT
BRANCH   1   3
ATOM      2  C   UNL     1      34.084 -15.542 -22.159  0.00  0.00    -0.000 C 
ATOM      3  C   UNL     1      34.399 -16.895 -22.364  0.00  0.00    +0.021 C 
ATOM      4  C   UNL     1      33.703 -14.745 -23.265  0.00  0.00    -0.000 C 
ATOM      5  C   UNL     1      34.339 -17.455 -23.640  0.00  0.00    -0.001 C 
ATOM      6  C   UNL     1      34.138 -14.962 -20.881  0.00  0.00    -0.000 C 
ATOM      7  C   UNL     1      33.649 -15.326 -24.543  0.00  0.00    -0.000 C 
ATOM      8  C   UNL     1      33.387 -13.392 -23.060  0.00  0.00    -0.000 C 
ATOM      9  C   UNL     1      33.965 -16.671 -24.728  0.00  0.00    -0.000 C 
ATOM     10  C   UNL     1      33.822 -13.616 -20.696  0.00  0.00    -0.000 C 
ATOM     11  C   UNL     1      33.447 -12.832 -21.783  0.00  0.00    -0.000 C 
ENDBRANCH   1   3
BRANCH   1  12
ATOM     12  O   UNL     1      34.092 -19.016 -21.332  0.00  0.00    -0.468 OA
BRANCH  12  14
ATOM     13  N   UNL     1      33.414 -21.534 -18.769  0.00  0.00    -0.226 NA
ATOM     14  C   UNL     1      34.297 -19.934 -20.334  0.00  0.00    +0.170 C 
ATOM     15  C   UNL     1      33.253 -20.622 -19.754  0.00  0.00    +0.160 C 
ATOM     16  C   UNL     1      35.586 -20.182 -19.893  0.00  0.00    +0.041 C 
ATOM     17  C   UNL     1      35.791 -21.112 -18.882  0.00  0.00    +0.024 C 
ATOM     18  C   UNL     1      34.681 -21.757 -18.358  0.00  0.00    +0.101 C 
ATOM     19  N   UNL     1      31.937 -20.361 -20.212  0.00  0.00    -0.340 N 
ATOM     20  H   UNL     1      31.173 -20.839 -19.815  0.00  0.00    +0.144 HD
ATOM     21  H   UNL     1      31.787 -19.703 -20.929  0.00  0.00    +0.144 HD
ENDBRANCH  12  14
ENDBRANCH   1  12
TORSDOF 3
ENDMDL
MODEL 2
REMARK VINA RESULT:     -11.0      3.015      6.443
REMARK  Name = 5326871
REMARK  3 active torsions:
REMARK  status: ('A' for Active; 'I' for Inactive)
REMARK    1  A    between atoms: C_1  and  C_3
REMARK    2  A    between atoms: C_1  and  O_12
REMARK    3  A    between atoms: O_12  and  C_14
REMARK                            x       y       z     vdW  Elec       q    Type
REMARK                         _______ _______ _______ _____ _____    ______ ____
ROOT
ATOM      1  C   UNL     1      33.797 -17.624 -23.018  0.00  0.00    +0.232 C 
ENDROOT
BRANCH   1   3
ATOM      2  C   UNL     1      34.153 -19.269 -21.116  0.00  0.00    -0.000 C 
ATOM      3  C   UNL     1      34.672 -18.343 -22.037  0.00  0.00    +0.021 C 
ATOM      4  C   UNL     1      35.033 -19.914 -20.215  0.00  0.00    -0.000 C 
ATOM      5  C   UNL     1      36.036 -18.057 -22.067  0.00  0.00    -0.001 C 
ATOM      6  C   UNL     1      32.782 -19.568 -21.071  0.00  0.00    -0.000 C 
ATOM      7  C   UNL     1      36.404 -19.615 -20.260  0.00  0.00    -0.000 C 
ATOM      8  C   UNL     1      34.515 -20.840 -19.294  0.00  0.00    -0.000 C 
ATOM      9  C   UNL     1      36.901 -18.692 -21.181  0.00  0.00    -0.000 C 
ATOM     10  C   UNL     1      32.285 -20.490 -20.151  0.00  0.00    -0.000 C 
ATOM     11  C   UNL     1      33.149 -21.126 -19.264  0.00  0.00    -0.000 C 
ENDBRANCH   1   3
BRANCH   1  12
ATOM     12  O   UNL     1      34.447 -16.433 -23.436  0.00  0.00    -0.468 OA
BRANCH  12  14
ATOM     13  N   UNL     1      32.735 -13.204 -23.327  0.00  0.00    -0.226 NA
ATOM     14  C   UNL     1      33.943 -15.252 -22.955  0.00  0.00    +0.170 C 
ATOM     15  C   UNL     1      33.248 -14.376 -23.763  0.00  0.00    +0.160 C 
ATOM     16  C   UNL     1      34.132 -14.923 -21.623  0.00  0.00    +0.041 C 
ATOM     17  C   UNL     1      33.619 -13.725 -21.139  0.00  0.00    +0.024 C 
ATOM     18  C   UNL     1      32.934 -12.908 -22.024  0.00  0.00    +0.101 C 
ATOM     19  N   UNL     1      33.060 -14.721 -25.124  0.00  0.00    -0.340 N 
ATOM     20  H   UNL     1      32.567 -14.114 -25.723  0.00  0.00    +0.144 HD
ATOM     21  H   UNL     1      33.421 -15.569 -25.472  0.00  0.00    +0.144 HD
ENDBRANCH  12  14
ENDBRANCH   1  12
TORSDOF 3
ENDMDL
MODEL 3
REMARK VINA RESULT:     -10.9      0.939      1.633
REMARK  Name = 5326871
REMARK  3 active torsions:
REMARK  status: ('A' for Active; 'I' for Inactive)
REMARK    1  A    between atoms: C_1  and  C_3
REMARK    2  A    between atoms: C_1  and  O_12
REMARK    3  A    between atoms: O_12  and  C_14
REMARK                            x       y       z     vdW  Elec       q    Type
REMARK                         _______ _______ _______ _____ _____    ______ ____
ROOT
ATOM      1  C   UNL     1      35.024 -17.579 -21.000  0.00  0.00    +0.232 C 
ENDROOT
BRANCH   1   3
ATOM      2  C   UNL     1      34.095 -15.502 -22.128  0.00  0.00    -0.000 C 
ATOM      3  C   UNL     1      34.515 -16.841 -22.200  0.00  0.00    +0.021 C 
ATOM      4  C   UNL     1      33.624 -14.861 -23.298  0.00  0.00    -0.000 C 
ATOM      5  C   UNL     1      34.471 -17.536 -23.408  0.00  0.00    -0.001 C 
ATOM      6  C   UNL     1      34.131 -14.787 -20.920  0.00  0.00    -0.000 C 
ATOM      7  C   UNL     1      33.588 -15.576 -24.506  0.00  0.00    -0.000 C 
ATOM      8  C   UNL     1      33.204 -13.523 -23.226  0.00  0.00    -0.000 C 
ATOM      9  C   UNL     1      34.009 -16.905 -24.560  0.00  0.00    -0.000 C 
ATOM     10  C   UNL     1      33.710 -13.459 -20.867  0.00  0.00    -0.000 C 
ATOM     11  C   UNL     1      33.247 -12.827 -22.017  0.00  0.00    -0.000 C 
ENDBRANCH   1   3
BRANCH   1  12
ATOM     12  O   UNL     1      35.049 -18.970 -21.286  0.00  0.00    -0.468 OA
BRANCH  12  14
ATOM     13  N   UNL     1      34.092 -21.490 -18.815  0.00  0.00    -0.226 NA
ATOM     14  C   UNL     1      34.271 -19.778 -20.497  0.00  0.00    +0.170 C 
ATOM     15  C   UNL     1      34.824 -20.677 -19.610  0.00  0.00    +0.160 C 
ATOM     16  C   UNL     1      32.892 -19.693 -20.588  0.00  0.00    +0.041 C 
ATOM     17  C   UNL     1      32.106 -20.514 -19.787  0.00  0.00    +0.024 C 
ATOM     18  C   UNL     1      32.749 -21.386 -18.924  0.00  0.00    +0.101 C 
ATOM     19  N   UNL     1      36.236 -20.756 -19.524  0.00  0.00    -0.340 N 
ATOM     20  H   UNL     1      36.657 -21.390 -18.898  0.00  0.00    +0.144 HD
ATOM     21  H   UNL     1      36.798 -20.177 -20.089  0.00  0.00    +0.144 HD
ENDBRANCH  12  14
ENDBRANCH   1  12
TORSDOF 3
ENDMDL
MODEL 4
REMARK VINA RESULT:     -10.7      5.652      8.209
REMARK  Name = 5326871
REMARK  3 active torsions:
REMARK  status: ('A' for Active; 'I' for Inactive)
REMARK    1  A    between atoms: C_1  and  C_3
REMARK    2  A    between atoms: C_1  and  O_12
REMARK    3  A    between atoms: O_12  and  C_14
REMARK                            x       y       z     vdW  Elec       q    Type
REMARK                         _______ _______ _______ _____ _____    ______ ____
ROOT
ATOM      1  C   UNL     1      36.001 -22.617 -15.668  0.00  0.00    +0.232 C 
ENDROOT
BRANCH   1   3
ATOM      2  C   UNL     1      34.689 -21.778 -17.675  0.00  0.00    -0.000 C 
ATOM      3  C   UNL     1      34.727 -22.440 -16.436  0.00  0.00    +0.021 C 
ATOM      4  C   UNL     1      33.453 -21.644 -18.351  0.00  0.00    -0.000 C 
ATOM      5  C   UNL     1      33.562 -22.959 -15.872  0.00  0.00    -0.001 C 
ATOM      6  C   UNL     1      35.852 -21.248 -18.258  0.00  0.00    -0.000 C 
ATOM      7  C   UNL     1      32.291 -22.175 -17.768  0.00  0.00    -0.000 C 
ATOM      8  C   UNL     1      33.416 -20.983 -19.589  0.00  0.00    -0.000 C 
ATOM      9  C   UNL     1      32.346 -22.828 -16.537  0.00  0.00    -0.000 C 
ATOM     10  C   UNL     1      35.796 -20.594 -19.489  0.00  0.00    -0.000 C 
ATOM     11  C   UNL     1      34.581 -20.462 -20.154  0.00  0.00    -0.000 C 
ENDBRANCH   1   3
BRANCH   1  12
ATOM     12  O   UNL     1      35.932 -23.825 -14.925  0.00  0.00    -0.468 OA
BRANCH  12  14
ATOM     13  N   UNL     1      38.276 -26.572 -14.355  0.00  0.00    -0.226 NA
ATOM     14  C   UNL     1      37.109 -24.502 -14.735  0.00  0.00    +0.170 C 
ATOM     15  C   UNL     1      37.138 -25.868 -14.545  0.00  0.00    +0.160 C 
ATOM     16  C   UNL     1      38.304 -23.803 -14.734  0.00  0.00    +0.041 C 
ATOM     17  C   UNL     1      39.495 -24.493 -14.541  0.00  0.00    +0.024 C 
ATOM     18  C   UNL     1      39.428 -25.865 -14.359  0.00  0.00    +0.101 C 
ATOM     19  N   UNL     1      35.910 -26.575 -14.547  0.00  0.00    -0.340 N 
ATOM     20  H   UNL     1      35.902 -27.551 -14.414  0.00  0.00    +0.144 HD
ATOM     21  H   UNL     1      35.063 -26.091 -14.684  0.00  0.00    +0.144 HD
ENDBRANCH  12  14
ENDBRANCH   1  12
TORSDOF 3
ENDMDL
MODEL 5
REMARK VINA RESULT:     -10.7      1.878      2.407
REMARK  Name = 5326871
REMARK  3 active torsions:
REMARK  status: ('A' for Active; 'I' for Inactive)
REMARK    1  A    between atoms: C_1  and  C_3
REMARK    2  A    between atoms: C_1  and  O_12
REMARK    3  A    between atoms: O_12  and  C_14
REMARK                            x       y       z     vdW  Elec       q    Type
REMARK                         _______ _______ _______ _____ _____    ______ ____
ROOT
ATOM      1  C   UNL     1      34.950 -16.310 -22.079  0.00  0.00    +0.232 C 
ENDROOT
BRANCH   1   3
ATOM      2  C   UNL     1      33.424 -14.296 -22.337  0.00  0.00    -0.000 C 
ATOM      3  C   UNL     1      34.155 -15.350 -22.910  0.00  0.00    +0.021 C 
ATOM      4  C   UNL     1      32.694 -13.423 -23.177  0.00  0.00    -0.000 C 
ATOM      5  C   UNL     1      34.163 -15.542 -24.292  0.00  0.00    -0.001 C 
ATOM      6  C   UNL     1      33.404 -14.089 -20.948  0.00  0.00    -0.000 C 
ATOM      7  C   UNL     1      32.715 -13.630 -24.567  0.00  0.00    -0.000 C 
ATOM      8  C   UNL     1      31.964 -12.369 -22.605  0.00  0.00    -0.000 C 
ATOM      9  C   UNL     1      33.445 -14.683 -25.119  0.00  0.00    -0.000 C 
ATOM     10  C   UNL     1      32.674 -13.037 -20.396  0.00  0.00    -0.000 C 
ATOM     11  C   UNL     1      31.955 -12.178 -21.222  0.00  0.00    -0.000 C 
ENDBRANCH   1   3
BRANCH   1  12
ATOM     12  O   UNL     1      34.645 -17.638 -22.482  0.00  0.00    -0.468 OA
BRANCH  12  14
ATOM     13  N   UNL     1      36.069 -19.915 -20.001  0.00  0.00    -0.226 NA
ATOM     14  C   UNL     1      34.734 -18.612 -21.521  0.00  0.00    +0.170 C 
ATOM     15  C   UNL     1      35.939 -18.961 -20.950  0.00  0.00    +0.160 C 
ATOM     16  C   UNL     1      33.586 -19.266 -21.108  0.00  0.00    +0.041 C 
ATOM     17  C   UNL     1      33.679 -20.253 -20.134  0.00  0.00    +0.024 C 
ATOM     18  C   UNL     1      34.933 -20.537 -19.616  0.00  0.00    +0.101 C 
ATOM     19  N   UNL     1      37.109 -18.286 -21.380  0.00  0.00    -0.340 N 
ATOM     20  H   UNL     1      37.983 -18.516 -20.988  0.00  0.00    +0.144 HD
ATOM     21  H   UNL     1      37.048 -17.585 -22.069  0.00  0.00    +0.144 HD
ENDBRANCH  12  14
ENDBRANCH   1  12
TORSDOF 3
ENDMDL
MODEL 6
REMARK VINA RESULT:     -10.6      3.299      5.234
REMARK  Name = 5326871
REMARK  3 active torsions:
REMARK  status: ('A' for Active; 'I' for Inactive)
REMARK    1  A    between atoms: C_1  and  C_3
REMARK    2  A    between atoms: C_1  and  O_12
REMARK    3  A    between atoms: O_12  and  C_14
REMARK                            x       y       z     vdW  Elec       q    Type
REMARK                         _______ _______ _______ _____ _____    ______ ____
ROOT
ATOM      1  C   UNL     1      36.058 -21.288 -18.483  0.00  0.00    +0.232 C 
ENDROOT
BRANCH   1   3
ATOM      2  C   UNL     1      35.116 -19.778 -20.295  0.00  0.00    -0.000 C 
ATOM      3  C   UNL     1      34.924 -20.757 -19.306  0.00  0.00    +0.021 C 
ATOM      4  C   UNL     1      34.004 -19.318 -21.038  0.00  0.00    -0.000 C 
ATOM      5  C   UNL     1      33.654 -21.273 -19.053  0.00  0.00    -0.001 C 
ATOM      6  C   UNL     1      36.388 -19.246 -20.562  0.00  0.00    -0.000 C 
ATOM      7  C   UNL     1      32.731 -19.850 -20.771  0.00  0.00    -0.000 C 
ATOM      8  C   UNL     1      34.195 -18.339 -22.027  0.00  0.00    -0.000 C 
ATOM      9  C   UNL     1      32.559 -20.821 -19.785  0.00  0.00    -0.000 C 
ATOM     10  C   UNL     1      36.560 -18.275 -21.548  0.00  0.00    -0.000 C 
ATOM     11  C   UNL     1      35.467 -17.822 -22.280  0.00  0.00    -0.000 C 
ENDBRANCH   1   3
BRANCH   1  12
ATOM     12  O   UNL     1      35.775 -21.072 -17.108  0.00  0.00    -0.468 OA
BRANCH  12  14
ATOM     13  N   UNL     1      35.602 -23.842 -14.727  0.00  0.00    -0.226 NA
ATOM     14  C   UNL     1      36.168 -22.053 -16.234  0.00  0.00    +0.170 C 
ATOM     15  C   UNL     1      35.255 -22.864 -15.594  0.00  0.00    +0.160 C 
ATOM     16  C   UNL     1      37.517 -22.241 -15.984  0.00  0.00    +0.041 C 
ATOM     17  C   UNL     1      37.912 -23.236 -15.098  0.00  0.00    +0.024 C 
ATOM     18  C   UNL     1      36.924 -24.003 -14.501  0.00  0.00    +0.101 C 
ATOM     19  N   UNL     1      33.877 -22.664 -15.857  0.00  0.00    -0.340 N 
ATOM     20  H   UNL     1      33.204 -23.230 -15.413  0.00  0.00    +0.144 HD
ATOM     21  H   UNL     1      33.592 -21.960 -16.484  0.00  0.00    +0.144 HD
ENDBRANCH  12  14
ENDBRANCH   1  12
TORSDOF 3
ENDMDL
MODEL 7
REMARK VINA RESULT:     -10.4      5.651      8.330
REMARK  Name = 5326871
REMARK  3 active torsions:
REMARK  status: ('A' for Active; 'I' for Inactive)
REMARK    1  A    between atoms: C_1  and  C_3
REMARK    2  A    between atoms: C_1  and  O_12
REMARK    3  A    between atoms: O_12  and  C_14
REMARK                            x       y       z     vdW  Elec       q    Type
REMARK                         _______ _______ _______ _____ _____    ______ ____
ROOT
ATOM      1  C   UNL     1      35.965 -22.589 -15.597  0.00  0.00    +0.232 C 
ENDROOT
BRANCH   1   3
ATOM      2  C   UNL     1      34.680 -21.785 -17.634  0.00  0.00    -0.000 C 
ATOM      3  C   UNL     1      34.701 -22.423 -16.383  0.00  0.00    +0.021 C 
ATOM      4  C   UNL     1      33.452 -21.660 -18.326  0.00  0.00    -0.000 C 
ATOM      5  C   UNL     1      33.528 -22.930 -15.822  0.00  0.00    -0.001 C 
ATOM      6  C   UNL     1      35.850 -21.268 -18.212  0.00  0.00    -0.000 C 
ATOM      7  C   UNL     1      32.281 -22.177 -17.747  0.00  0.00    -0.000 C 
ATOM      8  C   UNL     1      33.431 -21.021 -19.577  0.00  0.00    -0.000 C 
ATOM      9  C   UNL     1      32.321 -22.807 -16.504  0.00  0.00    -0.000 C 
ATOM     10  C   UNL     1      35.811 -20.637 -19.455  0.00  0.00    -0.000 C 
ATOM     11  C   UNL     1      34.604 -20.514 -20.137  0.00  0.00    -0.000 C 
ENDBRANCH   1   3
BRANCH   1  12
ATOM     12  O   UNL     1      36.250 -23.974 -15.461  0.00  0.00    -0.468 OA
BRANCH  12  14
ATOM     13  N   UNL     1      36.749 -26.191 -12.596  0.00  0.00    -0.226 NA
ATOM     14  C   UNL     1      36.607 -24.413 -14.211  0.00  0.00    +0.170 C 
ATOM     15  C   UNL     1      36.411 -25.720 -13.817  0.00  0.00    +0.160 C 
ATOM     16  C   UNL     1      37.181 -23.525 -13.317  0.00  0.00    +0.041 C 
ATOM     17  C   UNL     1      37.542 -23.973 -12.052  0.00  0.00    +0.024 C 
ATOM     18  C   UNL     1      37.308 -25.304 -11.743  0.00  0.00    +0.101 C 
ATOM     19  N   UNL     1      35.822 -26.620 -14.739  0.00  0.00    -0.340 N 
ATOM     20  H   UNL     1      35.671 -27.559 -14.483  0.00  0.00    +0.144 HD
ATOM     21  H   UNL     1      35.565 -26.308 -15.637  0.00  0.00    +0.144 HD
ENDBRANCH  12  14
ENDBRANCH   1  12
TORSDOF 3
ENDMDL
MODEL 8
REMARK VINA RESULT:     -10.3      0.783      2.310
REMARK  Name = 5326871
REMARK  3 active torsions:
REMARK  status: ('A' for Active; 'I' for Inactive)
REMARK    1  A    between atoms: C_1  and  C_3
REMARK    2  A    between atoms: C_1  and  O_12
REMARK    3  A    between atoms: O_12  and  C_14
REMARK                            x       y       z     vdW  Elec       q    Type
REMARK                         _______ _______ _______ _____ _____    ______ ____
ROOT
ATOM      1  C   UNL     1      34.933 -17.801 -22.150  0.00  0.00    +0.232 C 
ENDROOT
BRANCH   1   3
ATOM      2  C   UNL     1      33.964 -15.586 -22.929  0.00  0.00    -0.000 C 
ATOM      3  C   UNL     1      34.416 -16.418 -21.891  0.00  0.00    +0.021 C 
ATOM      4  C   UNL     1      33.488 -14.290 -22.618  0.00  0.00    -0.000 C 
ATOM      5  C   UNL     1      34.401 -15.978 -20.568  0.00  0.00    -0.001 C 
ATOM      6  C   UNL     1      33.974 -16.012 -24.267  0.00  0.00    -0.000 C 
ATOM      7  C   UNL     1      33.478 -13.864 -21.280  0.00  0.00    -0.000 C 
ATOM      8  C   UNL     1      33.036 -13.458 -23.655  0.00  0.00    -0.000 C 
ATOM      9  C   UNL     1      33.932 -14.704 -20.263  0.00  0.00    -0.000 C 
ATOM     10  C   UNL     1      33.520 -15.173 -25.284  0.00  0.00    -0.000 C 
ATOM     11  C   UNL     1      33.052 -13.898 -24.980  0.00  0.00    -0.000 C 
ENDBRANCH   1   3
BRANCH   1  12
ATOM     12  O   UNL     1      33.941 -18.746 -21.775  0.00  0.00    -0.468 OA
BRANCH  12  14
ATOM     13  N   UNL     1      33.588 -21.213 -19.100  0.00  0.00    -0.226 NA
ATOM     14  C   UNL     1      34.268 -19.622 -20.773  0.00  0.00    +0.170 C 
ATOM     15  C   UNL     1      33.306 -20.340 -20.093  0.00  0.00    +0.160 C 
ATOM     16  C   UNL     1      35.598 -19.797 -20.429  0.00  0.00    +0.041 C 
ATOM     17  C   UNL     1      35.926 -20.685 -19.412  0.00  0.00    +0.024 C 
ATOM     18  C   UNL     1      34.893 -21.364 -18.785  0.00  0.00    +0.101 C 
ATOM     19  N   UNL     1      31.948 -20.154 -20.452  0.00  0.00    -0.340 N 
ATOM     20  H   UNL     1      31.241 -20.654 -19.983  0.00  0.00    +0.144 HD
ATOM     21  H   UNL     1      31.710 -19.526 -21.172  0.00  0.00    +0.144 HD
ENDBRANCH  12  14
ENDBRANCH   1  12
TORSDOF 3
ENDMDL
MODEL 9
REMARK VINA RESULT:     -10.2      6.723      8.853
REMARK  Name = 5326871
REMARK  3 active torsions:
REMARK  status: ('A' for Active; 'I' for Inactive)
REMARK    1  A    between atoms: C_1  and  C_3
REMARK    2  A    between atoms: C_1  and  O_12
REMARK    3  A    between atoms: O_12  and  C_14
REMARK                            x       y       z     vdW  Elec       q    Type
REMARK                         _______ _______ _______ _____ _____    ______ ____
ROOT
ATOM      1  C   UNL     1      36.796 -21.770 -15.235  0.00  0.00    +0.232 C 
ENDROOT
BRANCH   1   3
ATOM      2  C   UNL     1      34.565 -22.177 -16.378  0.00  0.00    -0.000 C 
ATOM      3  C   UNL     1      35.904 -21.756 -16.439  0.00  0.00    +0.021 C 
ATOM      4  C   UNL     1      33.775 -22.140 -17.551  0.00  0.00    -0.000 C 
ATOM      5  C   UNL     1      36.455 -21.306 -17.638  0.00  0.00    -0.001 C 
ATOM      6  C   UNL     1      33.994 -22.635 -15.180  0.00  0.00    -0.000 C 
ATOM      7  C   UNL     1      34.346 -21.683 -18.751  0.00  0.00    -0.000 C 
ATOM      8  C   UNL     1      32.436 -22.561 -17.492  0.00  0.00    -0.000 C 
ATOM      9  C   UNL     1      35.677 -21.269 -18.792  0.00  0.00    -0.000 C 
ATOM     10  C   UNL     1      32.663 -23.049 -15.139  0.00  0.00    -0.000 C 
ATOM     11  C   UNL     1      31.885 -23.012 -16.292  0.00  0.00    -0.000 C 
ENDBRANCH   1   3
BRANCH   1  12
ATOM     12  O   UNL     1      37.688 -22.870 -15.329  0.00  0.00    -0.468 OA
BRANCH  12  14
ATOM     13  N   UNL     1      38.547 -25.756 -13.255  0.00  0.00    -0.226 NA
ATOM     14  C   UNL     1      37.662 -23.778 -14.302  0.00  0.00    +0.170 C 
ATOM     15  C   UNL     1      38.540 -24.841 -14.250  0.00  0.00    +0.160 C 
ATOM     16  C   UNL     1      36.735 -23.629 -13.285  0.00  0.00    +0.041 C 
ATOM     17  C   UNL     1      36.711 -24.550 -12.246  0.00  0.00    +0.024 C 
ATOM     18  C   UNL     1      37.631 -25.587 -12.276  0.00  0.00    +0.101 C 
ATOM     19  N   UNL     1      39.485 -24.986 -15.295  0.00  0.00    -0.340 N 
ATOM     20  H   UNL     1      40.123 -25.736 -15.282  0.00  0.00    +0.144 HD
ATOM     21  H   UNL     1      39.506 -24.335 -16.034  0.00  0.00    +0.144 HD
ENDBRANCH  12  14
ENDBRANCH   1  12
TORSDOF 3
ENDMDL
