MODEL 1
REMARK VINA RESULT:     -11.1      0.000      0.000
REMARK  Name = 444853
REMARK  9 active torsions:
REMARK  status: ('A' for Active; 'I' for Inactive)
REMARK    1  A    between atoms: C_5  and  O_31
REMARK    2  A    between atoms: C_6  and  C_13
REMARK    3  A    between atoms: C_7  and  O_11
REMARK    4  A    between atoms: C_8  and  C_15
REMARK    5  A    between atoms: C_16  and  C_17
REMARK    6  A    between atoms: C_18  and  C_19
REMARK    7  A    between atoms: C_20  and  C_23
REMARK    8  A    between atoms: C_25  and  O_29
REMARK    9  A    between atoms: O_31  and  C_33
REMARK                            x       y       z     vdW  Elec       q    Type
REMARK                         _______ _______ _______ _____ _____    ______ ____
ROOT
ATOM      1  O   UNL     1      35.812 -25.399 -13.134  0.00  0.00    -0.352 OA
ATOM      2  O   UNL     1      36.870 -22.630 -13.658  0.00  0.00    -0.348 OA
ATOM      3  C   UNL     1      37.458 -23.719 -12.926  0.00  0.00    +0.157 C 
ATOM      4  C   UNL     1      36.612 -25.339 -14.347  0.00  0.00    +0.159 C 
ATOM      5  C   UNL     1      37.966 -24.756 -13.921  0.00  0.00    +0.222 C 
ATOM      6  C   UNL     1      36.433 -24.550 -12.142  0.00  0.00    +0.143 C 
ATOM      7  C   UNL     1      35.968 -24.295 -15.282  0.00  0.00    +0.170 C 
ATOM      8  C   UNL     1      35.807 -22.943 -14.566  0.00  0.00    +0.166 C 
ATOM      9  C   UNL     1      38.540 -23.125 -12.033  0.00  0.00    +0.036 C 
ATOM     10  C   UNL     1      36.671 -26.731 -14.961  0.00  0.00    +0.036 C 
ENDROOT
BRANCH   7  11
ATOM     11  O   UNL     1      34.690 -24.742 -15.734  0.00  0.00    -0.379 OA
ATOM     12  H   UNL     1      34.792 -25.577 -16.216  0.00  0.00    +0.211 HD
ENDBRANCH   7  11
BRANCH   6  13
ATOM     13  C   UNL     1      35.393 -23.802 -11.328  0.00  0.00    +0.032 C 
ATOM     14  C   UNL     1      35.682 -23.879  -9.838  0.00  0.00    +0.003 C 
ENDBRANCH   6  13
BRANCH   8  15
ATOM     15  C   UNL     1      35.722 -21.818 -15.553  0.00  0.00    +0.005 C 
ATOM     16  C   UNL     1      36.196 -21.771 -16.809  0.00  0.00    -0.002 C 
BRANCH  16  17
ATOM     17  C   UNL     1      36.095 -20.664 -17.733  0.00  0.00    -0.000 C 
ATOM     18  C   UNL     1      35.821 -20.829 -19.037  0.00  0.00    +0.000 C 
BRANCH  18  19
ATOM     19  C   UNL     1      35.718 -19.726 -19.968  0.00  0.00    +0.003 C 
ATOM     20  C   UNL     1      34.553 -19.144 -20.283  0.00  0.00    +0.037 C 
BRANCH  20  23
ATOM     21  O   UNL     1      34.440 -16.796 -20.537  0.00  0.00    -0.421 OA
ATOM     22  O   UNL     1      34.340 -14.531 -20.644  0.00  0.00    -0.244 OA
ATOM     23  C   UNL     1      34.443 -18.048 -21.205  0.00  0.00    +0.148 C 
ATOM     24  C   UNL     1      34.350 -18.135 -22.547  0.00  0.00    +0.047 C 
ATOM     25  C   UNL     1      34.246 -16.891 -23.291  0.00  0.00    +0.144 C 
ATOM     26  C   UNL     1      34.343 -19.411 -23.346  0.00  0.00    +0.037 C 
ATOM     27  C   UNL     1      34.342 -15.616 -21.214  0.00  0.00    +0.349 C 
ATOM     28  C   UNL     1      34.241 -15.702 -22.680  0.00  0.00    +0.119 C 
BRANCH  25  29
ATOM     29  O   UNL     1      34.153 -17.008 -24.663  0.00  0.00    -0.471 OA
ATOM     30  C   UNL     1      33.391 -15.948 -25.207  0.00  0.00    +0.252 C 
ENDBRANCH  25  29
ENDBRANCH  20  23
ENDBRANCH  18  19
ENDBRANCH  16  17
ENDBRANCH   8  15
BRANCH   5  31
ATOM     31  O   UNL     1      38.783 -25.724 -13.279  0.00  0.00    -0.447 OA
BRANCH  31  33
ATOM     32  O   UNL     1      40.926 -26.582 -13.334  0.00  0.00    -0.250 OA
ATOM     33  C   UNL     1      40.031 -25.900 -13.811  0.00  0.00    +0.318 C 
ATOM     34  C   UNL     1      40.155 -25.124 -15.088  0.00  0.00    +0.121 C 
ENDBRANCH  31  33
ENDBRANCH   5  31
TORSDOF 9
ENDMDL
MODEL 2
REMARK VINA RESULT:     -10.5      0.942      1.822
REMARK  Name = 444853
REMARK  9 active torsions:
REMARK  status: ('A' for Active; 'I' for Inactive)
REMARK    1  A    between atoms: C_5  and  O_31
REMARK    2  A    between atoms: C_6  and  C_13
REMARK    3  A    between atoms: C_7  and  O_11
REMARK    4  A    between atoms: C_8  and  C_15
REMARK    5  A    between atoms: C_16  and  C_17
REMARK    6  A    between atoms: C_18  and  C_19
REMARK    7  A    between atoms: C_20  and  C_23
REMARK    8  A    between atoms: C_25  and  O_29
REMARK    9  A    between atoms: O_31  and  C_33
REMARK                            x       y       z     vdW  Elec       q    Type
REMARK                         _______ _______ _______ _____ _____    ______ ____
ROOT
ATOM      1  O   UNL     1      35.785 -25.180 -13.059  0.00  0.00    -0.352 OA
ATOM      2  O   UNL     1      36.930 -22.497 -13.806  0.00  0.00    -0.348 OA
ATOM      3  C   UNL     1      37.489 -23.546 -12.998  0.00  0.00    +0.157 C 
ATOM      4  C   UNL     1      36.573 -25.240 -14.281  0.00  0.00    +0.159 C 
ATOM      5  C   UNL     1      37.951 -24.673 -13.914  0.00  0.00    +0.222 C 
ATOM      6  C   UNL     1      36.447 -24.279 -12.142  0.00  0.00    +0.143 C 
ATOM      7  C   UNL     1      35.953 -24.250 -15.288  0.00  0.00    +0.170 C 
ATOM      8  C   UNL     1      35.846 -22.842 -14.677  0.00  0.00    +0.166 C 
ATOM      9  C   UNL     1      38.602 -22.923 -12.163  0.00  0.00    +0.036 C 
ATOM     10  C   UNL     1      36.577 -26.676 -14.787  0.00  0.00    +0.036 C 
ENDROOT
BRANCH   7  11
ATOM     11  O   UNL     1      34.655 -24.685 -15.692  0.00  0.00    -0.379 OA
ATOM     12  H   UNL     1      34.443 -25.522 -15.249  0.00  0.00    +0.211 HD
ENDBRANCH   7  11
BRANCH   6  13
ATOM     13  C   UNL     1      35.443 -23.435 -11.378  0.00  0.00    +0.032 C 
ATOM     14  C   UNL     1      35.670 -23.509  -9.878  0.00  0.00    +0.003 C 
ENDBRANCH   6  13
BRANCH   8  15
ATOM     15  C   UNL     1      35.787 -21.794 -15.747  0.00  0.00    +0.005 C 
ATOM     16  C   UNL     1      36.175 -21.886 -17.030  0.00  0.00    -0.002 C 
BRANCH  16  17
ATOM     17  C   UNL     1      36.103 -20.850 -18.035  0.00  0.00    -0.000 C 
ATOM     18  C   UNL     1      35.439 -21.005 -19.192  0.00  0.00    +0.000 C 
BRANCH  18  19
ATOM     19  C   UNL     1      35.362 -19.972 -20.202  0.00  0.00    +0.003 C 
ATOM     20  C   UNL     1      34.243 -19.706 -20.890  0.00  0.00    +0.037 C 
BRANCH  20  23
ATOM     21  O   UNL     1      33.654 -19.187 -23.120  0.00  0.00    -0.421 OA
ATOM     22  O   UNL     1      33.054 -18.821 -25.279  0.00  0.00    -0.244 OA
ATOM     23  C   UNL     1      34.159 -18.682 -21.893  0.00  0.00    +0.148 C 
ATOM     24  C   UNL     1      34.502 -17.387 -21.749  0.00  0.00    +0.047 C 
ATOM     25  C   UNL     1      34.336 -16.518 -22.903  0.00  0.00    +0.144 C 
ATOM     26  C   UNL     1      35.046 -16.757 -20.494  0.00  0.00    +0.037 C 
ATOM     27  C   UNL     1      33.490 -18.392 -24.216  0.00  0.00    +0.349 C 
ATOM     28  C   UNL     1      33.862 -16.976 -24.067  0.00  0.00    +0.119 C 
BRANCH  25  29
ATOM     29  O   UNL     1      34.693 -15.198 -22.727  0.00  0.00    -0.471 OA
ATOM     30  C   UNL     1      33.744 -14.337 -23.327  0.00  0.00    +0.252 C 
ENDBRANCH  25  29
ENDBRANCH  20  23
ENDBRANCH  18  19
ENDBRANCH  16  17
ENDBRANCH   8  15
BRANCH   5  31
ATOM     31  O   UNL     1      38.742 -25.617 -13.207  0.00  0.00    -0.447 OA
BRANCH  31  33
ATOM     32  O   UNL     1      40.865 -26.526 -13.198  0.00  0.00    -0.250 OA
ATOM     33  C   UNL     1      39.984 -25.862 -13.726  0.00  0.00    +0.318 C 
ATOM     34  C   UNL     1      40.121 -25.193 -15.060  0.00  0.00    +0.121 C 
ENDBRANCH  31  33
ENDBRANCH   5  31
TORSDOF 9
ENDMDL
MODEL 3
REMARK VINA RESULT:      -9.8      1.481      3.094
REMARK  Name = 444853
REMARK  9 active torsions:
REMARK  status: ('A' for Active; 'I' for Inactive)
REMARK    1  A    between atoms: C_5  and  O_31
REMARK    2  A    between atoms: C_6  and  C_13
REMARK    3  A    between atoms: C_7  and  O_11
REMARK    4  A    between atoms: C_8  and  C_15
REMARK    5  A    between atoms: C_16  and  C_17
REMARK    6  A    between atoms: C_18  and  C_19
REMARK    7  A    between atoms: C_20  and  C_23
REMARK    8  A    between atoms: C_25  and  O_29
REMARK    9  A    between atoms: O_31  and  C_33
REMARK                            x       y       z     vdW  Elec       q    Type
REMARK                         _______ _______ _______ _____ _____    ______ ____
ROOT
ATOM      1  O   UNL     1      37.223 -25.356 -14.145  0.00  0.00    -0.352 OA
ATOM      2  O   UNL     1      35.165 -23.323 -14.981  0.00  0.00    -0.348 OA
ATOM      3  C   UNL     1      35.193 -24.189 -13.833  0.00  0.00    +0.157 C 
ATOM      4  C   UNL     1      37.489 -24.041 -13.581  0.00  0.00    +0.159 C 
ATOM      5  C   UNL     1      36.208 -23.643 -12.836  0.00  0.00    +0.222 C 
ATOM      6  C   UNL     1      35.793 -25.571 -14.127  0.00  0.00    +0.143 C 
ATOM      7  C   UNL     1      37.634 -23.049 -14.752  0.00  0.00    +0.170 C 
ATOM      8  C   UNL     1      36.401 -23.101 -15.671  0.00  0.00    +0.166 C 
ATOM      9  C   UNL     1      33.769 -24.268 -13.298  0.00  0.00    +0.036 C 
ATOM     10  C   UNL     1      38.740 -24.127 -12.717  0.00  0.00    +0.036 C 
ENDROOT
BRANCH   7  11
ATOM     11  O   UNL     1      38.803 -23.339 -15.519  0.00  0.00    -0.379 OA
ATOM     12  H   UNL     1      39.435 -22.608 -15.432  0.00  0.00    +0.211 HD
ENDBRANCH   7  11
BRANCH   6  13
ATOM     13  C   UNL     1      35.328 -26.289 -15.381  0.00  0.00    +0.032 C 
ATOM     14  C   UNL     1      36.420 -27.172 -15.962  0.00  0.00    +0.003 C 
ENDBRANCH   6  13
BRANCH   8  15
ATOM     15  C   UNL     1      36.253 -21.827 -16.446  0.00  0.00    +0.005 C 
ATOM     16  C   UNL     1      36.251 -21.654 -17.777  0.00  0.00    -0.002 C 
BRANCH  16  17
ATOM     17  C   UNL     1      36.107 -20.404 -18.489  0.00  0.00    -0.000 C 
ATOM     18  C   UNL     1      35.836 -20.344 -19.803  0.00  0.00    +0.000 C 
BRANCH  18  19
ATOM     19  C   UNL     1      35.689 -19.098 -20.523  0.00  0.00    +0.003 C 
ATOM     20  C   UNL     1      34.523 -18.687 -21.041  0.00  0.00    +0.037 C 
BRANCH  20  23
ATOM     21  O   UNL     1      34.363 -16.334 -20.879  0.00  0.00    -0.421 OA
ATOM     22  O   UNL     1      34.220 -14.087 -20.587  0.00  0.00    -0.244 OA
ATOM     23  C   UNL     1      34.370 -17.450 -21.756  0.00  0.00    +0.148 C 
ATOM     24  C   UNL     1      34.244 -17.304 -23.089  0.00  0.00    +0.047 C 
ATOM     25  C   UNL     1      34.099 -15.952 -23.603  0.00  0.00    +0.144 C 
ATOM     26  C   UNL     1      34.239 -18.422 -24.098  0.00  0.00    +0.037 C 
ATOM     27  C   UNL     1      34.227 -15.056 -21.338  0.00  0.00    +0.349 C 
ATOM     28  C   UNL     1      34.089 -14.888 -22.793  0.00  0.00    +0.119 C 
BRANCH  25  29
ATOM     29  O   UNL     1      33.973 -15.832 -24.971  0.00  0.00    -0.471 OA
ATOM     30  C   UNL     1      33.273 -14.650 -25.309  0.00  0.00    +0.252 C 
ENDBRANCH  25  29
ENDBRANCH  20  23
ENDBRANCH  18  19
ENDBRANCH  16  17
ENDBRANCH   8  15
BRANCH   5  31
ATOM     31  O   UNL     1      36.097 -24.299 -11.582  0.00  0.00    -0.447 OA
BRANCH  31  33
ATOM     32  O   UNL     1      35.759 -23.814  -9.349  0.00  0.00    -0.250 OA
ATOM     33  C   UNL     1      36.078 -23.485 -10.482  0.00  0.00    +0.318 C 
ATOM     34  C   UNL     1      36.512 -22.102 -10.864  0.00  0.00    +0.121 C 
ENDBRANCH  31  33
ENDBRANCH   5  31
TORSDOF 9
ENDMDL
MODEL 4
REMARK VINA RESULT:      -9.1      1.595      3.911
REMARK  Name = 444853
REMARK  9 active torsions:
REMARK  status: ('A' for Active; 'I' for Inactive)
REMARK    1  A    between atoms: C_5  and  O_31
REMARK    2  A    between atoms: C_6  and  C_13
REMARK    3  A    between atoms: C_7  and  O_11
REMARK    4  A    between atoms: C_8  and  C_15
REMARK    5  A    between atoms: C_16  and  C_17
REMARK    6  A    between atoms: C_18  and  C_19
REMARK    7  A    between atoms: C_20  and  C_23
REMARK    8  A    between atoms: C_25  and  O_29
REMARK    9  A    between atoms: O_31  and  C_33
REMARK                            x       y       z     vdW  Elec       q    Type
REMARK                         _______ _______ _______ _____ _____    ______ ____
ROOT
ATOM      1  O   UNL     1      38.047 -23.399 -13.618  0.00  0.00    -0.352 OA
ATOM      2  O   UNL     1      36.157 -23.662 -15.946  0.00  0.00    -0.348 OA
ATOM      3  C   UNL     1      36.322 -24.504 -14.792  0.00  0.00    +0.157 C 
ATOM      4  C   UNL     1      36.777 -22.735 -13.370  0.00  0.00    +0.159 C 
ATOM      5  C   UNL     1      35.700 -23.806 -13.588  0.00  0.00    +0.222 C 
ATOM      6  C   UNL     1      37.781 -24.628 -14.332  0.00  0.00    +0.143 C 
ATOM      7  C   UNL     1      36.572 -21.686 -14.482  0.00  0.00    +0.170 C 
ATOM      8  C   UNL     1      36.684 -22.332 -15.874  0.00  0.00    +0.166 C 
ATOM      9  C   UNL     1      35.695 -25.851 -15.128  0.00  0.00    +0.036 C 
ATOM     10  C   UNL     1      36.810 -22.124 -11.976  0.00  0.00    +0.036 C 
ENDROOT
BRANCH   7  11
ATOM     11  O   UNL     1      37.536 -20.638 -14.373  0.00  0.00    -0.379 OA
ATOM     12  H   UNL     1      37.990 -20.528 -15.223  0.00  0.00    +0.211 HD
ENDBRANCH   7  11
BRANCH   6  13
ATOM     13  C   UNL     1      38.835 -24.889 -15.392  0.00  0.00    +0.032 C 
ATOM     14  C   UNL     1      40.173 -25.263 -14.777  0.00  0.00    +0.003 C 
ENDBRANCH   6  13
BRANCH   8  15
ATOM     15  C   UNL     1      35.967 -21.515 -16.905  0.00  0.00    +0.005 C 
ATOM     16  C   UNL     1      36.137 -21.514 -18.237  0.00  0.00    -0.002 C 
BRANCH  16  17
ATOM     17  C   UNL     1      35.424 -20.707 -19.203  0.00  0.00    -0.000 C 
ATOM     18  C   UNL     1      36.015 -19.729 -19.908  0.00  0.00    +0.000 C 
BRANCH  18  19
ATOM     19  C   UNL     1      35.309 -18.918 -20.876  0.00  0.00    +0.003 C 
ATOM     20  C   UNL     1      35.350 -17.579 -20.875  0.00  0.00    +0.037 C 
BRANCH  20  23
ATOM     21  O   UNL     1      34.575 -17.400 -23.101  0.00  0.00    -0.421 OA
ATOM     22  O   UNL     1      33.886 -17.352 -25.264  0.00  0.00    -0.244 OA
ATOM     23  C   UNL     1      34.652 -16.767 -21.833  0.00  0.00    +0.148 C 
ATOM     24  C   UNL     1      34.117 -15.550 -21.615  0.00  0.00    +0.047 C 
ATOM     25  C   UNL     1      33.452 -14.902 -22.734  0.00  0.00    +0.144 C 
ATOM     26  C   UNL     1      34.147 -14.797 -20.312  0.00  0.00    +0.037 C 
ATOM     27  C   UNL     1      33.958 -16.812 -24.166  0.00  0.00    +0.349 C 
ATOM     28  C   UNL     1      33.370 -15.482 -23.937  0.00  0.00    +0.119 C 
BRANCH  25  29
ATOM     29  O   UNL     1      32.912 -13.658 -22.484  0.00  0.00    -0.471 OA
ATOM     30  C   UNL     1      33.333 -12.723 -23.457  0.00  0.00    +0.252 C 
ENDBRANCH  25  29
ENDBRANCH  20  23
ENDBRANCH  18  19
ENDBRANCH  16  17
ENDBRANCH   8  15
BRANCH   5  31
ATOM     31  O   UNL     1      35.599 -24.689 -12.481  0.00  0.00    -0.447 OA
BRANCH  31  33
ATOM     32  O   UNL     1      34.684 -24.584 -10.363  0.00  0.00    -0.250 OA
ATOM     33  C   UNL     1      34.623 -24.394 -11.569  0.00  0.00    +0.318 C 
ATOM     34  C   UNL     1      33.440 -23.790 -12.265  0.00  0.00    +0.121 C 
ENDBRANCH  31  33
ENDBRANCH   5  31
TORSDOF 9
ENDMDL
MODEL 5
REMARK VINA RESULT:      -9.0      1.375      3.392
REMARK  Name = 444853
REMARK  9 active torsions:
REMARK  status: ('A' for Active; 'I' for Inactive)
REMARK    1  A    between atoms: C_5  and  O_31
REMARK    2  A    between atoms: C_6  and  C_13
REMARK    3  A    between atoms: C_7  and  O_11
REMARK    4  A    between atoms: C_8  and  C_15
REMARK    5  A    between atoms: C_16  and  C_17
REMARK    6  A    between atoms: C_18  and  C_19
REMARK    7  A    between atoms: C_20  and  C_23
REMARK    8  A    between atoms: C_25  and  O_29
REMARK    9  A    between atoms: O_31  and  C_33
REMARK                            x       y       z     vdW  Elec       q    Type
REMARK                         _______ _______ _______ _____ _____    ______ ____
ROOT
ATOM      1  O   UNL     1      38.152 -23.574 -13.196  0.00  0.00    -0.352 OA
ATOM      2  O   UNL     1      36.252 -24.026 -15.487  0.00  0.00    -0.348 OA
ATOM      3  C   UNL     1      36.457 -24.800 -14.292  0.00  0.00    +0.157 C 
ATOM      4  C   UNL     1      36.860 -22.943 -12.970  0.00  0.00    +0.159 C 
ATOM      5  C   UNL     1      35.821 -24.062 -13.120  0.00  0.00    +0.222 C 
ATOM      6  C   UNL     1      37.924 -24.847 -13.842  0.00  0.00    +0.143 C 
ATOM      7  C   UNL     1      36.608 -21.962 -14.132  0.00  0.00    +0.170 C 
ATOM      8  C   UNL     1      36.731 -22.676 -15.490  0.00  0.00    +0.166 C 
ATOM      9  C   UNL     1      35.876 -26.184 -14.551  0.00  0.00    +0.036 C 
ATOM     10  C   UNL     1      36.885 -22.260 -11.610  0.00  0.00    +0.036 C 
ENDROOT
BRANCH   7  11
ATOM     11  O   UNL     1      37.535 -20.877 -14.088  0.00  0.00    -0.379 OA
ATOM     12  H   UNL     1      37.048 -20.038 -14.039  0.00  0.00    +0.211 HD
ENDBRANCH   7  11
BRANCH   6  13
ATOM     13  C   UNL     1      38.977 -25.126 -14.899  0.00  0.00    +0.032 C 
ATOM     14  C   UNL     1      40.249 -25.692 -14.291  0.00  0.00    +0.003 C 
ENDBRANCH   6  13
BRANCH   8  15
ATOM     15  C   UNL     1      35.976 -21.940 -16.555  0.00  0.00    +0.005 C 
ATOM     16  C   UNL     1      36.395 -21.578 -17.778  0.00  0.00    -0.002 C 
BRANCH  16  17
ATOM     17  C   UNL     1      35.635 -20.865 -18.780  0.00  0.00    -0.000 C 
ATOM     18  C   UNL     1      36.206 -20.052 -19.683  0.00  0.00    +0.000 C 
BRANCH  18  19
ATOM     19  C   UNL     1      35.453 -19.336 -20.689  0.00  0.00    +0.003 C 
ATOM     20  C   UNL     1      35.725 -18.072 -21.043  0.00  0.00    +0.037 C 
BRANCH  20  23
ATOM     21  O   UNL     1      34.820 -15.988 -21.696  0.00  0.00    -0.421 OA
ATOM     22  O   UNL     1      34.000 -13.934 -22.206  0.00  0.00    -0.244 OA
ATOM     23  C   UNL     1      34.982 -17.355 -22.042  0.00  0.00    +0.148 C 
ATOM     24  C   UNL     1      34.476 -17.862 -23.183  0.00  0.00    +0.047 C 
ATOM     25  C   UNL     1      33.752 -16.952 -24.055  0.00  0.00    +0.144 C 
ATOM     26  C   UNL     1      34.593 -19.293 -23.636  0.00  0.00    +0.037 C 
ATOM     27  C   UNL     1      34.143 -15.116 -22.498  0.00  0.00    +0.349 C 
ATOM     28  C   UNL     1      33.588 -15.661 -23.747  0.00  0.00    +0.119 C 
BRANCH  25  29
ATOM     29  O   UNL     1      33.246 -17.496 -25.217  0.00  0.00    -0.471 OA
ATOM     30  C   UNL     1      31.942 -18.004 -25.008  0.00  0.00    +0.252 C 
ENDBRANCH  25  29
ENDBRANCH  20  23
ENDBRANCH  18  19
ENDBRANCH  16  17
ENDBRANCH   8  15
BRANCH   5  31
ATOM     31  O   UNL     1      35.762 -24.889 -11.967  0.00  0.00    -0.447 OA
BRANCH  31  33
ATOM     32  O   UNL     1      34.933 -24.748  -9.816  0.00  0.00    -0.250 OA
ATOM     33  C   UNL     1      34.852 -24.520 -11.014  0.00  0.00    +0.318 C 
ATOM     34  C   UNL     1      33.715 -23.782 -11.654  0.00  0.00    +0.121 C 
ENDBRANCH  31  33
ENDBRANCH   5  31
TORSDOF 9
ENDMDL
MODEL 6
REMARK VINA RESULT:      -8.8      8.005     16.859
REMARK  Name = 444853
REMARK  9 active torsions:
REMARK  status: ('A' for Active; 'I' for Inactive)
REMARK    1  A    between atoms: C_5  and  O_31
REMARK    2  A    between atoms: C_6  and  C_13
REMARK    3  A    between atoms: C_7  and  O_11
REMARK    4  A    between atoms: C_8  and  C_15
REMARK    5  A    between atoms: C_16  and  C_17
REMARK    6  A    between atoms: C_18  and  C_19
REMARK    7  A    between atoms: C_20  and  C_23
REMARK    8  A    between atoms: C_25  and  O_29
REMARK    9  A    between atoms: O_31  and  C_33
REMARK                            x       y       z     vdW  Elec       q    Type
REMARK                         _______ _______ _______ _____ _____    ______ ____
ROOT
ATOM      1  O   UNL     1      32.670  -5.045 -22.850  0.00  0.00    -0.352 OA
ATOM      2  O   UNL     1      31.359  -7.645 -23.616  0.00  0.00    -0.348 OA
ATOM      3  C   UNL     1      31.117  -6.312 -24.099  0.00  0.00    +0.157 C 
ATOM      4  C   UNL     1      33.343  -5.691 -23.967  0.00  0.00    +0.159 C 
ATOM      5  C   UNL     1      32.259  -5.918 -25.029  0.00  0.00    +0.222 C 
ATOM      6  C   UNL     1      31.246  -5.237 -23.011  0.00  0.00    +0.143 C 
ATOM      7  C   UNL     1      33.788  -7.092 -23.499  0.00  0.00    +0.170 C 
ATOM      8  C   UNL     1      32.597  -7.887 -22.937  0.00  0.00    +0.166 C 
ATOM      9  C   UNL     1      29.745  -6.319 -24.760  0.00  0.00    +0.036 C 
ATOM     10  C   UNL     1      34.507  -4.814 -24.406  0.00  0.00    +0.036 C 
ENDROOT
BRANCH   7  11
ATOM     11  O   UNL     1      34.800  -6.992 -22.497  0.00  0.00    -0.379 OA
ATOM     12  H   UNL     1      35.658  -6.827 -22.920  0.00  0.00    +0.211 HD
ENDBRANCH   7  11
BRANCH   6  13
ATOM     13  C   UNL     1      30.571  -5.499 -21.677  0.00  0.00    +0.032 C 
ATOM     14  C   UNL     1      31.540  -5.352 -20.517  0.00  0.00    +0.003 C 
ENDBRANCH   6  13
BRANCH   8  15
ATOM     15  C   UNL     1      32.857  -9.361 -23.001  0.00  0.00    +0.005 C 
ATOM     16  C   UNL     1      32.106 -10.364 -22.519  0.00  0.00    -0.002 C 
BRANCH  16  17
ATOM     17  C   UNL     1      32.392 -11.779 -22.599  0.00  0.00    -0.000 C 
ATOM     18  C   UNL     1      32.820 -12.495 -21.546  0.00  0.00    +0.000 C 
BRANCH  18  19
ATOM     19  C   UNL     1      33.108 -13.910 -21.619  0.00  0.00    +0.003 C 
ATOM     20  C   UNL     1      33.977 -14.435 -22.494  0.00  0.00    +0.037 C 
BRANCH  20  23
ATOM     21  O   UNL     1      35.022 -16.282 -21.453  0.00  0.00    -0.421 OA
ATOM     22  O   UNL     1      36.067 -17.972 -20.353  0.00  0.00    -0.244 OA
ATOM     23  C   UNL     1      34.268 -15.839 -22.571  0.00  0.00    +0.148 C 
ATOM     24  C   UNL     1      33.899 -16.682 -23.555  0.00  0.00    +0.047 C 
ATOM     25  C   UNL     1      34.305 -18.073 -23.431  0.00  0.00    +0.144 C 
ATOM     26  C   UNL     1      33.103 -16.310 -24.777  0.00  0.00    +0.037 C 
ATOM     27  C   UNL     1      35.415 -17.581 -21.316  0.00  0.00    +0.349 C 
ATOM     28  C   UNL     1      35.016 -18.509 -22.386  0.00  0.00    +0.119 C 
BRANCH  25  29
ATOM     29  O   UNL     1      33.912 -18.914 -24.452  0.00  0.00    -0.471 OA
ATOM     30  C   UNL     1      34.642 -20.125 -24.412  0.00  0.00    +0.252 C 
ENDBRANCH  25  29
ENDBRANCH  20  23
ENDBRANCH  18  19
ENDBRANCH  16  17
ENDBRANCH   8  15
BRANCH   5  31
ATOM     31  O   UNL     1      31.953  -4.726 -25.737  0.00  0.00    -0.447 OA
BRANCH  31  33
ATOM     32  O   UNL     1      32.986  -3.511 -27.408  0.00  0.00    -0.250 OA
ATOM     33  C   UNL     1      32.586  -4.568 -26.940  0.00  0.00    +0.318 C 
ATOM     34  C   UNL     1      32.727  -5.895 -27.621  0.00  0.00    +0.121 C 
ENDBRANCH  31  33
ENDBRANCH   5  31
TORSDOF 9
ENDMDL
MODEL 7
REMARK VINA RESULT:      -8.3      1.729      3.804
REMARK  Name = 444853
REMARK  9 active torsions:
REMARK  status: ('A' for Active; 'I' for Inactive)
REMARK    1  A    between atoms: C_5  and  O_31
REMARK    2  A    between atoms: C_6  and  C_13
REMARK    3  A    between atoms: C_7  and  O_11
REMARK    4  A    between atoms: C_8  and  C_15
REMARK    5  A    between atoms: C_16  and  C_17
REMARK    6  A    between atoms: C_18  and  C_19
REMARK    7  A    between atoms: C_20  and  C_23
REMARK    8  A    between atoms: C_25  and  O_29
REMARK    9  A    between atoms: O_31  and  C_33
REMARK                            x       y       z     vdW  Elec       q    Type
REMARK                         _______ _______ _______ _____ _____    ______ ____
ROOT
ATOM      1  O   UNL     1      37.155 -24.838 -14.638  0.00  0.00    -0.352 OA
ATOM      2  O   UNL     1      34.752 -23.251 -15.517  0.00  0.00    -0.348 OA
ATOM      3  C   UNL     1      34.946 -24.057 -14.342  0.00  0.00    +0.157 C 
ATOM      4  C   UNL     1      37.177 -23.479 -14.120  0.00  0.00    +0.159 C 
ATOM      5  C   UNL     1      35.847 -23.299 -13.375  0.00  0.00    +0.222 C 
ATOM      6  C   UNL     1      35.790 -25.313 -14.598  0.00  0.00    +0.143 C 
ATOM      7  C   UNL     1      37.129 -22.517 -15.325  0.00  0.00    +0.170 C 
ATOM      8  C   UNL     1      35.922 -22.828 -16.228  0.00  0.00    +0.166 C 
ATOM      9  C   UNL     1      33.564 -24.380 -13.788  0.00  0.00    +0.036 C 
ATOM     10  C   UNL     1      38.426 -23.302 -13.269  0.00  0.00    +0.036 C 
ENDROOT
BRANCH   7  11
ATOM     11  O   UNL     1      38.327 -22.612 -16.095  0.00  0.00    -0.379 OA
ATOM     12  H   UNL     1      38.230 -23.314 -16.758  0.00  0.00    +0.211 HD
ENDBRANCH   7  11
BRANCH   6  13
ATOM     13  C   UNL     1      35.460 -26.147 -15.822  0.00  0.00    +0.032 C 
ATOM     14  C   UNL     1      36.458 -27.276 -16.021  0.00  0.00    +0.003 C 
ENDBRANCH   6  13
BRANCH   8  15
ATOM     15  C   UNL     1      35.537 -21.630 -17.042  0.00  0.00    +0.005 C 
ATOM     16  C   UNL     1      35.705 -21.425 -18.358  0.00  0.00    -0.002 C 
BRANCH  16  17
ATOM     17  C   UNL     1      35.320 -20.251 -19.110  0.00  0.00    -0.000 C 
ATOM     18  C   UNL     1      34.579 -20.316 -20.227  0.00  0.00    +0.000 C 
BRANCH  18  19
ATOM     19  C   UNL     1      34.189 -19.146 -20.984  0.00  0.00    +0.003 C 
ATOM     20  C   UNL     1      34.937 -18.036 -21.049  0.00  0.00    +0.037 C 
BRANCH  20  23
ATOM     21  O   UNL     1      34.602 -17.109 -23.198  0.00  0.00    -0.421 OA
ATOM     22  O   UNL     1      34.319 -16.340 -25.315  0.00  0.00    -0.244 OA
ATOM     23  C   UNL     1      34.557 -16.872 -21.799  0.00  0.00    +0.148 C 
ATOM     24  C   UNL     1      34.194 -15.676 -21.295  0.00  0.00    +0.047 C 
ATOM     25  C   UNL     1      33.847 -14.629 -22.242  0.00  0.00    +0.144 C 
ATOM     26  C   UNL     1      34.116 -15.326 -19.833  0.00  0.00    +0.037 C 
ATOM     27  C   UNL     1      34.283 -16.142 -24.105  0.00  0.00    +0.349 C 
ATOM     28  C   UNL     1      33.884 -14.833 -23.563  0.00  0.00    +0.119 C 
BRANCH  25  29
ATOM     29  O   UNL     1      33.477 -13.416 -21.700  0.00  0.00    -0.471 OA
ATOM     30  C   UNL     1      33.192 -12.477 -22.718  0.00  0.00    +0.252 C 
ENDBRANCH  25  29
ENDBRANCH  20  23
ENDBRANCH  18  19
ENDBRANCH  16  17
ENDBRANCH   8  15
BRANCH   5  31
ATOM     31  O   UNL     1      35.867 -23.921 -12.098  0.00  0.00    -0.447 OA
BRANCH  31  33
ATOM     32  O   UNL     1      36.411 -21.949 -11.025  0.00  0.00    -0.250 OA
ATOM     33  C   UNL     1      35.936 -23.076 -11.024  0.00  0.00    +0.318 C 
ATOM     34  C   UNL     1      35.335 -23.733  -9.818  0.00  0.00    +0.121 C 
ENDBRANCH  31  33
ENDBRANCH   5  31
TORSDOF 9
ENDMDL
