MODEL 1
REMARK VINA RESULT:     -12.0      0.000      0.000
REMARK  Name = 10168
REMARK  4 active torsions:
REMARK  status: ('A' for Active; 'I' for Inactive)
REMARK    1  A    between atoms: C_9  and  O_17
REMARK    2  A    between atoms: C_11  and  O_19
REMARK    3  A    between atoms: C_12  and  C_22
REMARK    4  A    between atoms: C_22  and  O_23
REMARK                            x       y       z     vdW  Elec       q    Type
REMARK                         _______ _______ _______ _____ _____    ______ ____
ROOT
ATOM      1  O   UNL     1      33.162 -15.688 -25.401  0.00  0.00    -0.286 OA
ATOM      2  O   UNL     1      34.283 -14.244 -20.380  0.00  0.00    -0.287 OA
ATOM      3  C   UNL     1      33.953 -16.343 -23.290  0.00  0.00    +0.076 C 
ATOM      4  C   UNL     1      34.246 -15.966 -21.978  0.00  0.00    +0.045 C 
ATOM      5  C   UNL     1      33.201 -13.966 -23.805  0.00  0.00    +0.076 C 
ATOM      6  C   UNL     1      33.494 -13.589 -22.493  0.00  0.00    +0.045 C 
ATOM      7  C   UNL     1      33.420 -15.357 -24.252  0.00  0.00    +0.202 C 
ATOM      8  C   UNL     1      34.027 -14.575 -21.531  0.00  0.00    +0.196 C 
ATOM      9  C   UNL     1      34.165 -17.665 -23.701  0.00  0.00    +0.137 C 
ATOM     10  C   UNL     1      34.751 -16.911 -21.076  0.00  0.00    +0.010 C 
ATOM     11  C   UNL     1      32.697 -13.021 -24.706  0.00  0.00    +0.137 C 
ATOM     12  C   UNL     1      34.961 -18.227 -21.489  0.00  0.00    +0.079 C 
ATOM     13  C   UNL     1      33.282 -12.267 -22.082  0.00  0.00    +0.003 C 
ATOM     14  C   UNL     1      34.668 -18.603 -22.798  0.00  0.00    +0.043 C 
ATOM     15  C   UNL     1      32.488 -11.705 -24.293  0.00  0.00    +0.037 C 
ATOM     16  C   UNL     1      32.779 -11.329 -22.984  0.00  0.00    +0.003 C 
ENDROOT
BRANCH   9  17
ATOM     17  O   UNL     1      33.902 -18.101 -24.965  0.00  0.00    -0.505 OA
ATOM     18  H   UNL     1      34.589 -18.467 -25.487  0.00  0.00    +0.292 HD
ENDBRANCH   9  17
BRANCH  11  19
ATOM     19  O   UNL     1      32.389 -13.320 -26.001  0.00  0.00    -0.505 OA
ATOM     20  H   UNL     1      32.730 -12.793 -26.697  0.00  0.00    +0.292 HD
ENDBRANCH  11  19
BRANCH  12  22
ATOM     21  O   UNL     1      34.938 -20.274 -20.251  0.00  0.00    -0.245 OA
ATOM     22  C   UNL     1      35.485 -19.208 -20.552  0.00  0.00    +0.338 C 
BRANCH  22  23
ATOM     23  O   UNL     1      36.679 -18.831 -20.016  0.00  0.00    -0.477 OA
ATOM     24  H   UNL     1      36.892 -17.921 -19.944  0.00  0.00    +0.295 HD
ENDBRANCH  22  23
ENDBRANCH  12  22
TORSDOF 4
ENDMDL
MODEL 2
REMARK VINA RESULT:     -11.1      1.639      5.929
REMARK  Name = 10168
REMARK  4 active torsions:
REMARK  status: ('A' for Active; 'I' for Inactive)
REMARK    1  A    between atoms: C_9  and  O_17
REMARK    2  A    between atoms: C_11  and  O_19
REMARK    3  A    between atoms: C_12  and  C_22
REMARK    4  A    between atoms: C_22  and  O_23
REMARK                            x       y       z     vdW  Elec       q    Type
REMARK                         _______ _______ _______ _____ _____    ______ ____
ROOT
ATOM      1  O   UNL     1      33.244 -15.960 -25.388  0.00  0.00    -0.286 OA
ATOM      2  O   UNL     1      34.277 -14.262 -20.427  0.00  0.00    -0.287 OA
ATOM      3  C   UNL     1      33.244 -14.162 -23.878  0.00  0.00    +0.076 C 
ATOM      4  C   UNL     1      33.514 -13.718 -22.582  0.00  0.00    +0.045 C 
ATOM      5  C   UNL     1      34.004 -16.505 -23.233  0.00  0.00    +0.076 C 
ATOM      6  C   UNL     1      34.274 -16.061 -21.938  0.00  0.00    +0.045 C 
ATOM      7  C   UNL     1      33.479 -15.572 -24.251  0.00  0.00    +0.202 C 
ATOM      8  C   UNL     1      34.039 -14.652 -21.564  0.00  0.00    +0.196 C 
ATOM      9  C   UNL     1      32.746 -13.267 -24.833  0.00  0.00    +0.137 C 
ATOM     10  C   UNL     1      33.287 -12.380 -22.240  0.00  0.00    +0.010 C 
ATOM     11  C   UNL     1      34.232 -17.843 -23.574  0.00  0.00    +0.137 C 
ATOM     12  C   UNL     1      32.791 -11.491 -23.195  0.00  0.00    +0.079 C 
ATOM     13  C   UNL     1      34.772 -16.956 -20.982  0.00  0.00    +0.003 C 
ATOM     14  C   UNL     1      32.521 -11.934 -24.488  0.00  0.00    +0.043 C 
ATOM     15  C   UNL     1      34.727 -18.732 -22.619  0.00  0.00    +0.037 C 
ATOM     16  C   UNL     1      34.997 -18.289 -21.326  0.00  0.00    +0.003 C 
ENDROOT
BRANCH   9  17
ATOM     17  O   UNL     1      32.460 -13.632 -26.114  0.00  0.00    -0.505 OA
ATOM     18  H   UNL     1      33.150 -13.719 -26.742  0.00  0.00    +0.292 HD
ENDBRANCH   9  17
BRANCH  11  19
ATOM     19  O   UNL     1      33.991 -18.344 -24.820  0.00  0.00    -0.505 OA
ATOM     20  H   UNL     1      33.409 -17.895 -25.401  0.00  0.00    +0.292 HD
ENDBRANCH  11  19
BRANCH  12  22
ATOM     21  O   UNL     1      33.232  -9.140 -23.220  0.00  0.00    -0.245 OA
ATOM     22  C   UNL     1      32.555 -10.100 -22.840  0.00  0.00    +0.338 C 
BRANCH  22  23
ATOM     23  O   UNL     1      31.478  -9.948 -22.020  0.00  0.00    -0.477 OA
ATOM     24  H   UNL     1      31.040  -9.121 -21.972  0.00  0.00    +0.295 HD
ENDBRANCH  22  23
ENDBRANCH  12  22
TORSDOF 4
ENDMDL
MODEL 3
REMARK VINA RESULT:     -10.9      7.716     10.958
REMARK  Name = 10168
REMARK  4 active torsions:
REMARK  status: ('A' for Active; 'I' for Inactive)
REMARK    1  A    between atoms: C_9  and  O_17
REMARK    2  A    between atoms: C_11  and  O_19
REMARK    3  A    between atoms: C_12  and  C_22
REMARK    4  A    between atoms: C_22  and  O_23
REMARK                            x       y       z     vdW  Elec       q    Type
REMARK                         _______ _______ _______ _____ _____    ______ ____
ROOT
ATOM      1  O   UNL     1      32.171 -23.110 -16.174  0.00  0.00    -0.286 OA
ATOM      2  O   UNL     1      37.333 -21.981 -15.377  0.00  0.00    -0.287 OA
ATOM      3  C   UNL     1      34.002 -23.179 -14.706  0.00  0.00    +0.076 C 
ATOM      4  C   UNL     1      35.350 -22.884 -14.497  0.00  0.00    +0.045 C 
ATOM      5  C   UNL     1      34.154 -22.211 -17.055  0.00  0.00    +0.076 C 
ATOM      6  C   UNL     1      35.502 -21.915 -16.847  0.00  0.00    +0.045 C 
ATOM      7  C   UNL     1      33.354 -22.853 -15.992  0.00  0.00    +0.202 C 
ATOM      8  C   UNL     1      36.150 -22.241 -15.560  0.00  0.00    +0.196 C 
ATOM      9  C   UNL     1      33.255 -23.788 -13.690  0.00  0.00    +0.137 C 
ATOM     10  C   UNL     1      35.953 -23.197 -13.273  0.00  0.00    +0.010 C 
ATOM     11  C   UNL     1      33.552 -21.897 -18.280  0.00  0.00    +0.137 C 
ATOM     12  C   UNL     1      35.206 -23.804 -12.263  0.00  0.00    +0.079 C 
ATOM     13  C   UNL     1      36.249 -21.306 -17.863  0.00  0.00    +0.003 C 
ATOM     14  C   UNL     1      33.860 -24.099 -12.471  0.00  0.00    +0.043 C 
ATOM     15  C   UNL     1      34.300 -21.291 -19.289  0.00  0.00    +0.037 C 
ATOM     16  C   UNL     1      35.645 -20.995 -19.081  0.00  0.00    +0.003 C 
ENDROOT
BRANCH   9  17
ATOM     17  O   UNL     1      31.936 -24.104 -13.826  0.00  0.00    -0.505 OA
ATOM     18  H   UNL     1      31.398 -24.208 -13.065  0.00  0.00    +0.292 HD
ENDBRANCH   9  17
BRANCH  11  19
ATOM     19  O   UNL     1      32.241 -22.156 -18.551  0.00  0.00    -0.505 OA
ATOM     20  H   UNL     1      31.922 -22.087 -19.430  0.00  0.00    +0.292 HD
ENDBRANCH  11  19
BRANCH  12  22
ATOM     21  O   UNL     1      37.019 -23.941 -10.709  0.00  0.00    -0.245 OA
ATOM     22  C   UNL     1      35.831 -24.130 -10.991  0.00  0.00    +0.338 C 
BRANCH  22  23
ATOM     23  O   UNL     1      34.957 -24.684 -10.107  0.00  0.00    -0.477 OA
ATOM     24  H   UNL     1      34.486 -25.460 -10.339  0.00  0.00    +0.295 HD
ENDBRANCH  22  23
ENDBRANCH  12  22
TORSDOF 4
ENDMDL
MODEL 4
REMARK VINA RESULT:     -10.6      8.464     11.559
REMARK  Name = 10168
REMARK  4 active torsions:
REMARK  status: ('A' for Active; 'I' for Inactive)
REMARK    1  A    between atoms: C_9  and  O_17
REMARK    2  A    between atoms: C_11  and  O_19
REMARK    3  A    between atoms: C_12  and  C_22
REMARK    4  A    between atoms: C_22  and  O_23
REMARK                            x       y       z     vdW  Elec       q    Type
REMARK                         _______ _______ _______ _____ _____    ______ ____
ROOT
ATOM      1  O   UNL     1      34.961 -23.341 -13.681  0.00  0.00    -0.286 OA
ATOM      2  O   UNL     1      31.929 -22.289 -17.953  0.00  0.00    -0.287 OA
ATOM      3  C   UNL     1      32.828 -23.433 -14.657  0.00  0.00    +0.076 C 
ATOM      4  C   UNL     1      32.036 -23.159 -15.773  0.00  0.00    +0.045 C 
ATOM      5  C   UNL     1      34.854 -22.468 -15.859  0.00  0.00    +0.076 C 
ATOM      6  C   UNL     1      34.062 -22.194 -16.975  0.00  0.00    +0.045 C 
ATOM      7  C   UNL     1      34.266 -23.098 -14.659  0.00  0.00    +0.202 C 
ATOM      8  C   UNL     1      32.623 -22.529 -16.973  0.00  0.00    +0.196 C 
ATOM      9  C   UNL     1      32.258 -24.031 -13.526  0.00  0.00    +0.137 C 
ATOM     10  C   UNL     1      30.673 -23.481 -15.759  0.00  0.00    +0.010 C 
ATOM     11  C   UNL     1      36.216 -22.145 -15.874  0.00  0.00    +0.137 C 
ATOM     12  C   UNL     1      30.109 -24.077 -14.630  0.00  0.00    +0.079 C 
ATOM     13  C   UNL     1      34.631 -21.596 -18.106  0.00  0.00    +0.003 C 
ATOM     14  C   UNL     1      30.900 -24.350 -13.516  0.00  0.00    +0.043 C 
ATOM     15  C   UNL     1      36.779 -21.549 -17.002  0.00  0.00    +0.037 C 
ATOM     16  C   UNL     1      35.989 -21.276 -18.116  0.00  0.00    +0.003 C 
ENDROOT
BRANCH   9  17
ATOM     17  O   UNL     1      32.972 -24.325 -12.403  0.00  0.00    -0.505 OA
ATOM     18  H   UNL     1      33.908 -24.285 -12.418  0.00  0.00    +0.292 HD
ENDBRANCH   9  17
BRANCH  11  19
ATOM     19  O   UNL     1      37.048 -22.385 -14.820  0.00  0.00    -0.505 OA
ATOM     20  H   UNL     1      37.785 -21.826 -14.668  0.00  0.00    +0.292 HD
ENDBRANCH  11  19
BRANCH  12  22
ATOM     21  O   UNL     1      27.804 -23.786 -15.201  0.00  0.00    -0.245 OA
ATOM     22  C   UNL     1      28.694 -24.412 -14.615  0.00  0.00    +0.338 C 
BRANCH  22  23
ATOM     23  O   UNL     1      28.429 -25.519 -13.869  0.00  0.00    -0.477 OA
ATOM     24  H   UNL     1      29.093 -25.882 -13.318  0.00  0.00    +0.295 HD
ENDBRANCH  22  23
ENDBRANCH  12  22
TORSDOF 4
ENDMDL
MODEL 5
REMARK VINA RESULT:     -10.5      6.723      9.898
REMARK  Name = 10168
REMARK  4 active torsions:
REMARK  status: ('A' for Active; 'I' for Inactive)
REMARK    1  A    between atoms: C_9  and  O_17
REMARK    2  A    between atoms: C_11  and  O_19
REMARK    3  A    between atoms: C_12  and  C_22
REMARK    4  A    between atoms: C_22  and  O_23
REMARK                            x       y       z     vdW  Elec       q    Type
REMARK                         _______ _______ _______ _____ _____    ______ ____
ROOT
ATOM      1  O   UNL     1      31.701 -22.429 -17.482  0.00  0.00    -0.286 OA
ATOM      2  O   UNL     1      36.869 -21.888 -16.235  0.00  0.00    -0.287 OA
ATOM      3  C   UNL     1      33.395 -22.781 -15.895  0.00  0.00    +0.076 C 
ATOM      4  C   UNL     1      34.745 -22.640 -15.569  0.00  0.00    +0.045 C 
ATOM      5  C   UNL     1      33.824 -21.680 -18.149  0.00  0.00    +0.076 C 
ATOM      6  C   UNL     1      35.174 -21.538 -17.823  0.00  0.00    +0.045 C 
ATOM      7  C   UNL     1      32.885 -22.306 -17.197  0.00  0.00    +0.202 C 
ATOM      8  C   UNL     1      35.685 -22.013 -16.521  0.00  0.00    +0.196 C 
ATOM      9  C   UNL     1      32.515 -23.377 -14.983  0.00  0.00    +0.137 C 
ATOM     10  C   UNL     1      35.216 -23.094 -14.331  0.00  0.00    +0.010 C 
ATOM     11  C   UNL     1      33.354 -21.225 -19.387  0.00  0.00    +0.137 C 
ATOM     12  C   UNL     1      34.336 -23.687 -13.424  0.00  0.00    +0.079 C 
ATOM     13  C   UNL     1      36.054 -20.942 -18.735  0.00  0.00    +0.003 C 
ATOM     14  C   UNL     1      32.989 -23.828 -13.750  0.00  0.00    +0.043 C 
ATOM     15  C   UNL     1      34.234 -20.633 -20.293  0.00  0.00    +0.037 C 
ATOM     16  C   UNL     1      35.581 -20.491 -19.967  0.00  0.00    +0.003 C 
ENDROOT
BRANCH   9  17
ATOM     17  O   UNL     1      31.186 -23.548 -15.236  0.00  0.00    -0.505 OA
ATOM     18  H   UNL     1      30.896 -24.282 -15.741  0.00  0.00    +0.292 HD
ENDBRANCH   9  17
BRANCH  11  19
ATOM     19  O   UNL     1      32.049 -21.331 -19.771  0.00  0.00    -0.505 OA
ATOM     20  H   UNL     1      31.744 -20.868 -20.526  0.00  0.00    +0.292 HD
ENDBRANCH  11  19
BRANCH  12  22
ATOM     21  O   UNL     1      34.532 -23.675 -11.040  0.00  0.00    -0.245 OA
ATOM     22  C   UNL     1      34.825 -24.159 -12.139  0.00  0.00    +0.338 C 
BRANCH  22  23
ATOM     23  O   UNL     1      35.668 -25.222 -12.260  0.00  0.00    -0.477 OA
ATOM     24  H   UNL     1      36.133 -25.361 -13.061  0.00  0.00    +0.295 HD
ENDBRANCH  22  23
ENDBRANCH  12  22
TORSDOF 4
ENDMDL
MODEL 6
REMARK VINA RESULT:     -10.3      9.709     12.229
REMARK  Name = 10168
REMARK  4 active torsions:
REMARK  status: ('A' for Active; 'I' for Inactive)
REMARK    1  A    between atoms: C_9  and  O_17
REMARK    2  A    between atoms: C_11  and  O_19
REMARK    3  A    between atoms: C_12  and  C_22
REMARK    4  A    between atoms: C_22  and  O_23
REMARK                            x       y       z     vdW  Elec       q    Type
REMARK                         _______ _______ _______ _____ _____    ______ ____
ROOT
ATOM      1  O   UNL     1      33.006 -23.920 -12.471  0.00  0.00    -0.286 OA
ATOM      2  O   UNL     1      33.098 -22.160 -17.516  0.00  0.00    -0.287 OA
ATOM      3  C   UNL     1      31.771 -23.355 -14.386  0.00  0.00    +0.076 C 
ATOM      4  C   UNL     1      31.795 -22.895 -15.704  0.00  0.00    +0.045 C 
ATOM      5  C   UNL     1      34.308 -23.183 -14.281  0.00  0.00    +0.076 C 
ATOM      6  C   UNL     1      34.332 -22.723 -15.599  0.00  0.00    +0.045 C 
ATOM      7  C   UNL     1      33.027 -23.515 -13.626  0.00  0.00    +0.202 C 
ATOM      8  C   UNL     1      33.076 -22.563 -16.359  0.00  0.00    +0.196 C 
ATOM      9  C   UNL     1      30.549 -23.667 -13.777  0.00  0.00    +0.137 C 
ATOM     10  C   UNL     1      30.597 -22.747 -16.415  0.00  0.00    +0.010 C 
ATOM     11  C   UNL     1      35.506 -23.331 -13.572  0.00  0.00    +0.137 C 
ATOM     12  C   UNL     1      29.381 -23.059 -15.804  0.00  0.00    +0.079 C 
ATOM     13  C   UNL     1      35.554 -22.412 -16.208  0.00  0.00    +0.003 C 
ATOM     14  C   UNL     1      29.358 -23.517 -14.489  0.00  0.00    +0.043 C 
ATOM     15  C   UNL     1      36.721 -23.018 -14.182  0.00  0.00    +0.037 C 
ATOM     16  C   UNL     1      36.745 -22.560 -15.497  0.00  0.00    +0.003 C 
ENDROOT
BRANCH   9  17
ATOM     17  O   UNL     1      30.452 -24.118 -12.495  0.00  0.00    -0.505 OA
ATOM     18  H   UNL     1      30.910 -24.894 -12.235  0.00  0.00    +0.292 HD
ENDBRANCH   9  17
BRANCH  11  19
ATOM     19  O   UNL     1      35.557 -23.774 -12.283  0.00  0.00    -0.505 OA
ATOM     20  H   UNL     1      35.907 -24.622 -12.092  0.00  0.00    +0.292 HD
ENDBRANCH  11  19
BRANCH  12  22
ATOM     21  O   UNL     1      27.424 -23.831 -16.944  0.00  0.00    -0.245 OA
ATOM     22  C   UNL     1      28.137 -22.905 -16.542  0.00  0.00    +0.338 C 
BRANCH  22  23
ATOM     23  O   UNL     1      27.818 -21.600 -16.757  0.00  0.00    -0.477 OA
ATOM     24  H   UNL     1      27.824 -20.992 -16.044  0.00  0.00    +0.295 HD
ENDBRANCH  22  23
ENDBRANCH  12  22
TORSDOF 4
ENDMDL
MODEL 7
REMARK VINA RESULT:     -10.3      7.618     10.940
REMARK  Name = 10168
REMARK  4 active torsions:
REMARK  status: ('A' for Active; 'I' for Inactive)
REMARK    1  A    between atoms: C_9  and  O_17
REMARK    2  A    between atoms: C_11  and  O_19
REMARK    3  A    between atoms: C_12  and  C_22
REMARK    4  A    between atoms: C_22  and  O_23
REMARK                            x       y       z     vdW  Elec       q    Type
REMARK                         _______ _______ _______ _____ _____    ______ ____
ROOT
ATOM      1  O   UNL     1      35.771 -23.002 -15.038  0.00  0.00    -0.286 OA
ATOM      2  O   UNL     1      31.254 -22.202 -17.779  0.00  0.00    -0.287 OA
ATOM      3  C   UNL     1      33.440 -23.272 -15.122  0.00  0.00    +0.076 C 
ATOM      4  C   UNL     1      32.260 -23.063 -15.838  0.00  0.00    +0.045 C 
ATOM      5  C   UNL     1      34.765 -22.139 -16.977  0.00  0.00    +0.076 C 
ATOM      6  C   UNL     1      33.585 -21.930 -17.693  0.00  0.00    +0.045 C 
ATOM      7  C   UNL     1      34.736 -22.817 -15.665  0.00  0.00    +0.202 C 
ATOM      8  C   UNL     1      32.289 -22.384 -17.150  0.00  0.00    +0.196 C 
ATOM      9  C   UNL     1      33.398 -23.916 -13.880  0.00  0.00    +0.137 C 
ATOM     10  C   UNL     1      31.037 -23.498 -15.313  0.00  0.00    +0.010 C 
ATOM     11  C   UNL     1      35.987 -21.703 -17.503  0.00  0.00    +0.137 C 
ATOM     12  C   UNL     1      31.000 -24.141 -14.074  0.00  0.00    +0.079 C 
ATOM     13  C   UNL     1      33.627 -21.285 -18.935  0.00  0.00    +0.003 C 
ATOM     14  C   UNL     1      32.178 -24.349 -13.360  0.00  0.00    +0.043 C 
ATOM     15  C   UNL     1      36.024 -21.060 -18.741  0.00  0.00    +0.037 C 
ATOM     16  C   UNL     1      34.847 -20.852 -19.456  0.00  0.00    +0.003 C 
ENDROOT
BRANCH   9  17
ATOM     17  O   UNL     1      34.511 -24.152 -13.128  0.00  0.00    -0.505 OA
ATOM     18  H   UNL     1      34.450 -24.163 -12.193  0.00  0.00    +0.292 HD
ENDBRANCH   9  17
BRANCH  11  19
ATOM     19  O   UNL     1      37.177 -21.874 -16.859  0.00  0.00    -0.505 OA
ATOM     20  H   UNL     1      37.413 -22.717 -16.526  0.00  0.00    +0.292 HD
ENDBRANCH  11  19
BRANCH  12  22
ATOM     21  O   UNL     1      28.724 -24.869 -14.190  0.00  0.00    -0.245 OA
ATOM     22  C   UNL     1      29.730 -24.593 -13.528  0.00  0.00    +0.338 C 
BRANCH  22  23
ATOM     23  O   UNL     1      29.752 -24.688 -12.170  0.00  0.00    -0.477 OA
ATOM     24  H   UNL     1      30.442 -24.283 -11.684  0.00  0.00    +0.295 HD
ENDBRANCH  22  23
ENDBRANCH  12  22
TORSDOF 4
ENDMDL
MODEL 8
REMARK VINA RESULT:     -10.2      5.556     10.389
REMARK  Name = 10168
REMARK  4 active torsions:
REMARK  status: ('A' for Active; 'I' for Inactive)
REMARK    1  A    between atoms: C_9  and  O_17
REMARK    2  A    between atoms: C_11  and  O_19
REMARK    3  A    between atoms: C_12  and  C_22
REMARK    4  A    between atoms: C_22  and  O_23
REMARK                            x       y       z     vdW  Elec       q    Type
REMARK                         _______ _______ _______ _____ _____    ______ ____
ROOT
ATOM      1  O   UNL     1      32.564 -23.282 -16.257  0.00  0.00    -0.286 OA
ATOM      2  O   UNL     1      37.617 -21.560 -16.486  0.00  0.00    -0.287 OA
ATOM      3  C   UNL     1      34.173 -22.037 -17.429  0.00  0.00    +0.076 C 
ATOM      4  C   UNL     1      35.493 -21.587 -17.490  0.00  0.00    +0.045 C 
ATOM      5  C   UNL     1      34.687 -23.252 -15.252  0.00  0.00    +0.076 C 
ATOM      6  C   UNL     1      36.007 -22.802 -15.313  0.00  0.00    +0.045 C 
ATOM      7  C   UNL     1      33.721 -22.886 -16.309  0.00  0.00    +0.202 C 
ATOM      8  C   UNL     1      36.459 -21.953 -16.433  0.00  0.00    +0.196 C 
ATOM      9  C   UNL     1      33.268 -21.682 -18.437  0.00  0.00    +0.137 C 
ATOM     10  C   UNL     1      35.909 -20.783 -18.557  0.00  0.00    +0.010 C 
ATOM     11  C   UNL     1      34.272 -24.057 -14.184  0.00  0.00    +0.137 C 
ATOM     12  C   UNL     1      35.004 -20.431 -19.560  0.00  0.00    +0.079 C 
ATOM     13  C   UNL     1      36.912 -23.157 -14.305  0.00  0.00    +0.003 C 
ATOM     14  C   UNL     1      33.687 -20.880 -19.499  0.00  0.00    +0.043 C 
ATOM     15  C   UNL     1      35.176 -24.407 -13.182  0.00  0.00    +0.037 C 
ATOM     16  C   UNL     1      36.494 -23.959 -13.242  0.00  0.00    +0.003 C 
ENDROOT
BRANCH   9  17
ATOM     17  O   UNL     1      31.965 -22.085 -18.441  0.00  0.00    -0.505 OA
ATOM     18  H   UNL     1      31.735 -22.930 -18.107  0.00  0.00    +0.292 HD
ENDBRANCH   9  17
BRANCH  11  19
ATOM     19  O   UNL     1      32.998 -24.531 -14.062  0.00  0.00    -0.505 OA
ATOM     20  H   UNL     1      32.813 -25.429 -14.254  0.00  0.00    +0.292 HD
ENDBRANCH  11  19
BRANCH  12  22
ATOM     21  O   UNL     1      34.877 -19.521 -21.769  0.00  0.00    -0.245 OA
ATOM     22  C   UNL     1      35.436 -19.596 -20.669  0.00  0.00    +0.338 C 
BRANCH  22  23
ATOM     23  O   UNL     1      36.554 -18.877 -20.375  0.00  0.00    -0.477 OA
ATOM     24  H   UNL     1      37.291 -19.299 -19.980  0.00  0.00    +0.295 HD
ENDBRANCH  22  23
ENDBRANCH  12  22
TORSDOF 4
ENDMDL
MODEL 9
REMARK VINA RESULT:     -10.0      9.530     11.393
REMARK  Name = 10168
REMARK  4 active torsions:
REMARK  status: ('A' for Active; 'I' for Inactive)
REMARK    1  A    between atoms: C_9  and  O_17
REMARK    2  A    between atoms: C_11  and  O_19
REMARK    3  A    between atoms: C_12  and  C_22
REMARK    4  A    between atoms: C_22  and  O_23
REMARK                            x       y       z     vdW  Elec       q    Type
REMARK                         _______ _______ _______ _____ _____    ______ ____
ROOT
ATOM      1  O   UNL     1      34.217 -22.211 -17.296  0.00  0.00    -0.286 OA
ATOM      2  O   UNL     1      32.744 -24.016 -12.487  0.00  0.00    -0.287 OA
ATOM      3  C   UNL     1      34.897 -22.987 -15.187  0.00  0.00    +0.076 C 
ATOM      4  C   UNL     1      34.512 -23.459 -13.930  0.00  0.00    +0.045 C 
ATOM      5  C   UNL     1      32.450 -22.765 -15.852  0.00  0.00    +0.076 C 
ATOM      6  C   UNL     1      32.065 -23.237 -14.596  0.00  0.00    +0.045 C 
ATOM      7  C   UNL     1      33.880 -22.623 -16.194  0.00  0.00    +0.202 C 
ATOM      8  C   UNL     1      33.082 -23.601 -13.589  0.00  0.00    +0.196 C 
ATOM      9  C   UNL     1      36.256 -22.857 -15.498  0.00  0.00    +0.137 C 
ATOM     10  C   UNL     1      35.486 -23.801 -12.984  0.00  0.00    +0.010 C 
ATOM     11  C   UNL     1      31.475 -22.424 -16.798  0.00  0.00    +0.137 C 
ATOM     12  C   UNL     1      36.839 -23.670 -13.297  0.00  0.00    +0.079 C 
ATOM     13  C   UNL     1      30.706 -23.367 -14.285  0.00  0.00    +0.003 C 
ATOM     14  C   UNL     1      37.223 -23.199 -14.551  0.00  0.00    +0.043 C 
ATOM     15  C   UNL     1      30.122 -22.554 -16.483  0.00  0.00    +0.037 C 
ATOM     16  C   UNL     1      29.738 -23.026 -15.230  0.00  0.00    +0.003 C 
ENDROOT
BRANCH   9  17
ATOM     17  O   UNL     1      36.701 -22.403 -16.703  0.00  0.00    -0.505 OA
ATOM     18  H   UNL     1      36.385 -21.589 -17.043  0.00  0.00    +0.292 HD
ENDBRANCH   9  17
BRANCH  11  19
ATOM     19  O   UNL     1      31.779 -21.957 -18.043  0.00  0.00    -0.505 OA
ATOM     20  H   UNL     1      31.304 -22.267 -18.789  0.00  0.00    +0.292 HD
ENDBRANCH  11  19
BRANCH  12  22
ATOM     21  O   UNL     1      37.638 -24.255 -11.120  0.00  0.00    -0.245 OA
ATOM     22  C   UNL     1      37.851 -24.025 -12.315  0.00  0.00    +0.338 C 
BRANCH  22  23
ATOM     23  O   UNL     1      39.101 -24.082 -12.852  0.00  0.00    -0.477 OA
ATOM     24  H   UNL     1      39.805 -24.456 -12.359  0.00  0.00    +0.295 HD
ENDBRANCH  22  23
ENDBRANCH  12  22
TORSDOF 4
ENDMDL
