MODEL 1
REMARK VINA RESULT:     -12.2      0.000      0.000
REMARK  Name = 2765355
REMARK  2 active torsions:
REMARK  status: ('A' for Active; 'I' for Inactive)
REMARK    1  A    between atoms: C_4  and  C_20
REMARK    2  A    between atoms: C_6  and  C_13
REMARK                            x       y       z     vdW  Elec       q    Type
REMARK                         _______ _______ _______ _____ _____    ______ ____
ROOT
ATOM      1  O   UNL     1      31.183 -22.219 -17.518  0.00  0.00    -0.353 OA
ATOM      2  N   UNL     1      30.733 -22.900 -16.395  0.00  0.00    -0.077 NA
ATOM      3  C   UNL     1      32.979 -22.625 -16.306  0.00  0.00    +0.058 A 
ATOM      4  C   UNL     1      32.530 -22.057 -17.459  0.00  0.00    +0.177 A 
ATOM      5  C   UNL     1      31.817 -23.156 -15.640  0.00  0.00    +0.123 A 
ATOM      6  C   UNL     1      34.390 -23.336 -14.633  0.00  0.00    +0.031 C 
ATOM      7  C   UNL     1      34.295 -22.672 -15.872  0.00  0.00    +0.007 C 
ATOM      8  C   UNL     1      31.938 -23.816 -14.405  0.00  0.00    +0.023 C 
ATOM      9  C   UNL     1      33.268 -23.883 -13.932  0.00  0.00    +0.004 C 
ENDROOT
BRANCH   6  13
ATOM     10  N   UNL     1      36.655 -23.950 -14.855  0.00  0.00    -0.338 NA
ATOM     11  N   UNL     1      38.212 -23.785 -13.023  0.00  0.00    -0.170 NA
ATOM     12  N   UNL     1      38.901 -24.574 -15.123  0.00  0.00    -0.293 N 
ATOM     13  C   UNL     1      35.702 -23.475 -14.031  0.00  0.00    +0.146 C 
ATOM     14  C   UNL     1      35.915 -23.136 -12.714  0.00  0.00    +0.055 C 
ATOM     15  C   UNL     1      37.205 -23.314 -12.258  0.00  0.00    +0.114 C 
ATOM     16  C   UNL     1      37.871 -24.078 -14.293  0.00  0.00    +0.141 C 
ATOM     17  H   UNL     1      38.709 -24.805 -16.061  0.00  0.00    +0.155 HD
ATOM     18  H   UNL     1      39.810 -24.688 -14.764  0.00  0.00    +0.155 HD
ENDBRANCH   6  13
BRANCH   4  20
ATOM     19 CL   UNL     1      34.960 -19.176 -22.068  0.00  0.00    -0.082 Cl
ATOM     20  C   UNL     1      33.116 -21.363 -18.571  0.00  0.00    +0.037 C 
ATOM     21  C   UNL     1      34.487 -21.467 -18.823  0.00  0.00    +0.004 C 
ATOM     22  C   UNL     1      32.320 -20.577 -19.409  0.00  0.00    +0.004 C 
ATOM     23  C   UNL     1      35.057 -20.793 -19.903  0.00  0.00    +0.011 C 
ATOM     24  C   UNL     1      32.889 -19.902 -20.489  0.00  0.00    +0.011 C 
ATOM     25  C   UNL     1      34.257 -20.009 -20.736  0.00  0.00    +0.058 C 
ENDBRANCH   4  20
TORSDOF 2
ENDMDL
MODEL 2
REMARK VINA RESULT:     -12.1      2.019      5.308
REMARK  Name = 2765355
REMARK  2 active torsions:
REMARK  status: ('A' for Active; 'I' for Inactive)
REMARK    1  A    between atoms: C_4  and  C_20
REMARK    2  A    between atoms: C_6  and  C_13
REMARK                            x       y       z     vdW  Elec       q    Type
REMARK                         _______ _______ _______ _____ _____    ______ ____
ROOT
ATOM      1  O   UNL     1      35.931 -22.163 -16.902  0.00  0.00    -0.353 OA
ATOM      2  N   UNL     1      35.975 -22.887 -15.718  0.00  0.00    -0.077 NA
ATOM      3  C   UNL     1      33.835 -22.647 -16.419  0.00  0.00    +0.058 A 
ATOM      4  C   UNL     1      34.645 -22.022 -17.317  0.00  0.00    +0.177 A 
ATOM      5  C   UNL     1      34.702 -23.193 -15.407  0.00  0.00    +0.123 A 
ATOM      6  C   UNL     1      31.946 -23.456 -15.384  0.00  0.00    +0.031 C 
ATOM      7  C   UNL     1      32.453 -22.733 -16.482  0.00  0.00    +0.007 C 
ATOM      8  C   UNL     1      34.172 -23.909 -14.320  0.00  0.00    +0.023 C 
ATOM      9  C   UNL     1      32.763 -24.017 -14.351  0.00  0.00    +0.004 C 
ENDROOT
BRANCH   6  13
ATOM     10  N   UNL     1      29.783 -22.822 -16.073  0.00  0.00    -0.338 NA
ATOM     11  N   UNL     1      27.801 -23.889 -15.212  0.00  0.00    -0.170 NA
ATOM     12  N   UNL     1      27.649 -22.157 -16.789  0.00  0.00    -0.293 N 
ATOM     13  C   UNL     1      30.511 -23.642 -15.292  0.00  0.00    +0.146 C 
ATOM     14  C   UNL     1      29.974 -24.595 -14.457  0.00  0.00    +0.055 C 
ATOM     15  C   UNL     1      28.596 -24.675 -14.458  0.00  0.00    +0.114 C 
ATOM     16  C   UNL     1      28.451 -22.998 -15.985  0.00  0.00    +0.141 C 
ATOM     17  H   UNL     1      28.071 -21.487 -17.374  0.00  0.00    +0.155 HD
ATOM     18  H   UNL     1      26.669 -22.242 -16.764  0.00  0.00    +0.155 HD
ENDBRANCH   6  13
BRANCH   4  20
ATOM     19 CL   UNL     1      33.919 -18.975 -22.380  0.00  0.00    -0.082 Cl
ATOM     20  C   UNL     1      34.470 -21.287 -18.537  0.00  0.00    +0.037 C 
ATOM     21  C   UNL     1      33.187 -21.056 -19.042  0.00  0.00    +0.004 C 
ATOM     22  C   UNL     1      35.581 -20.797 -19.231  0.00  0.00    +0.004 C 
ATOM     23  C   UNL     1      33.016 -20.341 -20.228  0.00  0.00    +0.011 C 
ATOM     24  C   UNL     1      35.411 -20.083 -20.417  0.00  0.00    +0.011 C 
ATOM     25  C   UNL     1      34.129 -19.855 -20.916  0.00  0.00    +0.058 C 
ENDBRANCH   4  20
TORSDOF 2
ENDMDL
MODEL 3
REMARK VINA RESULT:     -12.0      2.125      5.171
REMARK  Name = 2765355
REMARK  2 active torsions:
REMARK  status: ('A' for Active; 'I' for Inactive)
REMARK    1  A    between atoms: C_4  and  C_20
REMARK    2  A    between atoms: C_6  and  C_13
REMARK                            x       y       z     vdW  Elec       q    Type
REMARK                         _______ _______ _______ _____ _____    ______ ____
ROOT
ATOM      1  O   UNL     1      35.991 -22.035 -17.240  0.00  0.00    -0.353 OA
ATOM      2  N   UNL     1      36.031 -22.769 -16.063  0.00  0.00    -0.077 NA
ATOM      3  C   UNL     1      33.888 -22.440 -16.715  0.00  0.00    +0.058 A 
ATOM      4  C   UNL     1      34.703 -21.840 -17.627  0.00  0.00    +0.177 A 
ATOM      5  C   UNL     1      34.755 -23.028 -15.726  0.00  0.00    +0.123 A 
ATOM      6  C   UNL     1      31.992 -23.182 -15.644  0.00  0.00    +0.031 C 
ATOM      7  C   UNL     1      32.502 -22.471 -16.748  0.00  0.00    +0.007 C 
ATOM      8  C   UNL     1      34.221 -23.731 -14.632  0.00  0.00    +0.023 C 
ATOM      9  C   UNL     1      32.809 -23.783 -14.634  0.00  0.00    +0.004 C 
ENDROOT
BRANCH   6  13
ATOM     10  N   UNL     1      30.140 -24.353 -14.773  0.00  0.00    -0.338 NA
ATOM     11  N   UNL     1      27.871 -23.670 -15.213  0.00  0.00    -0.170 NA
ATOM     12  N   UNL     1      28.328 -25.551 -13.885  0.00  0.00    -0.293 N 
ATOM     13  C   UNL     1      30.553 -23.313 -15.522  0.00  0.00    +0.146 C 
ATOM     14  C   UNL     1      29.707 -22.419 -16.140  0.00  0.00    +0.055 C 
ATOM     15  C   UNL     1      28.360 -22.650 -15.948  0.00  0.00    +0.114 C 
ATOM     16  C   UNL     1      28.804 -24.471 -14.663  0.00  0.00    +0.141 C 
ATOM     17  H   UNL     1      28.966 -26.169 -13.459  0.00  0.00    +0.155 HD
ATOM     18  H   UNL     1      27.360 -25.685 -13.771  0.00  0.00    +0.155 HD
ENDBRANCH   6  13
BRANCH   4  20
ATOM     19 CL   UNL     1      33.982 -18.721 -22.645  0.00  0.00    -0.082 Cl
ATOM     20  C   UNL     1      34.529 -21.089 -18.837  0.00  0.00    +0.037 C 
ATOM     21  C   UNL     1      35.637 -20.541 -19.491  0.00  0.00    +0.004 C 
ATOM     22  C   UNL     1      33.251 -20.898 -19.371  0.00  0.00    +0.004 C 
ATOM     23  C   UNL     1      35.468 -19.811 -20.668  0.00  0.00    +0.011 C 
ATOM     24  C   UNL     1      33.082 -20.167 -20.547  0.00  0.00    +0.011 C 
ATOM     25  C   UNL     1      34.190 -19.623 -21.195  0.00  0.00    +0.058 C 
ENDBRANCH   4  20
TORSDOF 2
ENDMDL
MODEL 4
REMARK VINA RESULT:     -12.0      0.797      1.726
REMARK  Name = 2765355
REMARK  2 active torsions:
REMARK  status: ('A' for Active; 'I' for Inactive)
REMARK    1  A    between atoms: C_4  and  C_20
REMARK    2  A    between atoms: C_6  and  C_13
REMARK                            x       y       z     vdW  Elec       q    Type
REMARK                         _______ _______ _______ _____ _____    ______ ____
ROOT
ATOM      1  O   UNL     1      31.120 -22.117 -17.612  0.00  0.00    -0.353 OA
ATOM      2  N   UNL     1      30.649 -22.798 -16.498  0.00  0.00    -0.077 NA
ATOM      3  C   UNL     1      32.900 -22.577 -16.396  0.00  0.00    +0.058 A 
ATOM      4  C   UNL     1      32.470 -21.987 -17.546  0.00  0.00    +0.177 A 
ATOM      5  C   UNL     1      31.723 -23.087 -15.741  0.00  0.00    +0.123 A 
ATOM      6  C   UNL     1      34.285 -23.338 -14.725  0.00  0.00    +0.031 C 
ATOM      7  C   UNL     1      34.213 -22.659 -15.957  0.00  0.00    +0.007 C 
ATOM      8  C   UNL     1      31.822 -23.762 -14.512  0.00  0.00    +0.023 C 
ATOM      9  C   UNL     1      33.148 -23.864 -14.034  0.00  0.00    +0.004 C 
ENDROOT
BRANCH   6  13
ATOM     10  N   UNL     1      35.770 -22.855 -12.958  0.00  0.00    -0.338 NA
ATOM     11  N   UNL     1      38.001 -23.762 -12.877  0.00  0.00    -0.170 NA
ATOM     12  N   UNL     1      37.213 -22.346 -11.178  0.00  0.00    -0.293 N 
ATOM     13  C   UNL     1      35.591 -23.514 -14.118  0.00  0.00    +0.146 C 
ATOM     14  C   UNL     1      36.547 -24.304 -14.716  0.00  0.00    +0.055 C 
ATOM     15  C   UNL     1      37.748 -24.392 -14.042  0.00  0.00    +0.114 C 
ATOM     16  C   UNL     1      36.983 -23.021 -12.398  0.00  0.00    +0.141 C 
ATOM     17  H   UNL     1      36.503 -21.791 -10.782  0.00  0.00    +0.155 HD
ATOM     18  H   UNL     1      38.082 -22.432 -10.725  0.00  0.00    +0.155 HD
ENDBRANCH   6  13
BRANCH   4  20
ATOM     19 CL   UNL     1      34.992 -19.129 -22.120  0.00  0.00    -0.082 Cl
ATOM     20  C   UNL     1      33.078 -21.297 -18.648  0.00  0.00    +0.037 C 
ATOM     21  C   UNL     1      32.300 -20.508 -19.500  0.00  0.00    +0.004 C 
ATOM     22  C   UNL     1      34.452 -21.411 -18.879  0.00  0.00    +0.004 C 
ATOM     23  C   UNL     1      32.891 -19.837 -20.572  0.00  0.00    +0.011 C 
ATOM     24  C   UNL     1      35.043 -20.741 -19.950  0.00  0.00    +0.011 C 
ATOM     25  C   UNL     1      34.263 -19.955 -20.797  0.00  0.00    +0.058 C 
ENDBRANCH   4  20
TORSDOF 2
ENDMDL
MODEL 5
REMARK VINA RESULT:     -11.4      8.915     12.263
REMARK  Name = 2765355
REMARK  2 active torsions:
REMARK  status: ('A' for Active; 'I' for Inactive)
REMARK    1  A    between atoms: C_4  and  C_20
REMARK    2  A    between atoms: C_6  and  C_13
REMARK                            x       y       z     vdW  Elec       q    Type
REMARK                         _______ _______ _______ _____ _____    ______ ____
ROOT
ATOM      1  O   UNL     1      33.955 -16.029 -25.280  0.00  0.00    -0.353 OA
ATOM      2  N   UNL     1      33.546 -14.965 -26.073  0.00  0.00    -0.077 NA
ATOM      3  C   UNL     1      33.258 -14.473 -23.882  0.00  0.00    +0.058 A 
ATOM      4  C   UNL     1      33.780 -15.728 -23.966  0.00  0.00    +0.177 A 
ATOM      5  C   UNL     1      33.117 -14.004 -25.236  0.00  0.00    +0.123 A 
ATOM      6  C   UNL     1      32.419 -12.518 -23.007  0.00  0.00    +0.031 C 
ATOM      7  C   UNL     1      32.934 -13.796 -22.716  0.00  0.00    +0.007 C 
ATOM      8  C   UNL     1      32.598 -12.724 -25.501  0.00  0.00    +0.023 C 
ATOM      9  C   UNL     1      32.257 -12.005 -24.333  0.00  0.00    +0.004 C 
ENDROOT
BRANCH   6  13
ATOM     10  N   UNL     1      31.704 -10.408 -22.235  0.00  0.00    -0.338 NA
ATOM     11  N   UNL     1      31.274  -9.975 -19.904  0.00  0.00    -0.170 NA
ATOM     12  N   UNL     1      30.994  -8.291 -21.514  0.00  0.00    -0.293 N 
ATOM     13  C   UNL     1      32.027 -11.670 -21.897  0.00  0.00    +0.146 C 
ATOM     14  C   UNL     1      32.001 -12.158 -20.610  0.00  0.00    +0.055 C 
ATOM     15  C   UNL     1      31.612 -11.255 -19.642  0.00  0.00    +0.114 C 
ATOM     16  C   UNL     1      31.341  -9.624 -21.202  0.00  0.00    +0.141 C 
ATOM     17  H   UNL     1      31.025  -7.979 -22.448  0.00  0.00    +0.155 HD
ATOM     18  H   UNL     1      30.721  -7.674 -20.798  0.00  0.00    +0.155 HD
ENDBRANCH   6  13
BRANCH   4  20
ATOM     19 CL   UNL     1      35.394 -19.990 -20.136  0.00  0.00    -0.082 Cl
ATOM     20  C   UNL     1      34.168 -16.755 -23.042  0.00  0.00    +0.037 C 
ATOM     21  C   UNL     1      34.804 -16.420 -21.843  0.00  0.00    +0.004 C 
ATOM     22  C   UNL     1      33.916 -18.099 -23.336  0.00  0.00    +0.004 C 
ATOM     23  C   UNL     1      35.182 -17.419 -20.944  0.00  0.00    +0.011 C 
ATOM     24  C   UNL     1      34.293 -19.097 -22.438  0.00  0.00    +0.011 C 
ATOM     25  C   UNL     1      34.927 -18.758 -21.243  0.00  0.00    +0.058 C 
ENDBRANCH   4  20
TORSDOF 2
ENDMDL
MODEL 6
REMARK VINA RESULT:     -11.2      3.957      6.735
REMARK  Name = 2765355
REMARK  2 active torsions:
REMARK  status: ('A' for Active; 'I' for Inactive)
REMARK    1  A    between atoms: C_4  and  C_20
REMARK    2  A    between atoms: C_6  and  C_13
REMARK                            x       y       z     vdW  Elec       q    Type
REMARK                         _______ _______ _______ _____ _____    ______ ____
ROOT
ATOM      1  O   UNL     1      34.878 -23.712 -13.890  0.00  0.00    -0.353 OA
ATOM      2  N   UNL     1      36.188 -23.323 -14.139  0.00  0.00    -0.077 NA
ATOM      3  C   UNL     1      34.824 -22.612 -15.799  0.00  0.00    +0.058 A 
ATOM      4  C   UNL     1      34.064 -23.283 -14.890  0.00  0.00    +0.177 A 
ATOM      5  C   UNL     1      36.175 -22.648 -15.302  0.00  0.00    +0.123 A 
ATOM      6  C   UNL     1      35.433 -21.410 -17.664  0.00  0.00    +0.031 C 
ATOM      7  C   UNL     1      34.369 -22.016 -16.967  0.00  0.00    +0.007 C 
ATOM      8  C   UNL     1      37.218 -22.036 -16.017  0.00  0.00    +0.023 C 
ATOM      9  C   UNL     1      36.792 -21.418 -17.214  0.00  0.00    +0.004 C 
ENDROOT
BRANCH   6  13
ATOM     10  N   UNL     1      36.136 -19.983 -19.404  0.00  0.00    -0.338 NA
ATOM     11  N   UNL     1      34.701 -19.420 -21.257  0.00  0.00    -0.170 NA
ATOM     12  N   UNL     1      36.879 -18.557 -21.114  0.00  0.00    -0.293 N 
ATOM     13  C   UNL     1      35.134 -20.737 -18.914  0.00  0.00    +0.146 C 
ATOM     14  C   UNL     1      33.907 -20.885 -19.520  0.00  0.00    +0.055 C 
ATOM     15  C   UNL     1      33.745 -20.194 -20.704  0.00  0.00    +0.114 C 
ATOM     16  C   UNL     1      35.855 -19.360 -20.564  0.00  0.00    +0.141 C 
ATOM     17  H   UNL     1      37.744 -18.477 -20.649  0.00  0.00    +0.155 HD
ATOM     18  H   UNL     1      36.729 -18.079 -21.960  0.00  0.00    +0.155 HD
ENDBRANCH   6  13
BRANCH   4  20
ATOM     19 CL   UNL     1      28.316 -24.711 -14.298  0.00  0.00    -0.082 Cl
ATOM     20  C   UNL     1      32.678 -23.627 -14.746  0.00  0.00    +0.037 C 
ATOM     21  C   UNL     1      32.254 -24.409 -13.668  0.00  0.00    +0.004 C 
ATOM     22  C   UNL     1      31.742 -23.184 -15.685  0.00  0.00    +0.004 C 
ATOM     23  C   UNL     1      30.907 -24.743 -13.528  0.00  0.00    +0.011 C 
ATOM     24  C   UNL     1      30.395 -23.518 -15.546  0.00  0.00    +0.011 C 
ATOM     25  C   UNL     1      29.977 -24.298 -14.469  0.00  0.00    +0.058 C 
ENDBRANCH   4  20
TORSDOF 2
ENDMDL
MODEL 7
REMARK VINA RESULT:     -11.0     11.268     14.249
REMARK  Name = 2765355
REMARK  2 active torsions:
REMARK  status: ('A' for Active; 'I' for Inactive)
REMARK    1  A    between atoms: C_4  and  C_20
REMARK    2  A    between atoms: C_6  and  C_13
REMARK                            x       y       z     vdW  Elec       q    Type
REMARK                         _______ _______ _______ _____ _____    ______ ____
ROOT
ATOM      1  O   UNL     1      31.101  -8.419 -20.976  0.00  0.00    -0.353 OA
ATOM      2  N   UNL     1      30.969  -9.463 -20.071  0.00  0.00    -0.077 NA
ATOM      3  C   UNL     1      31.826 -10.217 -22.026  0.00  0.00    +0.058 A 
ATOM      4  C   UNL     1      31.615  -8.877 -22.147  0.00  0.00    +0.177 A 
ATOM      5  C   UNL     1      31.408 -10.572 -20.694  0.00  0.00    +0.123 A 
ATOM      6  C   UNL     1      32.422 -12.382 -22.526  0.00  0.00    +0.031 C 
ATOM      7  C   UNL     1      32.342 -11.058 -23.000  0.00  0.00    +0.007 C 
ATOM      8  C   UNL     1      31.496 -11.900 -20.245  0.00  0.00    +0.023 C 
ATOM      9  C   UNL     1      32.019 -12.787 -21.213  0.00  0.00    +0.004 C 
ENDROOT
BRANCH   6  13
ATOM     10  N   UNL     1      33.689 -14.347 -22.826  0.00  0.00    -0.338 NA
ATOM     11  N   UNL     1      33.982 -15.365 -24.991  0.00  0.00    -0.170 NA
ATOM     12  N   UNL     1      34.961 -16.304 -23.076  0.00  0.00    -0.293 N 
ATOM     13  C   UNL     1      32.943 -13.398 -23.421  0.00  0.00    +0.146 C 
ATOM     14  C   UNL     1      32.672 -13.357 -24.770  0.00  0.00    +0.055 C 
ATOM     15  C   UNL     1      33.224 -14.379 -25.516  0.00  0.00    +0.114 C 
ATOM     16  C   UNL     1      34.172 -15.288 -23.660  0.00  0.00    +0.141 C 
ATOM     17  H   UNL     1      35.132 -16.298 -22.106  0.00  0.00    +0.155 HD
ATOM     18  H   UNL     1      35.339 -17.017 -23.638  0.00  0.00    +0.155 HD
ENDBRANCH   6  13
BRANCH   4  20
ATOM     19 CL   UNL     1      32.381  -4.769 -26.387  0.00  0.00    -0.082 Cl
ATOM     20  C   UNL     1      31.799  -7.886 -23.169  0.00  0.00    +0.037 C 
ATOM     21  C   UNL     1      30.704  -7.413 -23.897  0.00  0.00    +0.004 C 
ATOM     22  C   UNL     1      33.076  -7.387 -23.444  0.00  0.00    +0.004 C 
ATOM     23  C   UNL     1      30.883  -6.450 -24.891  0.00  0.00    +0.011 C 
ATOM     24  C   UNL     1      33.255  -6.424 -24.437  0.00  0.00    +0.011 C 
ATOM     25  C   UNL     1      32.159  -5.956 -25.161  0.00  0.00    +0.058 C 
ENDBRANCH   4  20
TORSDOF 2
ENDMDL
MODEL 8
REMARK VINA RESULT:     -10.5      3.557      6.558
REMARK  Name = 2765355
REMARK  2 active torsions:
REMARK  status: ('A' for Active; 'I' for Inactive)
REMARK    1  A    between atoms: C_4  and  C_20
REMARK    2  A    between atoms: C_6  and  C_13
REMARK                            x       y       z     vdW  Elec       q    Type
REMARK                         _______ _______ _______ _____ _____    ______ ____
ROOT
ATOM      1  O   UNL     1      33.181 -24.655 -13.458  0.00  0.00    -0.353 OA
ATOM      2  N   UNL     1      31.871 -24.299 -13.751  0.00  0.00    -0.077 NA
ATOM      3  C   UNL     1      33.285 -23.467 -15.311  0.00  0.00    +0.058 A 
ATOM      4  C   UNL     1      34.025 -24.153 -14.396  0.00  0.00    +0.177 A 
ATOM      5  C   UNL     1      31.915 -23.573 -14.883  0.00  0.00    +0.123 A 
ATOM      6  C   UNL     1      32.721 -22.206 -17.151  0.00  0.00    +0.031 C 
ATOM      7  C   UNL     1      33.772 -22.805 -16.429  0.00  0.00    +0.007 C 
ATOM      8  C   UNL     1      30.884 -22.964 -15.620  0.00  0.00    +0.023 C 
ATOM      9  C   UNL     1      31.344 -22.280 -16.768  0.00  0.00    +0.004 C 
ENDROOT
BRANCH   6  13
ATOM     10  N   UNL     1      34.370 -21.398 -18.631  0.00  0.00    -0.338 NA
ATOM     11  N   UNL     1      33.812 -20.112 -20.590  0.00  0.00    -0.170 NA
ATOM     12  N   UNL     1      36.046 -20.614 -20.074  0.00  0.00    -0.293 N 
ATOM     13  C   UNL     1      33.054 -21.469 -18.356  0.00  0.00    +0.146 C 
ATOM     14  C   UNL     1      32.068 -20.900 -19.130  0.00  0.00    +0.055 C 
ATOM     15  C   UNL     1      32.511 -20.225 -20.250  0.00  0.00    +0.114 C 
ATOM     16  C   UNL     1      34.674 -20.713 -19.749  0.00  0.00    +0.141 C 
ATOM     17  H   UNL     1      36.721 -21.035 -19.494  0.00  0.00    +0.155 HD
ATOM     18  H   UNL     1      36.325 -20.125 -20.881  0.00  0.00    +0.155 HD
ENDBRANCH   6  13
BRANCH   4  20
ATOM     19 CL   UNL     1      39.788 -25.405 -13.588  0.00  0.00    -0.082 Cl
ATOM     20  C   UNL     1      35.414 -24.455 -14.200  0.00  0.00    +0.037 C 
ATOM     21  C   UNL     1      36.218 -23.607 -13.433  0.00  0.00    +0.004 C 
ATOM     22  C   UNL     1      35.974 -25.599 -14.777  0.00  0.00    +0.004 C 
ATOM     23  C   UNL     1      37.569 -23.900 -13.243  0.00  0.00    +0.011 C 
ATOM     24  C   UNL     1      37.325 -25.892 -14.587  0.00  0.00    +0.011 C 
ATOM     25  C   UNL     1      38.122 -25.043 -13.821  0.00  0.00    +0.058 C 
ENDBRANCH   4  20
TORSDOF 2
ENDMDL
MODEL 9
REMARK VINA RESULT:     -10.5      3.710      7.233
REMARK  Name = 2765355
REMARK  2 active torsions:
REMARK  status: ('A' for Active; 'I' for Inactive)
REMARK    1  A    between atoms: C_4  and  C_20
REMARK    2  A    between atoms: C_6  and  C_13
REMARK                            x       y       z     vdW  Elec       q    Type
REMARK                         _______ _______ _______ _____ _____    ______ ____
ROOT
ATOM      1  O   UNL     1      36.000 -22.208 -17.171  0.00  0.00    -0.353 OA
ATOM      2  N   UNL     1      35.281 -21.632 -18.210  0.00  0.00    -0.077 NA
ATOM      3  C   UNL     1      33.875 -22.530 -16.680  0.00  0.00    +0.058 A 
ATOM      4  C   UNL     1      35.151 -22.745 -16.256  0.00  0.00    +0.177 A 
ATOM      5  C   UNL     1      33.979 -21.818 -17.927  0.00  0.00    +0.123 A 
ATOM      6  C   UNL     1      31.575 -22.532 -16.754  0.00  0.00    +0.031 C 
ATOM      7  C   UNL     1      32.717 -22.924 -16.027  0.00  0.00    +0.007 C 
ATOM      8  C   UNL     1      32.825 -21.439 -18.635  0.00  0.00    +0.023 C 
ATOM      9  C   UNL     1      31.624 -21.825 -17.997  0.00  0.00    +0.004 C 
ENDROOT
BRANCH   6  13
ATOM     10  N   UNL     1      29.244 -22.186 -16.752  0.00  0.00    -0.338 NA
ATOM     11  N   UNL     1      27.770 -23.398 -15.281  0.00  0.00    -0.170 NA
ATOM     12  N   UNL     1      26.928 -21.806 -16.785  0.00  0.00    -0.293 N 
ATOM     13  C   UNL     1      30.272 -22.866 -16.212  0.00  0.00    +0.146 C 
ATOM     14  C   UNL     1      30.140 -23.812 -15.221  0.00  0.00    +0.055 C 
ATOM     15  C   UNL     1      28.849 -24.040 -14.788  0.00  0.00    +0.114 C 
ATOM     16  C   UNL     1      28.035 -22.497 -16.246  0.00  0.00    +0.141 C 
ATOM     17  H   UNL     1      27.064 -21.136 -17.494  0.00  0.00    +0.155 HD
ATOM     18  H   UNL     1      26.021 -21.994 -16.453  0.00  0.00    +0.155 HD
ENDBRANCH   6  13
BRANCH   4  20
ATOM     19 CL   UNL     1      37.757 -25.357 -11.584  0.00  0.00    -0.082 Cl
ATOM     20  C   UNL     1      35.779 -23.374 -15.129  0.00  0.00    +0.037 C 
ATOM     21  C   UNL     1      36.506 -22.612 -14.211  0.00  0.00    +0.004 C 
ATOM     22  C   UNL     1      35.669 -24.756 -14.942  0.00  0.00    +0.004 C 
ATOM     23  C   UNL     1      37.116 -23.223 -13.115  0.00  0.00    +0.011 C 
ATOM     24  C   UNL     1      36.279 -25.368 -13.847  0.00  0.00    +0.011 C 
ATOM     25  C   UNL     1      37.003 -24.602 -12.934  0.00  0.00    +0.058 C 
ENDBRANCH   4  20
TORSDOF 2
ENDMDL
