MODEL 1
REMARK VINA RESULT:     -10.7      0.000      0.000
REMARK  Name = 2398
REMARK  6 active torsions:
REMARK  status: ('A' for Active; 'I' for Inactive)
REMARK    1  A    between atoms: C_4  and  C_20
REMARK    2  A    between atoms: C_5  and  C_10
REMARK    3  A    between atoms: N_19  and  C_28
REMARK    4  A    between atoms: C_28  and  C_29
REMARK    5  A    between atoms: C_29  and  C_30
REMARK    6  A    between atoms: C_30  and  N_31
REMARK                            x       y       z     vdW  Elec       q    Type
REMARK                         _______ _______ _______ _____ _____    ______ ____
ROOT
ATOM      1  O   UNL     1      30.452 -22.244 -16.169  0.00  0.00    -0.270 OA
ATOM      2  O   UNL     1      31.656 -24.975 -12.699  0.00  0.00    -0.270 OA
ATOM      3  N   UNL     1      30.679 -23.622 -14.313  0.00  0.00    -0.248 N 
ATOM      4  C   UNL     1      32.574 -23.163 -15.497  0.00  0.00    +0.059 C 
ATOM      5  C   UNL     1      32.930 -23.957 -14.470  0.00  0.00    +0.059 C 
ATOM      6  C   UNL     1      31.110 -22.931 -15.407  0.00  0.00    +0.252 C 
ATOM      7  C   UNL     1      31.705 -24.268 -13.691  0.00  0.00    +0.252 C 
ATOM      8  H   UNL     1      29.742 -23.649 -14.010  0.00  0.00    +0.158 HD
ENDROOT
BRANCH   5  10
ATOM      9  N   UNL     1      36.080 -25.677 -14.226  0.00  0.00    -0.312 N 
ATOM     10  C   UNL     1      34.216 -24.477 -14.126  0.00  0.00    +0.020 C 
ATOM     11  C   UNL     1      35.027 -24.134 -13.008  0.00  0.00    +0.015 C 
ATOM     12  C   UNL     1      36.190 -24.901 -13.094  0.00  0.00    +0.048 C 
ATOM     13  C   UNL     1      34.891 -25.428 -14.856  0.00  0.00    +0.062 C 
ATOM     14  C   UNL     1      34.882 -23.242 -11.926  0.00  0.00    +0.001 C 
ATOM     15  C   UNL     1      37.221 -24.820 -12.150  0.00  0.00    +0.015 C 
ATOM     16  C   UNL     1      35.905 -23.150 -10.975  0.00  0.00    +0.000 C 
ATOM     17  C   UNL     1      37.055 -23.928 -11.087  0.00  0.00    +0.001 C 
ATOM     18  H   UNL     1      36.760 -26.319 -14.538  0.00  0.00    +0.152 HD
ENDBRANCH   5  10
BRANCH   4  20
ATOM     19  N   UNL     1      34.023 -21.837 -18.516  0.00  0.00    -0.286 N 
ATOM     20  C   UNL     1      33.386 -22.582 -16.521  0.00  0.00    +0.021 C 
ATOM     21  C   UNL     1      34.708 -22.062 -16.405  0.00  0.00    +0.015 C 
ATOM     22  C   UNL     1      35.082 -21.603 -17.670  0.00  0.00    +0.052 C 
ATOM     23  C   UNL     1      32.993 -22.427 -17.833  0.00  0.00    +0.066 C 
ATOM     24  C   UNL     1      35.622 -21.940 -15.340  0.00  0.00    +0.001 C 
ATOM     25  C   UNL     1      36.331 -21.024 -17.924  0.00  0.00    +0.015 C 
ATOM     26  C   UNL     1      36.875 -21.363 -15.580  0.00  0.00    +0.000 C 
ATOM     27  C   UNL     1      37.222 -20.913 -16.852  0.00  0.00    +0.001 C 
BRANCH  19  28
ATOM     28  C   UNL     1      33.984 -21.512 -19.926  0.00  0.00    +0.093 C 
BRANCH  28  29
ATOM     29  C   UNL     1      33.390 -20.127 -20.181  0.00  0.00    -0.002 C 
BRANCH  29  30
ATOM     30  C   UNL     1      34.218 -19.356 -21.207  0.00  0.00    -0.084 C 
BRANCH  30  31
ATOM     31  N   UNL     1      35.384 -18.757 -20.568  0.00  0.00    +0.380 N 
ATOM     32  H   UNL     1      35.843 -18.124 -21.224  0.00  0.00    -0.089 HD
ATOM     33  H   UNL     1      36.036 -19.491 -20.293  0.00  0.00    -0.089 HD
ATOM     34  H   UNL     1      35.090 -18.236 -19.743  0.00  0.00    -0.089 HD
ENDBRANCH  30  31
ENDBRANCH  29  30
ENDBRANCH  28  29
ENDBRANCH  19  28
ENDBRANCH   4  20
TORSDOF 6
ENDMDL
MODEL 2
REMARK VINA RESULT:     -10.2      1.349      5.722
REMARK  Name = 2398
REMARK  6 active torsions:
REMARK  status: ('A' for Active; 'I' for Inactive)
REMARK    1  A    between atoms: C_4  and  C_20
REMARK    2  A    between atoms: C_5  and  C_10
REMARK    3  A    between atoms: N_19  and  C_28
REMARK    4  A    between atoms: C_28  and  C_29
REMARK    5  A    between atoms: C_29  and  C_30
REMARK    6  A    between atoms: C_30  and  N_31
REMARK                            x       y       z     vdW  Elec       q    Type
REMARK                         _______ _______ _______ _____ _____    ______ ____
ROOT
ATOM      1  O   UNL     1      31.522 -24.829 -12.751  0.00  0.00    -0.270 OA
ATOM      2  O   UNL     1      30.376 -22.462 -16.498  0.00  0.00    -0.270 OA
ATOM      3  N   UNL     1      30.569 -23.665 -14.522  0.00  0.00    -0.248 N 
ATOM      4  C   UNL     1      32.839 -23.893 -14.537  0.00  0.00    +0.059 C 
ATOM      5  C   UNL     1      32.501 -23.206 -15.645  0.00  0.00    +0.059 C 
ATOM      6  C   UNL     1      31.590 -24.204 -13.795  0.00  0.00    +0.252 C 
ATOM      7  C   UNL     1      31.025 -23.047 -15.648  0.00  0.00    +0.252 C 
ATOM      8  H   UNL     1      29.620 -23.718 -14.264  0.00  0.00    +0.158 HD
ENDROOT
BRANCH   5  10
ATOM      9  N   UNL     1      34.044 -22.063 -18.686  0.00  0.00    -0.312 N 
ATOM     10  C   UNL     1      33.337 -22.669 -16.672  0.00  0.00    +0.020 C 
ATOM     11  C   UNL     1      34.620 -22.070 -16.532  0.00  0.00    +0.015 C 
ATOM     12  C   UNL     1      35.042 -21.698 -17.810  0.00  0.00    +0.048 C 
ATOM     13  C   UNL     1      33.010 -22.649 -18.008  0.00  0.00    +0.062 C 
ATOM     14  C   UNL     1      35.467 -21.807 -15.436  0.00  0.00    +0.001 C 
ATOM     15  C   UNL     1      36.271 -21.075 -18.048  0.00  0.00    +0.015 C 
ATOM     16  C   UNL     1      36.700 -21.184 -15.659  0.00  0.00    +0.000 C 
ATOM     17  C   UNL     1      37.094 -20.825 -16.946  0.00  0.00    +0.001 C 
ATOM     18  H   UNL     1      34.071 -21.921 -19.661  0.00  0.00    +0.152 HD
ENDBRANCH   5  10
BRANCH   4  20
ATOM     19  N   UNL     1      36.121 -25.299 -14.065  0.00  0.00    -0.286 N 
ATOM     20  C   UNL     1      34.129 -24.312 -14.085  0.00  0.00    +0.021 C 
ATOM     21  C   UNL     1      34.767 -24.011 -12.846  0.00  0.00    +0.015 C 
ATOM     22  C   UNL     1      36.013 -24.642 -12.861  0.00  0.00    +0.052 C 
ATOM     23  C   UNL     1      34.990 -25.106 -14.812  0.00  0.00    +0.066 C 
ATOM     24  C   UNL     1      34.399 -23.259 -11.713  0.00  0.00    +0.001 C 
ATOM     25  C   UNL     1      36.914 -24.558 -11.793  0.00  0.00    +0.015 C 
ATOM     26  C   UNL     1      35.291 -23.167 -10.638  0.00  0.00    +0.000 C 
ATOM     27  C   UNL     1      36.528 -23.806 -10.679  0.00  0.00    +0.001 C 
BRANCH  19  28
ATOM     28  C   UNL     1      37.258 -26.082 -14.497  0.00  0.00    +0.093 C 
BRANCH  28  29
ATOM     29  C   UNL     1      38.431 -25.203 -14.931  0.00  0.00    -0.002 C 
BRANCH  29  30
ATOM     30  C   UNL     1      39.543 -25.216 -13.885  0.00  0.00    -0.084 C 
BRANCH  30  31
ATOM     31  N   UNL     1      40.498 -26.279 -14.174  0.00  0.00    +0.380 N 
ATOM     32  H   UNL     1      40.247 -27.115 -13.647  0.00  0.00    -0.089 HD
ATOM     33  H   UNL     1      41.434 -25.977 -13.906  0.00  0.00    -0.089 HD
ATOM     34  H   UNL     1      40.481 -26.489 -15.172  0.00  0.00    -0.089 HD
ENDBRANCH  30  31
ENDBRANCH  29  30
ENDBRANCH  28  29
ENDBRANCH  19  28
ENDBRANCH   4  20
TORSDOF 6
ENDMDL
MODEL 3
REMARK VINA RESULT:     -10.0      0.949      1.724
REMARK  Name = 2398
REMARK  6 active torsions:
REMARK  status: ('A' for Active; 'I' for Inactive)
REMARK    1  A    between atoms: C_4  and  C_20
REMARK    2  A    between atoms: C_5  and  C_10
REMARK    3  A    between atoms: N_19  and  C_28
REMARK    4  A    between atoms: C_28  and  C_29
REMARK    5  A    between atoms: C_29  and  C_30
REMARK    6  A    between atoms: C_30  and  N_31
REMARK                            x       y       z     vdW  Elec       q    Type
REMARK                         _______ _______ _______ _____ _____    ______ ____
ROOT
ATOM      1  O   UNL     1      30.448 -22.737 -16.597  0.00  0.00    -0.270 OA
ATOM      2  O   UNL     1      31.246 -24.689 -12.534  0.00  0.00    -0.270 OA
ATOM      3  N   UNL     1      30.460 -23.767 -14.515  0.00  0.00    -0.248 N 
ATOM      4  C   UNL     1      32.485 -23.191 -15.395  0.00  0.00    +0.059 C 
ATOM      5  C   UNL     1      32.719 -23.755 -14.195  0.00  0.00    +0.059 C 
ATOM      6  C   UNL     1      31.016 -23.187 -15.617  0.00  0.00    +0.252 C 
ATOM      7  C   UNL     1      31.409 -24.139 -13.611  0.00  0.00    +0.252 C 
ATOM      8  H   UNL     1      29.492 -23.900 -14.390  0.00  0.00    +0.158 HD
ENDROOT
BRANCH   5  10
ATOM      9  N   UNL     1      35.575 -23.904 -12.013  0.00  0.00    -0.312 N 
ATOM     10  C   UNL     1      33.961 -24.003 -13.533  0.00  0.00    +0.020 C 
ATOM     11  C   UNL     1      35.024 -24.848 -13.957  0.00  0.00    +0.015 C 
ATOM     12  C   UNL     1      36.024 -24.768 -12.986  0.00  0.00    +0.048 C 
ATOM     13  C   UNL     1      34.329 -23.437 -12.334  0.00  0.00    +0.062 C 
ATOM     14  C   UNL     1      35.232 -25.677 -15.078  0.00  0.00    +0.001 C 
ATOM     15  C   UNL     1      37.226 -25.478 -13.079  0.00  0.00    +0.015 C 
ATOM     16  C   UNL     1      36.431 -26.393 -15.184  0.00  0.00    +0.000 C 
ATOM     17  C   UNL     1      37.411 -26.293 -14.200  0.00  0.00    +0.001 C 
ATOM     18  H   UNL     1      36.077 -23.658 -11.202  0.00  0.00    +0.152 HD
ENDBRANCH   5  10
BRANCH   4  20
ATOM     19  N   UNL     1      34.265 -21.954 -18.271  0.00  0.00    -0.286 N 
ATOM     20  C   UNL     1      33.409 -22.645 -16.339  0.00  0.00    +0.021 C 
ATOM     21  C   UNL     1      34.722 -22.148 -16.096  0.00  0.00    +0.015 C 
ATOM     22  C   UNL     1      35.235 -21.722 -17.324  0.00  0.00    +0.052 C 
ATOM     23  C   UNL     1      33.158 -22.511 -17.688  0.00  0.00    +0.066 C 
ATOM     24  C   UNL     1      35.524 -22.020 -14.944  0.00  0.00    +0.001 C 
ATOM     25  C   UNL     1      36.515 -21.172 -17.457  0.00  0.00    +0.015 C 
ATOM     26  C   UNL     1      36.806 -21.472 -15.064  0.00  0.00    +0.000 C 
ATOM     27  C   UNL     1      37.292 -21.054 -16.301  0.00  0.00    +0.001 C 
BRANCH  19  28
ATOM     28  C   UNL     1      34.379 -21.657 -19.683  0.00  0.00    +0.093 C 
BRANCH  28  29
ATOM     29  C   UNL     1      33.759 -20.306 -20.039  0.00  0.00    -0.002 C 
BRANCH  29  30
ATOM     30  C   UNL     1      34.656 -19.527 -20.998  0.00  0.00    -0.084 C 
BRANCH  30  31
ATOM     31  N   UNL     1      35.885 -19.123 -20.325  0.00  0.00    +0.380 N 
ATOM     32  H   UNL     1      36.211 -18.238 -20.715  0.00  0.00    -0.089 HD
ATOM     33  H   UNL     1      36.599 -19.838 -20.462  0.00  0.00    -0.089 HD
ATOM     34  H   UNL     1      35.705 -19.008 -19.328  0.00  0.00    -0.089 HD
ENDBRANCH  30  31
ENDBRANCH  29  30
ENDBRANCH  28  29
ENDBRANCH  19  28
ENDBRANCH   4  20
TORSDOF 6
ENDMDL
MODEL 4
REMARK VINA RESULT:      -9.2      1.621      6.674
REMARK  Name = 2398
REMARK  6 active torsions:
REMARK  status: ('A' for Active; 'I' for Inactive)
REMARK    1  A    between atoms: C_4  and  C_20
REMARK    2  A    between atoms: C_5  and  C_10
REMARK    3  A    between atoms: N_19  and  C_28
REMARK    4  A    between atoms: C_28  and  C_29
REMARK    5  A    between atoms: C_29  and  C_30
REMARK    6  A    between atoms: C_30  and  N_31
REMARK                            x       y       z     vdW  Elec       q    Type
REMARK                         _______ _______ _______ _____ _____    ______ ____
ROOT
ATOM      1  O   UNL     1      31.846 -24.239 -13.667  0.00  0.00    -0.270 OA
ATOM      2  O   UNL     1      31.204 -22.194 -17.712  0.00  0.00    -0.270 OA
ATOM      3  N   UNL     1      31.137 -23.279 -15.660  0.00  0.00    -0.248 N 
ATOM      4  C   UNL     1      33.376 -23.223 -15.225  0.00  0.00    +0.059 C 
ATOM      5  C   UNL     1      33.189 -22.632 -16.419  0.00  0.00    +0.059 C 
ATOM      6  C   UNL     1      32.048 -23.655 -14.717  0.00  0.00    +0.252 C 
ATOM      7  C   UNL     1      31.734 -22.657 -16.716  0.00  0.00    +0.252 C 
ATOM      8  H   UNL     1      30.168 -23.438 -15.585  0.00  0.00    +0.158 HD
ENDROOT
BRANCH   5  10
ATOM      9  N   UNL     1      36.098 -21.420 -18.155  0.00  0.00    -0.312 N 
ATOM     10  C   UNL     1      34.145 -22.039 -17.301  0.00  0.00    +0.020 C 
ATOM     11  C   UNL     1      33.896 -21.304 -18.494  0.00  0.00    +0.015 C 
ATOM     12  C   UNL     1      35.137 -20.927 -19.010  0.00  0.00    +0.048 C 
ATOM     13  C   UNL     1      35.508 -22.094 -17.120  0.00  0.00    +0.062 C 
ATOM     14  C   UNL     1      32.730 -20.921 -19.186  0.00  0.00    +0.001 C 
ATOM     15  C   UNL     1      35.272 -20.185 -20.188  0.00  0.00    +0.015 C 
ATOM     16  C   UNL     1      32.849 -20.178 -20.367  0.00  0.00    +0.000 C 
ATOM     17  C   UNL     1      34.102 -19.816 -20.858  0.00  0.00    +0.001 C 
ATOM     18  H   UNL     1      37.069 -21.306 -18.272  0.00  0.00    +0.152 HD
ENDBRANCH   5  10
BRANCH   4  20
ATOM     19  N   UNL     1      36.284 -23.152 -13.102  0.00  0.00    -0.286 N 
ATOM     20  C   UNL     1      34.590 -23.460 -14.507  0.00  0.00    +0.021 C 
ATOM     21  C   UNL     1      35.458 -24.587 -14.598  0.00  0.00    +0.015 C 
ATOM     22  C   UNL     1      36.511 -24.367 -13.707  0.00  0.00    +0.052 C 
ATOM     23  C   UNL     1      35.127 -22.596 -13.578  0.00  0.00    +0.066 C 
ATOM     24  C   UNL     1      35.446 -25.774 -15.356  0.00  0.00    +0.001 C 
ATOM     25  C   UNL     1      37.557 -25.281 -13.536  0.00  0.00    +0.015 C 
ATOM     26  C   UNL     1      36.487 -26.697 -15.194  0.00  0.00    +0.000 C 
ATOM     27  C   UNL     1      37.525 -26.452 -14.298  0.00  0.00    +0.001 C 
BRANCH  19  28
ATOM     28  C   UNL     1      37.134 -22.537 -12.105  0.00  0.00    +0.093 C 
BRANCH  28  29
ATOM     29  C   UNL     1      37.149 -23.326 -10.796  0.00  0.00    -0.002 C 
BRANCH  29  30
ATOM     30  C   UNL     1      35.802 -23.229 -10.083  0.00  0.00    -0.084 C 
BRANCH  30  31
ATOM     31  N   UNL     1      35.081 -24.492 -10.189  0.00  0.00    +0.380 N 
ATOM     32  H   UNL     1      34.077 -24.313 -10.168  0.00  0.00    -0.089 HD
ATOM     33  H   UNL     1      35.334 -25.096  -9.407  0.00  0.00    -0.089 HD
ATOM     34  H   UNL     1      35.326 -24.951 -11.066  0.00  0.00    -0.089 HD
ENDBRANCH  30  31
ENDBRANCH  29  30
ENDBRANCH  28  29
ENDBRANCH  19  28
ENDBRANCH   4  20
TORSDOF 6
ENDMDL
MODEL 5
REMARK VINA RESULT:      -8.6      1.588      3.563
REMARK  Name = 2398
REMARK  6 active torsions:
REMARK  status: ('A' for Active; 'I' for Inactive)
REMARK    1  A    between atoms: C_4  and  C_20
REMARK    2  A    between atoms: C_5  and  C_10
REMARK    3  A    between atoms: N_19  and  C_28
REMARK    4  A    between atoms: C_28  and  C_29
REMARK    5  A    between atoms: C_29  and  C_30
REMARK    6  A    between atoms: C_30  and  N_31
REMARK                            x       y       z     vdW  Elec       q    Type
REMARK                         _______ _______ _______ _____ _____    ______ ____
ROOT
ATOM      1  O   UNL     1      30.932 -22.317 -16.601  0.00  0.00    -0.270 OA
ATOM      2  O   UNL     1      31.045 -24.742 -12.720  0.00  0.00    -0.270 OA
ATOM      3  N   UNL     1      30.596 -23.567 -14.672  0.00  0.00    -0.248 N 
ATOM      4  C   UNL     1      32.750 -23.013 -15.183  0.00  0.00    +0.059 C 
ATOM      5  C   UNL     1      32.782 -23.716 -14.036  0.00  0.00    +0.059 C 
ATOM      6  C   UNL     1      31.331 -22.903 -15.610  0.00  0.00    +0.252 C 
ATOM      7  C   UNL     1      31.387 -24.088 -13.691  0.00  0.00    +0.252 C 
ATOM      8  H   UNL     1      29.616 -23.658 -14.701  0.00  0.00    +0.158 HD
ENDROOT
BRANCH   5  10
ATOM      9  N   UNL     1      35.277 -24.264 -11.502  0.00  0.00    -0.312 N 
ATOM     10  C   UNL     1      33.903 -24.104 -13.238  0.00  0.00    +0.020 C 
ATOM     11  C   UNL     1      34.985 -24.953 -13.603  0.00  0.00    +0.015 C 
ATOM     12  C   UNL     1      35.832 -25.036 -12.497  0.00  0.00    +0.048 C 
ATOM     13  C   UNL     1      34.111 -23.697 -11.940  0.00  0.00    +0.062 C 
ATOM     14  C   UNL     1      35.326 -25.660 -14.774  0.00  0.00    +0.001 C 
ATOM     15  C   UNL     1      37.008 -25.795 -12.501  0.00  0.00    +0.015 C 
ATOM     16  C   UNL     1      36.499 -26.424 -14.792  0.00  0.00    +0.000 C 
ATOM     17  C   UNL     1      37.326 -26.488 -13.673  0.00  0.00    +0.001 C 
ATOM     18  H   UNL     1      35.662 -24.138 -10.604  0.00  0.00    +0.152 HD
ENDBRANCH   5  10
BRANCH   4  20
ATOM     19  N   UNL     1      35.801 -21.507 -16.364  0.00  0.00    -0.286 N 
ATOM     20  C   UNL     1      33.824 -22.420 -15.918  0.00  0.00    +0.021 C 
ATOM     21  C   UNL     1      33.879 -22.129 -17.312  0.00  0.00    +0.015 C 
ATOM     22  C   UNL     1      35.128 -21.557 -17.563  0.00  0.00    +0.052 C 
ATOM     23  C   UNL     1      35.023 -22.026 -15.364  0.00  0.00    +0.066 C 
ATOM     24  C   UNL     1      32.982 -22.299 -18.384  0.00  0.00    +0.001 C 
ATOM     25  C   UNL     1      35.526 -21.145 -18.840  0.00  0.00    +0.015 C 
ATOM     26  C   UNL     1      33.367 -21.891 -19.667  0.00  0.00    +0.000 C 
ATOM     27  C   UNL     1      34.620 -21.323 -19.889  0.00  0.00    +0.001 C 
BRANCH  19  28
ATOM     28  C   UNL     1      37.137 -20.986 -16.169  0.00  0.00    +0.093 C 
BRANCH  28  29
ATOM     29  C   UNL     1      38.197 -22.086 -16.230  0.00  0.00    -0.002 C 
BRANCH  29  30
ATOM     30  C   UNL     1      37.989 -23.110 -15.117  0.00  0.00    -0.084 C 
BRANCH  30  31
ATOM     31  N   UNL     1      39.045 -24.114 -15.149  0.00  0.00    +0.380 N 
ATOM     32  H   UNL     1      39.067 -24.614 -14.260  0.00  0.00    -0.089 HD
ATOM     33  H   UNL     1      39.944 -23.658 -15.304  0.00  0.00    -0.089 HD
ATOM     34  H   UNL     1      38.865 -24.774 -15.905  0.00  0.00    -0.089 HD
ENDBRANCH  30  31
ENDBRANCH  29  30
ENDBRANCH  28  29
ENDBRANCH  19  28
ENDBRANCH   4  20
TORSDOF 6
ENDMDL
MODEL 6
REMARK VINA RESULT:      -8.4      2.319      4.037
REMARK  Name = 2398
REMARK  6 active torsions:
REMARK  status: ('A' for Active; 'I' for Inactive)
REMARK    1  A    between atoms: C_4  and  C_20
REMARK    2  A    between atoms: C_5  and  C_10
REMARK    3  A    between atoms: N_19  and  C_28
REMARK    4  A    between atoms: C_28  and  C_29
REMARK    5  A    between atoms: C_29  and  C_30
REMARK    6  A    between atoms: C_30  and  N_31
REMARK                            x       y       z     vdW  Elec       q    Type
REMARK                         _______ _______ _______ _____ _____    ______ ____
ROOT
ATOM      1  O   UNL     1      32.729 -22.492 -11.905  0.00  0.00    -0.270 OA
ATOM      2  O   UNL     1      36.268 -25.182 -10.815  0.00  0.00    -0.270 OA
ATOM      3  N   UNL     1      34.413 -23.795 -10.978  0.00  0.00    -0.248 N 
ATOM      4  C   UNL     1      34.359 -23.643 -13.254  0.00  0.00    +0.059 C 
ATOM      5  C   UNL     1      35.406 -24.425 -12.933  0.00  0.00    +0.059 C 
ATOM      6  C   UNL     1      33.703 -23.220 -11.990  0.00  0.00    +0.252 C 
ATOM      7  C   UNL     1      35.454 -24.536 -11.453  0.00  0.00    +0.252 C 
ATOM      8  H   UNL     1      34.201 -23.686 -10.022  0.00  0.00    +0.158 HD
ENDROOT
BRANCH   5  10
ATOM      9  N   UNL     1      37.150 -26.451 -15.341  0.00  0.00    -0.312 N 
ATOM     10  C   UNL     1      36.341 -25.088 -13.786  0.00  0.00    +0.020 C 
ATOM     11  C   UNL     1      37.751 -24.907 -13.848  0.00  0.00    +0.015 C 
ATOM     12  C   UNL     1      38.234 -25.773 -14.831  0.00  0.00    +0.048 C 
ATOM     13  C   UNL     1      36.002 -26.044 -14.717  0.00  0.00    +0.062 C 
ATOM     14  C   UNL     1      38.666 -24.085 -13.159  0.00  0.00    +0.001 C 
ATOM     15  C   UNL     1      39.591 -25.859 -15.162  0.00  0.00    +0.015 C 
ATOM     16  C   UNL     1      40.027 -24.160 -13.480  0.00  0.00    +0.000 C 
ATOM     17  C   UNL     1      40.480 -25.035 -14.465  0.00  0.00    +0.001 C 
ATOM     18  H   UNL     1      37.193 -27.130 -16.053  0.00  0.00    +0.152 HD
ENDBRANCH   5  10
BRANCH   4  20
ATOM     19  N   UNL     1      32.530 -22.820 -16.245  0.00  0.00    -0.286 N 
ATOM     20  C   UNL     1      33.898 -23.221 -14.540  0.00  0.00    +0.021 C 
ATOM     21  C   UNL     1      34.656 -22.637 -15.596  0.00  0.00    +0.015 C 
ATOM     22  C   UNL     1      33.774 -22.397 -16.652  0.00  0.00    +0.052 C 
ATOM     23  C   UNL     1      32.593 -23.319 -14.971  0.00  0.00    +0.066 C 
ATOM     24  C   UNL     1      36.013 -22.291 -15.753  0.00  0.00    +0.001 C 
ATOM     25  C   UNL     1      34.183 -21.824 -17.861  0.00  0.00    +0.015 C 
ATOM     26  C   UNL     1      36.435 -21.718 -16.958  0.00  0.00    +0.000 C 
ATOM     27  C   UNL     1      35.533 -21.488 -17.994  0.00  0.00    +0.001 C 
BRANCH  19  28
ATOM     28  C   UNL     1      31.318 -22.753 -17.034  0.00  0.00    +0.093 C 
BRANCH  28  29
ATOM     29  C   UNL     1      30.143 -22.188 -16.237  0.00  0.00    -0.002 C 
BRANCH  29  30
ATOM     30  C   UNL     1      28.976 -23.172 -16.210  0.00  0.00    -0.084 C 
BRANCH  30  31
ATOM     31  N   UNL     1      27.894 -22.699 -17.066  0.00  0.00    +0.380 N 
ATOM     32  H   UNL     1      27.940 -23.176 -17.967  0.00  0.00    -0.089 HD
ATOM     33  H   UNL     1      27.989 -21.693 -17.209  0.00  0.00    -0.089 HD
ATOM     34  H   UNL     1      26.998 -22.896 -16.622  0.00  0.00    -0.089 HD
ENDBRANCH  30  31
ENDBRANCH  29  30
ENDBRANCH  28  29
ENDBRANCH  19  28
ENDBRANCH   4  20
TORSDOF 6
ENDMDL
MODEL 7
REMARK VINA RESULT:      -8.4      2.184      6.533
REMARK  Name = 2398
REMARK  6 active torsions:
REMARK  status: ('A' for Active; 'I' for Inactive)
REMARK    1  A    between atoms: C_4  and  C_20
REMARK    2  A    between atoms: C_5  and  C_10
REMARK    3  A    between atoms: N_19  and  C_28
REMARK    4  A    between atoms: C_28  and  C_29
REMARK    5  A    between atoms: C_29  and  C_30
REMARK    6  A    between atoms: C_30  and  N_31
REMARK                            x       y       z     vdW  Elec       q    Type
REMARK                         _______ _______ _______ _____ _____    ______ ____
ROOT
ATOM      1  O   UNL     1      36.421 -21.690 -17.490  0.00  0.00    -0.270 OA
ATOM      2  O   UNL     1      31.905 -22.034 -18.156  0.00  0.00    -0.270 OA
ATOM      3  N   UNL     1      34.201 -21.683 -18.172  0.00  0.00    -0.248 N 
ATOM      4  C   UNL     1      34.657 -22.632 -16.148  0.00  0.00    +0.059 C 
ATOM      5  C   UNL     1      33.328 -22.723 -16.339  0.00  0.00    +0.059 C 
ATOM      6  C   UNL     1      35.241 -21.952 -17.333  0.00  0.00    +0.252 C 
ATOM      7  C   UNL     1      33.015 -22.112 -17.655  0.00  0.00    +0.252 C 
ATOM      8  H   UNL     1      34.296 -21.233 -19.044  0.00  0.00    +0.158 HD
ENDROOT
BRANCH   5  10
ATOM      9  N   UNL     1      31.393 -24.505 -13.885  0.00  0.00    -0.312 N 
ATOM     10  C   UNL     1      32.326 -23.303 -15.501  0.00  0.00    +0.020 C 
ATOM     11  C   UNL     1      30.916 -23.128 -15.573  0.00  0.00    +0.015 C 
ATOM     12  C   UNL     1      30.354 -23.893 -14.549  0.00  0.00    +0.048 C 
ATOM     13  C   UNL     1      32.588 -24.155 -14.452  0.00  0.00    +0.062 C 
ATOM     14  C   UNL     1      30.061 -22.390 -16.416  0.00  0.00    +0.001 C 
ATOM     15  C   UNL     1      28.975 -23.956 -14.323  0.00  0.00    +0.015 C 
ATOM     16  C   UNL     1      28.678 -22.444 -16.201  0.00  0.00    +0.000 C 
ATOM     17  C   UNL     1      28.146 -23.216 -15.171  0.00  0.00    +0.001 C 
ATOM     18  H   UNL     1      31.291 -25.108 -13.112  0.00  0.00    +0.152 HD
ENDBRANCH   5  10
BRANCH   4  20
ATOM     19  N   UNL     1      36.607 -22.983 -13.141  0.00  0.00    -0.286 N 
ATOM     20  C   UNL     1      35.448 -23.058 -15.036  0.00  0.00    +0.021 C 
ATOM     21  C   UNL     1      35.930 -24.370 -14.752  0.00  0.00    +0.015 C 
ATOM     22  C   UNL     1      36.653 -24.293 -13.560  0.00  0.00    +0.052 C 
ATOM     23  C   UNL     1      35.881 -22.230 -14.024  0.00  0.00    +0.066 C 
ATOM     24  C   UNL     1      35.818 -25.616 -15.400  0.00  0.00    +0.001 C 
ATOM     25  C   UNL     1      37.272 -25.406 -12.980  0.00  0.00    +0.015 C 
ATOM     26  C   UNL     1      36.433 -26.737 -14.831  0.00  0.00    +0.000 C 
ATOM     27  C   UNL     1      37.148 -26.632 -13.640  0.00  0.00    +0.001 C 
BRANCH  19  28
ATOM     28  C   UNL     1      37.227 -22.461 -11.942  0.00  0.00    +0.093 C 
BRANCH  28  29
ATOM     29  C   UNL     1      36.276 -22.485 -10.745  0.00  0.00    -0.002 C 
BRANCH  29  30
ATOM     30  C   UNL     1      35.170 -23.518 -10.944  0.00  0.00    -0.084 C 
BRANCH  30  31
ATOM     31  N   UNL     1      35.067 -24.381  -9.773  0.00  0.00    +0.380 N 
ATOM     32  H   UNL     1      35.299 -23.847  -8.936  0.00  0.00    -0.089 HD
ATOM     33  H   UNL     1      35.717 -25.162  -9.868  0.00  0.00    -0.089 HD
ATOM     34  H   UNL     1      34.116 -24.738  -9.696  0.00  0.00    -0.089 HD
ENDBRANCH  30  31
ENDBRANCH  29  30
ENDBRANCH  28  29
ENDBRANCH  19  28
ENDBRANCH   4  20
TORSDOF 6
ENDMDL
MODEL 8
REMARK VINA RESULT:      -8.3      1.824      6.583
REMARK  Name = 2398
REMARK  6 active torsions:
REMARK  status: ('A' for Active; 'I' for Inactive)
REMARK    1  A    between atoms: C_4  and  C_20
REMARK    2  A    between atoms: C_5  and  C_10
REMARK    3  A    between atoms: N_19  and  C_28
REMARK    4  A    between atoms: C_28  and  C_29
REMARK    5  A    between atoms: C_29  and  C_30
REMARK    6  A    between atoms: C_30  and  N_31
REMARK                            x       y       z     vdW  Elec       q    Type
REMARK                         _______ _______ _______ _____ _____    ______ ____
ROOT
ATOM      1  O   UNL     1      32.206 -24.408 -13.607  0.00  0.00    -0.270 OA
ATOM      2  O   UNL     1      31.278 -22.274 -17.550  0.00  0.00    -0.270 OA
ATOM      3  N   UNL     1      31.359 -23.420 -15.532  0.00  0.00    -0.248 N 
ATOM      4  C   UNL     1      33.614 -23.288 -15.209  0.00  0.00    +0.059 C 
ATOM      5  C   UNL     1      33.343 -22.670 -16.374  0.00  0.00    +0.059 C 
ATOM      6  C   UNL     1      32.331 -23.786 -14.648  0.00  0.00    +0.252 C 
ATOM      7  C   UNL     1      31.876 -22.745 -16.597  0.00  0.00    +0.252 C 
ATOM      8  H   UNL     1      30.402 -23.619 -15.413  0.00  0.00    +0.158 HD
ENDROOT
BRANCH   5  10
ATOM      9  N   UNL     1      36.107 -21.262 -18.194  0.00  0.00    -0.312 N 
ATOM     10  C   UNL     1      34.228 -22.015 -17.284  0.00  0.00    +0.020 C 
ATOM     11  C   UNL     1      33.895 -21.306 -18.472  0.00  0.00    +0.015 C 
ATOM     12  C   UNL     1      35.091 -20.844 -19.024  0.00  0.00    +0.048 C 
ATOM     13  C   UNL     1      35.596 -21.970 -17.141  0.00  0.00    +0.062 C 
ATOM     14  C   UNL     1      32.685 -21.013 -19.133  0.00  0.00    +0.001 C 
ATOM     15  C   UNL     1      35.139 -20.101 -20.208  0.00  0.00    +0.015 C 
ATOM     16  C   UNL     1      32.718 -20.270 -20.319  0.00  0.00    +0.000 C 
ATOM     17  C   UNL     1      33.927 -19.822 -20.846  0.00  0.00    +0.001 C 
ATOM     18  H   UNL     1      37.064 -21.078 -18.339  0.00  0.00    +0.152 HD
ENDBRANCH   5  10
BRANCH   4  20
ATOM     19  N   UNL     1      37.039 -23.902 -14.281  0.00  0.00    -0.286 N 
ATOM     20  C   UNL     1      34.871 -23.497 -14.561  0.00  0.00    +0.021 C 
ATOM     21  C   UNL     1      35.155 -23.474 -13.165  0.00  0.00    +0.015 C 
ATOM     22  C   UNL     1      36.520 -23.732 -13.018  0.00  0.00    +0.052 C 
ATOM     23  C   UNL     1      36.053 -23.762 -15.220  0.00  0.00    +0.066 C 
ATOM     24  C   UNL     1      34.376 -23.259 -12.011  0.00  0.00    +0.001 C 
ATOM     25  C   UNL     1      37.147 -23.784 -11.768  0.00  0.00    +0.015 C 
ATOM     26  C   UNL     1      34.991 -23.309 -10.754  0.00  0.00    +0.000 C 
ATOM     27  C   UNL     1      36.355 -23.567 -10.637  0.00  0.00    +0.001 C 
BRANCH  19  28
ATOM     28  C   UNL     1      38.424 -24.187 -14.590  0.00  0.00    +0.093 C 
BRANCH  28  29
ATOM     29  C   UNL     1      38.788 -25.644 -14.308  0.00  0.00    -0.002 C 
BRANCH  29  30
ATOM     30  C   UNL     1      40.248 -25.922 -14.661  0.00  0.00    -0.084 C 
BRANCH  30  31
ATOM     31  N   UNL     1      40.929 -26.552 -13.537  0.00  0.00    +0.380 N 
ATOM     32  H   UNL     1      40.279 -27.168 -13.048  0.00  0.00    -0.089 HD
ATOM     33  H   UNL     1      41.263 -25.834 -12.895  0.00  0.00    -0.089 HD
ATOM     34  H   UNL     1      41.720 -27.096 -13.879  0.00  0.00    -0.089 HD
ENDBRANCH  30  31
ENDBRANCH  29  30
ENDBRANCH  28  29
ENDBRANCH  19  28
ENDBRANCH   4  20
TORSDOF 6
ENDMDL
MODEL 9
REMARK VINA RESULT:      -8.2      1.663      5.709
REMARK  Name = 2398
REMARK  6 active torsions:
REMARK  status: ('A' for Active; 'I' for Inactive)
REMARK    1  A    between atoms: C_4  and  C_20
REMARK    2  A    between atoms: C_5  and  C_10
REMARK    3  A    between atoms: N_19  and  C_28
REMARK    4  A    between atoms: C_28  and  C_29
REMARK    5  A    between atoms: C_29  and  C_30
REMARK    6  A    between atoms: C_30  and  N_31
REMARK                            x       y       z     vdW  Elec       q    Type
REMARK                         _______ _______ _______ _____ _____    ______ ____
ROOT
ATOM      1  O   UNL     1      30.742 -24.464 -12.718  0.00  0.00    -0.270 OA
ATOM      2  O   UNL     1      30.285 -22.419 -16.788  0.00  0.00    -0.270 OA
ATOM      3  N   UNL     1      30.121 -23.447 -14.712  0.00  0.00    -0.248 N 
ATOM      4  C   UNL     1      32.357 -23.704 -14.335  0.00  0.00    +0.059 C 
ATOM      5  C   UNL     1      32.222 -23.113 -15.537  0.00  0.00    +0.059 C 
ATOM      6  C   UNL     1      30.996 -23.933 -13.785  0.00  0.00    +0.252 C 
ATOM      7  C   UNL     1      30.771 -22.935 -15.796  0.00  0.00    +0.252 C 
ATOM      8  H   UNL     1      29.142 -23.465 -14.610  0.00  0.00    +0.158 HD
ENDROOT
BRANCH   5  10
ATOM      9  N   UNL     1      34.241 -22.191 -18.368  0.00  0.00    -0.312 N 
ATOM     10  C   UNL     1      33.228 -22.677 -16.454  0.00  0.00    +0.020 C 
ATOM     11  C   UNL     1      34.530 -22.186 -16.157  0.00  0.00    +0.015 C 
ATOM     12  C   UNL     1      35.144 -21.888 -17.374  0.00  0.00    +0.048 C 
ATOM     13  C   UNL     1      33.080 -22.668 -17.822  0.00  0.00    +0.062 C 
ATOM     14  C   UNL     1      35.247 -21.966 -14.964  0.00  0.00    +0.001 C 
ATOM     15  C   UNL     1      36.445 -21.379 -17.460  0.00  0.00    +0.015 C 
ATOM     16  C   UNL     1      36.549 -21.456 -15.034  0.00  0.00    +0.000 C 
ATOM     17  C   UNL     1      37.137 -21.169 -16.264  0.00  0.00    +0.001 C 
ATOM     18  H   UNL     1      34.405 -22.079 -19.333  0.00  0.00    +0.152 HD
ENDBRANCH   5  10
BRANCH   4  20
ATOM     19  N   UNL     1      35.055 -24.300 -12.026  0.00  0.00    -0.286 N 
ATOM     20  C   UNL     1      33.544 -24.099 -13.643  0.00  0.00    +0.021 C 
ATOM     21  C   UNL     1      34.613 -24.909 -14.126  0.00  0.00    +0.015 C 
ATOM     22  C   UNL     1      35.546 -25.018 -13.092  0.00  0.00    +0.052 C 
ATOM     23  C   UNL     1      33.847 -23.742 -12.347  0.00  0.00    +0.066 C 
ATOM     24  C   UNL     1      34.875 -25.559 -15.348  0.00  0.00    +0.001 C 
ATOM     25  C   UNL     1      36.732 -25.749 -13.220  0.00  0.00    +0.015 C 
ATOM     26  C   UNL     1      36.058 -26.294 -15.489  0.00  0.00    +0.000 C 
ATOM     27  C   UNL     1      36.971 -26.387 -14.441  0.00  0.00    +0.001 C 
BRANCH  19  28
ATOM     28  C   UNL     1      35.707 -24.148 -10.742  0.00  0.00    +0.093 C 
BRANCH  28  29
ATOM     29  C   UNL     1      36.245 -22.733 -10.534  0.00  0.00    -0.002 C 
BRANCH  29  30
ATOM     30  C   UNL     1      37.201 -22.340 -11.657  0.00  0.00    -0.084 C 
BRANCH  30  31
ATOM     31  N   UNL     1      38.390 -23.183 -11.628  0.00  0.00    +0.380 N 
ATOM     32  H   UNL     1      39.119 -22.725 -11.083  0.00  0.00    -0.089 HD
ATOM     33  H   UNL     1      38.723 -23.335 -12.581  0.00  0.00    -0.089 HD
ATOM     34  H   UNL     1      38.160 -24.080 -11.202  0.00  0.00    -0.089 HD
ENDBRANCH  30  31
ENDBRANCH  29  30
ENDBRANCH  28  29
ENDBRANCH  19  28
ENDBRANCH   4  20
TORSDOF 6
ENDMDL
