MODEL 1
REMARK VINA RESULT:     -13.4      0.000      0.000
REMARK  Name = 72696796
REMARK  9 active torsions:
REMARK  status: ('A' for Active; 'I' for Inactive)
REMARK    1  A    between atoms: N_2  and  C_29
REMARK    2  A    between atoms: C_10  and  C_12
REMARK    3  A    between atoms: C_13  and  C_16
REMARK    4  A    between atoms: N_15  and  C_18
REMARK    5  A    between atoms: C_18  and  C_20
REMARK    6  A    between atoms: C_29  and  O_30
REMARK    7  A    between atoms: O_30  and  P_31
REMARK    8  A    between atoms: P_31  and  O_33
REMARK    9  A    between atoms: P_31  and  O_35
REMARK                            x       y       z     vdW  Elec       q    Type
REMARK                         _______ _______ _______ _____ _____    ______ ____
ROOT
ATOM      1  O   UNL     1      35.772 -23.337 -14.073  0.00  0.00    -0.274 OA
ATOM      2  N   UNL     1      34.570 -22.782 -15.990  0.00  0.00    -0.217 N 
ATOM      3  N   UNL     1      33.368 -22.085 -17.954  0.00  0.00    -0.229 NA
ATOM      4  C   UNL     1      36.959 -21.549 -16.936  0.00  0.00    +0.039 C 
ATOM      5  C   UNL     1      35.677 -21.447 -17.700  0.00  0.00    +0.010 C 
ATOM      6  C   UNL     1      36.671 -21.617 -15.450  0.00  0.00    +0.090 C 
ATOM      7  C   UNL     1      34.523 -22.083 -17.238  0.00  0.00    +0.135 C 
ATOM      8  C   UNL     1      35.654 -22.686 -15.113  0.00  0.00    +0.233 C 
ATOM      9  C   UNL     1      35.630 -20.793 -18.935  0.00  0.00    +0.000 C 
ATOM     10  C   UNL     1      34.450 -20.773 -19.666  0.00  0.00    +0.019 C 
ATOM     11  C   UNL     1      33.358 -21.430 -19.137  0.00  0.00    +0.100 C 
ENDROOT
BRANCH  10  12
ATOM     12  C   UNL     1      34.364 -20.075 -20.936  0.00  0.00    +0.006 C 
ATOM     13  C   UNL     1      34.400 -18.731 -21.094  0.00  0.00    +0.058 C 
BRANCH  13  16
ATOM     14  O   UNL     1      34.079 -18.858 -23.430  0.00  0.00    -0.270 OA
ATOM     15  N   UNL     1      34.345 -16.736 -22.521  0.00  0.00    -0.267 N 
ATOM     16  C   UNL     1      34.268 -18.130 -22.454  0.00  0.00    +0.250 C 
ATOM     17  C   UNL     1      34.195 -16.072 -23.810  0.00  0.00    +0.116 C 
BRANCH  15  18
ATOM     18  C   UNL     1      34.534 -15.849 -21.375  0.00  0.00    +0.158 C 
BRANCH  18  20
ATOM     19  O   UNL     1      34.165 -13.782 -22.591  0.00  0.00    -0.456 OA
ATOM     20  C   UNL     1      33.789 -14.555 -21.539  0.00  0.00    +0.139 A 
ATOM     21  C   UNL     1      32.773 -13.955 -20.833  0.00  0.00    +0.013 A 
ATOM     22  C   UNL     1      32.497 -12.727 -21.490  0.00  0.00    +0.033 A 
ATOM     23  C   UNL     1      33.381 -12.668 -22.564  0.00  0.00    +0.145 A 
ATOM     24  C   UNL     1      32.102 -14.487 -19.631  0.00  0.00    +0.034 C 
ATOM     25  C   UNL     1      31.602 -11.661 -21.296  0.00  0.00    +0.003 C 
ATOM     26  C   UNL     1      33.437 -11.611 -23.470  0.00  0.00    +0.037 C 
ATOM     27  C   UNL     1      31.636 -10.584 -22.193  0.00  0.00    +0.000 C 
ATOM     28  C   UNL     1      32.538 -10.561 -23.259  0.00  0.00    +0.003 C 
ENDBRANCH  18  20
ENDBRANCH  15  18
ENDBRANCH  13  16
ENDBRANCH  10  12
BRANCH   2  29
ATOM     29  C   UNL     1      33.427 -23.625 -15.653  0.00  0.00    +0.257 C 
BRANCH  29  30
ATOM     30  O   UNL     1      32.578 -22.914 -14.772  0.00  0.00    -0.251 OA
BRANCH  30  31
ATOM     31  P   UNL     1      32.062 -23.660 -13.431  0.00  0.00    +0.475 P 
ATOM     32  O   UNL     1      30.954 -24.653 -13.630  0.00  0.00    -0.227 OA
BRANCH  31  33
ATOM     33  O   UNL     1      31.712 -22.435 -12.436  0.00  0.00    -0.303 OA
ATOM     34  H   UNL     1      31.374 -22.786 -11.598  0.00  0.00    +0.222 HD
ENDBRANCH  31  33
BRANCH  31  35
ATOM     35  O   UNL     1      33.415 -24.275 -12.791  0.00  0.00    -0.303 OA
ATOM     36  H   UNL     1      34.148 -24.165 -13.416  0.00  0.00    +0.222 HD
ENDBRANCH  31  35
ENDBRANCH  30  31
ENDBRANCH  29  30
ENDBRANCH   2  29
TORSDOF 9
ENDMDL
MODEL 2
REMARK VINA RESULT:     -13.4      1.531      2.814
REMARK  Name = 72696796
REMARK  9 active torsions:
REMARK  status: ('A' for Active; 'I' for Inactive)
REMARK    1  A    between atoms: N_2  and  C_29
REMARK    2  A    between atoms: C_10  and  C_12
REMARK    3  A    between atoms: C_13  and  C_16
REMARK    4  A    between atoms: N_15  and  C_18
REMARK    5  A    between atoms: C_18  and  C_20
REMARK    6  A    between atoms: C_29  and  O_30
REMARK    7  A    between atoms: O_30  and  P_31
REMARK    8  A    between atoms: P_31  and  O_33
REMARK    9  A    between atoms: P_31  and  O_35
REMARK                            x       y       z     vdW  Elec       q    Type
REMARK                         _______ _______ _______ _____ _____    ______ ____
ROOT
ATOM      1  O   UNL     1      33.488 -23.713 -14.499  0.00  0.00    -0.274 OA
ATOM      2  N   UNL     1      34.530 -22.591 -16.255  0.00  0.00    -0.217 N 
ATOM      3  N   UNL     1      35.534 -21.504 -18.152  0.00  0.00    -0.229 NA
ATOM      4  C   UNL     1      31.914 -22.066 -17.258  0.00  0.00    +0.039 C 
ATOM      5  C   UNL     1      33.135 -21.684 -18.034  0.00  0.00    +0.010 C 
ATOM      6  C   UNL     1      32.186 -23.319 -16.452  0.00  0.00    +0.090 C 
ATOM      7  C   UNL     1      34.410 -21.921 -17.514  0.00  0.00    +0.135 C 
ATOM      8  C   UNL     1      33.446 -23.203 -15.620  0.00  0.00    +0.233 C 
ATOM      9  C   UNL     1      33.027 -21.001 -19.249  0.00  0.00    +0.000 C 
ATOM     10  C   UNL     1      34.170 -20.586 -19.918  0.00  0.00    +0.019 C 
ATOM     11  C   UNL     1      35.390 -20.859 -19.331  0.00  0.00    +0.100 C 
ENDROOT
BRANCH  10  12
ATOM     12  C   UNL     1      34.088 -19.903 -21.196  0.00  0.00    +0.006 C 
ATOM     13  C   UNL     1      34.317 -18.583 -21.394  0.00  0.00    +0.058 C 
BRANCH  13  16
ATOM     14  O   UNL     1      33.897 -18.715 -23.713  0.00  0.00    -0.270 OA
ATOM     15  N   UNL     1      34.325 -16.603 -22.842  0.00  0.00    -0.267 N 
ATOM     16  C   UNL     1      34.168 -17.989 -22.755  0.00  0.00    +0.250 C 
ATOM     17  C   UNL     1      34.164 -15.945 -24.132  0.00  0.00    +0.116 C 
BRANCH  15  18
ATOM     18  C   UNL     1      34.612 -15.717 -21.715  0.00  0.00    +0.158 C 
BRANCH  18  20
ATOM     19  O   UNL     1      34.153 -13.615 -22.837  0.00  0.00    -0.456 OA
ATOM     20  C   UNL     1      33.836 -14.433 -21.800  0.00  0.00    +0.139 A 
ATOM     21  C   UNL     1      32.839 -13.882 -21.031  0.00  0.00    +0.013 A 
ATOM     22  C   UNL     1      32.513 -12.636 -21.630  0.00  0.00    +0.033 A 
ATOM     23  C   UNL     1      33.350 -12.519 -22.735  0.00  0.00    +0.145 A 
ATOM     24  C   UNL     1      32.229 -14.471 -19.824  0.00  0.00    +0.034 C 
ATOM     25  C   UNL     1      31.607 -11.597 -21.360  0.00  0.00    +0.003 C 
ATOM     26  C   UNL     1      33.349 -11.428 -23.603  0.00  0.00    +0.037 C 
ATOM     27  C   UNL     1      31.582 -10.486 -22.215  0.00  0.00    +0.000 C 
ATOM     28  C   UNL     1      32.440 -10.406 -23.316  0.00  0.00    +0.003 C 
ENDBRANCH  18  20
ENDBRANCH  15  18
ENDBRANCH  13  16
ENDBRANCH  10  12
BRANCH   2  29
ATOM     29  C   UNL     1      35.850 -22.613 -15.634  0.00  0.00    +0.257 C 
BRANCH  29  30
ATOM     30  O   UNL     1      36.222 -23.958 -15.396  0.00  0.00    -0.251 OA
BRANCH  30  31
ATOM     31  P   UNL     1      37.587 -24.245 -14.576  0.00  0.00    +0.475 P 
ATOM     32  O   UNL     1      37.517 -23.999 -13.097  0.00  0.00    -0.227 OA
BRANCH  31  33
ATOM     33  O   UNL     1      38.688 -23.362 -15.365  0.00  0.00    -0.303 OA
ATOM     34  H   UNL     1      38.248 -22.619 -15.809  0.00  0.00    +0.222 HD
ENDBRANCH  31  33
BRANCH  31  35
ATOM     35  O   UNL     1      37.971 -25.762 -14.992  0.00  0.00    -0.303 OA
ATOM     36  H   UNL     1      37.162 -26.290 -15.073  0.00  0.00    +0.222 HD
ENDBRANCH  31  35
ENDBRANCH  30  31
ENDBRANCH  29  30
ENDBRANCH   2  29
TORSDOF 9
ENDMDL
MODEL 3
REMARK VINA RESULT:     -12.8      5.916     12.570
REMARK  Name = 72696796
REMARK  9 active torsions:
REMARK  status: ('A' for Active; 'I' for Inactive)
REMARK    1  A    between atoms: N_2  and  C_29
REMARK    2  A    between atoms: C_10  and  C_12
REMARK    3  A    between atoms: C_13  and  C_16
REMARK    4  A    between atoms: N_15  and  C_18
REMARK    5  A    between atoms: C_18  and  C_20
REMARK    6  A    between atoms: C_29  and  O_30
REMARK    7  A    between atoms: O_30  and  P_31
REMARK    8  A    between atoms: P_31  and  O_33
REMARK    9  A    between atoms: P_31  and  O_35
REMARK                            x       y       z     vdW  Elec       q    Type
REMARK                         _______ _______ _______ _____ _____    ______ ____
ROOT
ATOM      1  O   UNL     1      31.407  -6.776 -19.509  0.00  0.00    -0.274 OA
ATOM      2  N   UNL     1      32.040  -8.127 -21.298  0.00  0.00    -0.217 N 
ATOM      3  N   UNL     1      32.749  -9.604 -23.060  0.00  0.00    -0.229 NA
ATOM      4  C   UNL     1      30.831 -10.288 -19.886  0.00  0.00    +0.039 C 
ATOM      5  C   UNL     1      31.581 -10.515 -21.160  0.00  0.00    +0.010 C 
ATOM      6  C   UNL     1      31.440  -9.125 -19.128  0.00  0.00    +0.090 C 
ATOM      7  C   UNL     1      32.141  -9.441 -21.856  0.00  0.00    +0.135 C 
ATOM      8  C   UNL     1      31.591  -7.893 -19.996  0.00  0.00    +0.233 C 
ATOM      9  C   UNL     1      31.658 -11.790 -21.727  0.00  0.00    +0.000 C 
ATOM     10  C   UNL     1      32.293 -11.971 -22.948  0.00  0.00    +0.019 C 
ATOM     11  C   UNL     1      32.816 -10.854 -23.569  0.00  0.00    +0.100 C 
ENDROOT
BRANCH  10  12
ATOM     12  C   UNL     1      32.414 -13.288 -23.545  0.00  0.00    +0.006 C 
ATOM     13  C   UNL     1      33.558 -14.008 -23.627  0.00  0.00    +0.058 C 
BRANCH  13  16
ATOM     14  O   UNL     1      33.150 -15.447 -25.453  0.00  0.00    -0.270 OA
ATOM     15  N   UNL     1      34.075 -16.405 -23.548  0.00  0.00    -0.267 N 
ATOM     16  C   UNL     1      33.562 -15.342 -24.297  0.00  0.00    +0.250 C 
ATOM     17  C   UNL     1      34.140 -17.734 -24.144  0.00  0.00    +0.116 C 
BRANCH  15  18
ATOM     18  C   UNL     1      34.601 -16.299 -22.189  0.00  0.00    +0.158 C 
BRANCH  18  20
ATOM     19  O   UNL     1      33.515 -18.163 -21.077  0.00  0.00    -0.456 OA
ATOM     20  C   UNL     1      34.689 -17.639 -21.516  0.00  0.00    +0.139 A 
ATOM     21  C   UNL     1      35.736 -18.486 -21.234  0.00  0.00    +0.013 A 
ATOM     22  C   UNL     1      35.174 -19.612 -20.576  0.00  0.00    +0.033 A 
ATOM     23  C   UNL     1      33.807 -19.364 -20.503  0.00  0.00    +0.145 A 
ATOM     24  C   UNL     1      37.159 -18.265 -21.555  0.00  0.00    +0.034 C 
ATOM     25  C   UNL     1      35.670 -20.810 -20.034  0.00  0.00    +0.003 C 
ATOM     26  C   UNL     1      32.886 -20.234 -19.924  0.00  0.00    +0.037 C 
ATOM     27  C   UNL     1      34.766 -21.706 -19.444  0.00  0.00    +0.000 C 
ATOM     28  C   UNL     1      33.400 -21.420 -19.391  0.00  0.00    +0.003 C 
ENDBRANCH  18  20
ENDBRANCH  15  18
ENDBRANCH  13  16
ENDBRANCH  10  12
BRANCH   2  29
ATOM     29  C   UNL     1      32.424  -7.008 -22.152  0.00  0.00    +0.257 C 
BRANCH  29  30
ATOM     30  O   UNL     1      31.259  -6.293 -22.521  0.00  0.00    -0.251 OA
BRANCH  30  31
ATOM     31  P   UNL     1      31.299  -4.676 -22.463  0.00  0.00    +0.475 P 
ATOM     32  O   UNL     1      32.064  -4.007 -23.568  0.00  0.00    -0.227 OA
BRANCH  31  33
ATOM     33  O   UNL     1      31.844  -4.371 -20.972  0.00  0.00    -0.303 OA
ATOM     34  H   UNL     1      32.538  -5.009 -20.744  0.00  0.00    +0.222 HD
ENDBRANCH  31  33
BRANCH  31  35
ATOM     35  O   UNL     1      29.738  -4.259 -22.374  0.00  0.00    -0.303 OA
ATOM     36  H   UNL     1      29.632  -3.338 -22.659  0.00  0.00    +0.222 HD
ENDBRANCH  31  35
ENDBRANCH  30  31
ENDBRANCH  29  30
ENDBRANCH   2  29
TORSDOF 9
ENDMDL
MODEL 4
REMARK VINA RESULT:     -11.7      1.615      3.094
REMARK  Name = 72696796
REMARK  9 active torsions:
REMARK  status: ('A' for Active; 'I' for Inactive)
REMARK    1  A    between atoms: N_2  and  C_29
REMARK    2  A    between atoms: C_10  and  C_12
REMARK    3  A    between atoms: C_13  and  C_16
REMARK    4  A    between atoms: N_15  and  C_18
REMARK    5  A    between atoms: C_18  and  C_20
REMARK    6  A    between atoms: C_29  and  O_30
REMARK    7  A    between atoms: O_30  and  P_31
REMARK    8  A    between atoms: P_31  and  O_33
REMARK    9  A    between atoms: P_31  and  O_35
REMARK                            x       y       z     vdW  Elec       q    Type
REMARK                         _______ _______ _______ _____ _____    ______ ____
ROOT
ATOM      1  O   UNL     1      33.576 -23.755 -13.929  0.00  0.00    -0.274 OA
ATOM      2  N   UNL     1      34.560 -22.691 -15.753  0.00  0.00    -0.217 N 
ATOM      3  N   UNL     1      35.510 -21.672 -17.715  0.00  0.00    -0.229 NA
ATOM      4  C   UNL     1      31.924 -22.392 -16.796  0.00  0.00    +0.039 C 
ATOM      5  C   UNL     1      33.125 -21.989 -17.592  0.00  0.00    +0.010 C 
ATOM      6  C   UNL     1      32.265 -23.571 -15.907  0.00  0.00    +0.090 C 
ATOM      7  C   UNL     1      34.408 -22.113 -17.054  0.00  0.00    +0.135 C 
ATOM      8  C   UNL     1      33.511 -23.324 -15.082  0.00  0.00    +0.233 C 
ATOM      9  C   UNL     1      32.984 -21.396 -18.850  0.00  0.00    +0.000 C 
ATOM     10  C   UNL     1      34.104 -20.958 -19.542  0.00  0.00    +0.019 C 
ATOM     11  C   UNL     1      35.334 -21.117 -18.935  0.00  0.00    +0.100 C 
ENDROOT
BRANCH  10  12
ATOM     12  C   UNL     1      33.989 -20.368 -20.863  0.00  0.00    +0.006 C 
ATOM     13  C   UNL     1      34.454 -19.146 -21.216  0.00  0.00    +0.058 C 
BRANCH  13  16
ATOM     14  O   UNL     1      33.900 -19.409 -23.496  0.00  0.00    -0.270 OA
ATOM     15  N   UNL     1      34.435 -17.261 -22.787  0.00  0.00    -0.267 N 
ATOM     16  C   UNL     1      34.245 -18.633 -22.602  0.00  0.00    +0.250 C 
ATOM     17  C   UNL     1      34.219 -16.679 -24.106  0.00  0.00    +0.116 C 
BRANCH  15  18
ATOM     18  C   UNL     1      34.809 -16.316 -21.737  0.00  0.00    +0.158 C 
BRANCH  18  20
ATOM     19  O   UNL     1      33.388 -14.644 -20.701  0.00  0.00    -0.456 OA
ATOM     20  C   UNL     1      34.031 -15.034 -21.832  0.00  0.00    +0.139 A 
ATOM     21  C   UNL     1      33.818 -14.134 -22.850  0.00  0.00    +0.013 A 
ATOM     22  C   UNL     1      32.987 -13.115 -22.316  0.00  0.00    +0.033 A 
ATOM     23  C   UNL     1      32.749 -13.475 -20.993  0.00  0.00    +0.145 A 
ATOM     24  C   UNL     1      34.352 -14.214 -24.223  0.00  0.00    +0.034 C 
ATOM     25  C   UNL     1      32.408 -11.931 -22.804  0.00  0.00    +0.003 C 
ATOM     26  C   UNL     1      31.969 -12.733 -20.109  0.00  0.00    +0.037 C 
ATOM     27  C   UNL     1      31.617 -11.162 -21.938  0.00  0.00    +0.000 C 
ATOM     28  C   UNL     1      31.403 -11.559 -20.615  0.00  0.00    +0.003 C 
ENDBRANCH  18  20
ENDBRANCH  15  18
ENDBRANCH  13  16
ENDBRANCH  10  12
BRANCH   2  29
ATOM     29  C   UNL     1      35.875 -22.591 -15.129  0.00  0.00    +0.257 C 
BRANCH  29  30
ATOM     30  O   UNL     1      36.622 -23.751 -15.447  0.00  0.00    -0.251 OA
BRANCH  30  31
ATOM     31  P   UNL     1      37.265 -24.609 -14.235  0.00  0.00    +0.475 P 
ATOM     32  O   UNL     1      38.209 -23.860 -13.341  0.00  0.00    -0.227 OA
BRANCH  31  33
ATOM     33  O   UNL     1      37.906 -25.889 -14.986  0.00  0.00    -0.303 OA
ATOM     34  H   UNL     1      37.593 -25.915 -15.904  0.00  0.00    +0.222 HD
ENDBRANCH  31  33
BRANCH  31  35
ATOM     35  O   UNL     1      35.975 -25.235 -13.483  0.00  0.00    -0.303 OA
ATOM     36  H   UNL     1      35.494 -24.529 -13.025  0.00  0.00    +0.222 HD
ENDBRANCH  31  35
ENDBRANCH  30  31
ENDBRANCH  29  30
ENDBRANCH   2  29
TORSDOF 9
ENDMDL
MODEL 5
REMARK VINA RESULT:     -11.0      1.544      2.114
REMARK  Name = 72696796
REMARK  9 active torsions:
REMARK  status: ('A' for Active; 'I' for Inactive)
REMARK    1  A    between atoms: N_2  and  C_29
REMARK    2  A    between atoms: C_10  and  C_12
REMARK    3  A    between atoms: C_13  and  C_16
REMARK    4  A    between atoms: N_15  and  C_18
REMARK    5  A    between atoms: C_18  and  C_20
REMARK    6  A    between atoms: C_29  and  O_30
REMARK    7  A    between atoms: O_30  and  P_31
REMARK    8  A    between atoms: P_31  and  O_33
REMARK    9  A    between atoms: P_31  and  O_35
REMARK                            x       y       z     vdW  Elec       q    Type
REMARK                         _______ _______ _______ _____ _____    ______ ____
ROOT
ATOM      1  O   UNL     1      35.834 -22.521 -16.444  0.00  0.00    -0.274 OA
ATOM      2  N   UNL     1      34.331 -21.806 -18.075  0.00  0.00    -0.217 N 
ATOM      3  N   UNL     1      32.824 -20.946 -19.742  0.00  0.00    -0.229 NA
ATOM      4  C   UNL     1      36.550 -20.533 -19.332  0.00  0.00    +0.039 C 
ATOM      5  C   UNL     1      35.158 -20.357 -19.850  0.00  0.00    +0.010 C 
ATOM      6  C   UNL     1      36.523 -20.711 -17.828  0.00  0.00    +0.090 C 
ATOM      7  C   UNL     1      34.085 -21.013 -19.241  0.00  0.00    +0.135 C 
ATOM      8  C   UNL     1      35.552 -21.791 -17.397  0.00  0.00    +0.233 C 
ATOM      9  C   UNL     1      34.913 -19.610 -21.006  0.00  0.00    +0.000 C 
ATOM     10  C   UNL     1      33.626 -19.520 -21.517  0.00  0.00    +0.019 C 
ATOM     11  C   UNL     1      32.625 -20.202 -20.853  0.00  0.00    +0.100 C 
ENDROOT
BRANCH  10  12
ATOM     12  C   UNL     1      33.338 -18.726 -22.697  0.00  0.00    +0.006 C 
ATOM     13  C   UNL     1      33.871 -17.512 -22.973  0.00  0.00    +0.058 C 
BRANCH  13  16
ATOM     14  O   UNL     1      32.841 -17.363 -25.092  0.00  0.00    -0.270 OA
ATOM     15  N   UNL     1      33.825 -15.427 -24.263  0.00  0.00    -0.267 N 
ATOM     16  C   UNL     1      33.470 -16.777 -24.208  0.00  0.00    +0.250 C 
ATOM     17  C   UNL     1      33.441 -14.633 -25.424  0.00  0.00    +0.116 C 
BRANCH  15  18
ATOM     18  C   UNL     1      34.539 -14.702 -23.214  0.00  0.00    +0.158 C 
BRANCH  18  20
ATOM     19  O   UNL     1      33.347 -12.589 -23.270  0.00  0.00    -0.456 OA
ATOM     20  C   UNL     1      33.662 -13.688 -22.536  0.00  0.00    +0.139 A 
ATOM     21  C   UNL     1      33.085 -13.623 -21.289  0.00  0.00    +0.013 A 
ATOM     22  C   UNL     1      32.363 -12.402 -21.245  0.00  0.00    +0.033 A 
ATOM     23  C   UNL     1      32.556 -11.803 -22.485  0.00  0.00    +0.145 A 
ATOM     24  C   UNL     1      33.197 -14.627 -20.214  0.00  0.00    +0.034 C 
ATOM     25  C   UNL     1      31.570 -11.737 -20.294  0.00  0.00    +0.003 C 
ATOM     26  C   UNL     1      32.010 -10.576 -22.854  0.00  0.00    +0.037 C 
ATOM     27  C   UNL     1      31.005 -10.500 -20.636  0.00  0.00    +0.000 C 
ATOM     28  C   UNL     1      31.224  -9.932 -21.893  0.00  0.00    +0.003 C 
ENDBRANCH  18  20
ENDBRANCH  15  18
ENDBRANCH  13  16
ENDBRANCH  10  12
BRANCH   2  29
ATOM     29  C   UNL     1      33.243 -22.658 -17.606  0.00  0.00    +0.257 C 
BRANCH  29  30
ATOM     30  O   UNL     1      32.778 -22.165 -16.364  0.00  0.00    -0.251 OA
BRANCH  30  31
ATOM     31  P   UNL     1      32.968 -23.090 -15.049  0.00  0.00    +0.475 P 
ATOM     32  O   UNL     1      31.700 -23.502 -14.360  0.00  0.00    -0.227 OA
BRANCH  31  33
ATOM     33  O   UNL     1      33.994 -22.233 -14.139  0.00  0.00    -0.303 OA
ATOM     34  H   UNL     1      34.602 -21.741 -14.712  0.00  0.00    +0.222 HD
ENDBRANCH  31  33
BRANCH  31  35
ATOM     35  O   UNL     1      33.884 -24.317 -15.573  0.00  0.00    -0.303 OA
ATOM     36  H   UNL     1      34.128 -24.166 -16.500  0.00  0.00    +0.222 HD
ENDBRANCH  31  35
ENDBRANCH  30  31
ENDBRANCH  29  30
ENDBRANCH   2  29
TORSDOF 9
ENDMDL
MODEL 6
REMARK VINA RESULT:     -10.8      5.711      9.701
REMARK  Name = 72696796
REMARK  9 active torsions:
REMARK  status: ('A' for Active; 'I' for Inactive)
REMARK    1  A    between atoms: N_2  and  C_29
REMARK    2  A    between atoms: C_10  and  C_12
REMARK    3  A    between atoms: C_13  and  C_16
REMARK    4  A    between atoms: N_15  and  C_18
REMARK    5  A    between atoms: C_18  and  C_20
REMARK    6  A    between atoms: C_29  and  O_30
REMARK    7  A    between atoms: O_30  and  P_31
REMARK    8  A    between atoms: P_31  and  O_33
REMARK    9  A    between atoms: P_31  and  O_35
REMARK                            x       y       z     vdW  Elec       q    Type
REMARK                         _______ _______ _______ _____ _____    ______ ____
ROOT
ATOM      1  O   UNL     1      34.588 -17.373 -23.991  0.00  0.00    -0.274 OA
ATOM      2  N   UNL     1      33.907 -15.832 -22.382  0.00  0.00    -0.217 N 
ATOM      3  N   UNL     1      33.270 -14.148 -20.786  0.00  0.00    -0.229 NA
ATOM      4  C   UNL     1      33.006 -14.211 -24.547  0.00  0.00    +0.039 C 
ATOM      5  C   UNL     1      32.964 -13.716 -23.136  0.00  0.00    +0.010 C 
ATOM      6  C   UNL     1      34.183 -15.147 -24.731  0.00  0.00    +0.090 C 
ATOM      7  C   UNL     1      33.381 -14.535 -22.083  0.00  0.00    +0.135 C 
ATOM      8  C   UNL     1      34.216 -16.239 -23.682  0.00  0.00    +0.233 C 
ATOM      9  C   UNL     1      32.423 -12.464 -22.832  0.00  0.00    +0.000 C 
ATOM     10  C   UNL     1      32.322 -12.051 -21.511  0.00  0.00    +0.019 C 
ATOM     11  C   UNL     1      32.755 -12.924 -20.533  0.00  0.00    +0.100 C 
ENDROOT
BRANCH  10  12
ATOM     12  C   UNL     1      31.793 -10.744 -21.169  0.00  0.00    +0.006 C 
ATOM     13  C   UNL     1      31.754  -9.674 -21.998  0.00  0.00    +0.058 C 
BRANCH  13  16
ATOM     14  O   UNL     1      31.074  -8.171 -20.309  0.00  0.00    -0.270 OA
ATOM     15  N   UNL     1      30.921  -7.423 -22.504  0.00  0.00    -0.267 N 
ATOM     16  C   UNL     1      31.214  -8.368 -21.518  0.00  0.00    +0.250 C 
ATOM     17  C   UNL     1      30.418  -6.112 -22.113  0.00  0.00    +0.116 C 
BRANCH  15  18
ATOM     18  C   UNL     1      31.110  -7.620 -23.940  0.00  0.00    +0.158 C 
BRANCH  18  20
ATOM     19  O   UNL     1      31.495  -5.710 -25.386  0.00  0.00    -0.456 OA
ATOM     20  C   UNL     1      32.049  -6.604 -24.527  0.00  0.00    +0.139 A 
ATOM     21  C   UNL     1      33.396  -6.370 -24.381  0.00  0.00    +0.013 A 
ATOM     22  C   UNL     1      33.701  -5.255 -25.205  0.00  0.00    +0.033 A 
ATOM     23  C   UNL     1      32.499  -4.887 -25.802  0.00  0.00    +0.145 A 
ATOM     24  C   UNL     1      34.336  -7.129 -23.534  0.00  0.00    +0.034 C 
ATOM     25  C   UNL     1      34.857  -4.518 -25.513  0.00  0.00    +0.003 C 
ATOM     26  C   UNL     1      32.363  -3.825 -26.693  0.00  0.00    +0.037 C 
ATOM     27  C   UNL     1      34.752  -3.443 -26.407  0.00  0.00    +0.000 C 
ATOM     28  C   UNL     1      33.526  -3.106 -26.986  0.00  0.00    +0.003 C 
ENDBRANCH  18  20
ENDBRANCH  15  18
ENDBRANCH  13  16
ENDBRANCH  10  12
BRANCH   2  29
ATOM     29  C   UNL     1      34.111 -16.743 -21.261  0.00  0.00    +0.257 C 
BRANCH  29  30
ATOM     30  O   UNL     1      35.500 -16.863 -21.015  0.00  0.00    -0.251 OA
BRANCH  30  31
ATOM     31  P   UNL     1      36.172 -18.333 -21.096  0.00  0.00    +0.475 P 
ATOM     32  O   UNL     1      36.504 -18.966 -19.776  0.00  0.00    -0.227 OA
BRANCH  31  33
ATOM     33  O   UNL     1      37.433 -18.111 -22.083  0.00  0.00    -0.303 OA
ATOM     34  H   UNL     1      37.677 -18.956 -22.492  0.00  0.00    +0.222 HD
ENDBRANCH  31  33
BRANCH  31  35
ATOM     35  O   UNL     1      35.138 -19.177 -22.010  0.00  0.00    -0.303 OA
ATOM     36  H   UNL     1      34.902 -20.001 -21.556  0.00  0.00    +0.222 HD
ENDBRANCH  31  35
ENDBRANCH  30  31
ENDBRANCH  29  30
ENDBRANCH   2  29
TORSDOF 9
ENDMDL
MODEL 7
REMARK VINA RESULT:     -10.5      3.737     11.103
REMARK  Name = 72696796
REMARK  9 active torsions:
REMARK  status: ('A' for Active; 'I' for Inactive)
REMARK    1  A    between atoms: N_2  and  C_29
REMARK    2  A    between atoms: C_10  and  C_12
REMARK    3  A    between atoms: C_13  and  C_16
REMARK    4  A    between atoms: N_15  and  C_18
REMARK    5  A    between atoms: C_18  and  C_20
REMARK    6  A    between atoms: C_29  and  O_30
REMARK    7  A    between atoms: O_30  and  P_31
REMARK    8  A    between atoms: P_31  and  O_33
REMARK    9  A    between atoms: P_31  and  O_35
REMARK                            x       y       z     vdW  Elec       q    Type
REMARK                         _______ _______ _______ _____ _____    ______ ____
ROOT
ATOM      1  O   UNL     1      33.062 -15.373 -25.700  0.00  0.00    -0.274 OA
ATOM      2  N   UNL     1      34.009 -15.984 -23.661  0.00  0.00    -0.217 N 
ATOM      3  N   UNL     1      34.883 -16.692 -21.534  0.00  0.00    -0.229 NA
ATOM      4  C   UNL     1      33.605 -18.688 -24.467  0.00  0.00    +0.039 C 
ATOM      5  C   UNL     1      34.115 -18.352 -23.101  0.00  0.00    +0.010 C 
ATOM      6  C   UNL     1      32.671 -17.598 -24.952  0.00  0.00    +0.090 C 
ATOM      7  C   UNL     1      34.337 -17.023 -22.733  0.00  0.00    +0.135 C 
ATOM      8  C   UNL     1      33.289 -16.221 -24.834  0.00  0.00    +0.233 C 
ATOM      9  C   UNL     1      34.466 -19.362 -22.200  0.00  0.00    +0.000 C 
ATOM     10  C   UNL     1      35.009 -19.034 -20.965  0.00  0.00    +0.019 C 
ATOM     11  C   UNL     1      35.197 -17.696 -20.684  0.00  0.00    +0.100 C 
ENDROOT
BRANCH  10  12
ATOM     12  C   UNL     1      35.353 -20.060 -19.999  0.00  0.00    +0.006 C 
ATOM     13  C   UNL     1      34.471 -20.727 -19.217  0.00  0.00    +0.058 C 
BRANCH  13  16
ATOM     14  O   UNL     1      36.163 -21.949 -18.112  0.00  0.00    -0.270 OA
ATOM     15  N   UNL     1      33.969 -22.383 -17.478  0.00  0.00    -0.267 N 
ATOM     16  C   UNL     1      34.954 -21.741 -18.233  0.00  0.00    +0.250 C 
ATOM     17  C   UNL     1      34.363 -23.365 -16.475  0.00  0.00    +0.116 C 
BRANCH  15  18
ATOM     18  C   UNL     1      32.533 -22.129 -17.579  0.00  0.00    +0.158 C 
BRANCH  18  20
ATOM     19  O   UNL     1      30.678 -23.468 -16.770  0.00  0.00    -0.456 OA
ATOM     20  C   UNL     1      31.774 -22.738 -16.435  0.00  0.00    +0.139 A 
ATOM     21  C   UNL     1      31.949 -22.721 -15.071  0.00  0.00    +0.013 A 
ATOM     22  C   UNL     1      30.891 -23.491 -14.521  0.00  0.00    +0.033 A 
ATOM     23  C   UNL     1      30.138 -23.927 -15.607  0.00  0.00    +0.145 A 
ATOM     24  C   UNL     1      33.025 -22.036 -14.330  0.00  0.00    +0.034 C 
ATOM     25  C   UNL     1      30.486 -23.866 -13.229  0.00  0.00    +0.003 C 
ATOM     26  C   UNL     1      28.997 -24.721 -15.497  0.00  0.00    +0.037 C 
ATOM     27  C   UNL     1      29.343 -24.665 -13.087  0.00  0.00    +0.000 C 
ATOM     28  C   UNL     1      28.613 -25.082 -14.203  0.00  0.00    +0.003 C 
ENDBRANCH  18  20
ENDBRANCH  15  18
ENDBRANCH  13  16
ENDBRANCH  10  12
BRANCH   2  29
ATOM     29  C   UNL     1      34.467 -14.636 -23.341  0.00  0.00    +0.257 C 
BRANCH  29  30
ATOM     30  O   UNL     1      33.576 -14.059 -22.405  0.00  0.00    -0.251 OA
BRANCH  30  31
ATOM     31  P   UNL     1      32.727 -12.756 -22.851  0.00  0.00    +0.475 P 
ATOM     32  O   UNL     1      31.674 -12.306 -21.881  0.00  0.00    -0.227 OA
BRANCH  31  33
ATOM     33  O   UNL     1      32.180 -13.155 -24.319  0.00  0.00    -0.303 OA
ATOM     34  H   UNL     1      32.929 -13.364 -24.899  0.00  0.00    +0.222 HD
ENDBRANCH  31  33
BRANCH  31  35
ATOM     35  O   UNL     1      33.865 -11.651 -23.175  0.00  0.00    -0.303 OA
ATOM     36  H   UNL     1      33.773 -11.350 -24.092  0.00  0.00    +0.222 HD
ENDBRANCH  31  35
ENDBRANCH  30  31
ENDBRANCH  29  30
ENDBRANCH   2  29
TORSDOF 9
ENDMDL
