MODEL 1
REMARK VINA RESULT:     -12.0      0.000      0.000
REMARK  Name = 44129629
REMARK  3 active torsions:
REMARK  status: ('A' for Active; 'I' for Inactive)
REMARK    1  A    between atoms: C_6  and  C_16
REMARK    2  A    between atoms: C_9  and  S_21
REMARK    3  A    between atoms: S_21  and  N_24
REMARK                            x       y       z     vdW  Elec       q    Type
REMARK                         _______ _______ _______ _____ _____    ______ ____
ROOT
ATOM      1  S   UNL     1      32.812 -21.407 -19.258  0.00  0.00    +0.063 S 
ATOM      2  O   UNL     1      31.661 -20.961 -18.499  0.00  0.00    -0.153 OA
ATOM      3  O   UNL     1      32.760 -22.582 -20.103  0.00  0.00    -0.153 OA
ATOM      4  N   UNL     1      33.413 -20.080 -20.152  0.00  0.00    -0.163 NA
ATOM      5  N   UNL     1      35.739 -20.416 -19.528  0.00  0.00    -0.320 N 
ATOM      6  C   UNL     1      34.809 -20.231 -20.626  0.00  0.00    +0.147 C 
ATOM      7  C   UNL     1      35.419 -21.157 -18.399  0.00  0.00    +0.064 C 
ATOM      8  C   UNL     1      34.142 -21.668 -18.126  0.00  0.00    +0.136 C 
ATOM      9  C   UNL     1      34.866 -22.590 -16.021  0.00  0.00    +0.120 C 
ATOM     10  C   UNL     1      33.857 -22.378 -16.956  0.00  0.00    +0.041 C 
ATOM     11  C   UNL     1      36.412 -21.376 -17.430  0.00  0.00    +0.013 C 
ATOM     12  C   UNL     1      36.142 -22.088 -16.257  0.00  0.00    -0.002 C 
ATOM     13  C   UNL     1      37.249 -22.290 -15.273  0.00  0.00    +0.032 C 
ATOM     14  H   UNL     1      33.368 -19.252 -19.560  0.00  0.00    +0.151 HD
ATOM     15  H   UNL     1      36.630 -20.001 -19.585  0.00  0.00    +0.148 HD
ENDROOT
BRANCH   6  16
ATOM     16  C   UNL     1      35.190 -18.988 -21.410  0.00  0.00    +0.035 C 
ATOM     17  C   UNL     1      34.450 -18.865 -22.739  0.00  0.00    +0.003 C 
ATOM     18  C   UNL     1      34.808 -17.690 -20.704  0.00  0.00    +0.003 C 
ATOM     19  C   UNL     1      34.612 -17.397 -23.119  0.00  0.00    +0.000 C 
ATOM     20  C   UNL     1      34.854 -16.642 -21.811  0.00  0.00    +0.000 C 
ENDBRANCH   6  16
BRANCH   9  21
ATOM     21  S   UNL     1      34.494 -23.482 -14.563  0.00  0.00    +0.063 S 
ATOM     22  O   UNL     1      35.088 -24.806 -14.674  0.00  0.00    -0.153 OA
ATOM     23  O   UNL     1      34.807 -22.641 -13.418  0.00  0.00    -0.153 OA
BRANCH  21  24
ATOM     24  N   UNL     1      32.793 -23.623 -14.696  0.00  0.00    -0.160 NA
ATOM     25  N   UNL     1      29.961 -23.535 -14.203  0.00  0.00    +0.387 N 
ATOM     26  C   UNL     1      32.045 -22.336 -14.762  0.00  0.00    +0.073 C 
ATOM     27  C   UNL     1      32.153 -24.576 -13.746  0.00  0.00    +0.073 C 
ATOM     28  C   UNL     1      30.593 -22.608 -15.152  0.00  0.00    -0.058 C 
ATOM     29  C   UNL     1      30.698 -24.806 -14.156  0.00  0.00    -0.058 C 
ATOM     30  C   UNL     1      28.563 -23.764 -14.562  0.00  0.00    -0.101 C 
ATOM     31  H   UNL     1      29.989 -23.112 -13.274  0.00  0.00    -0.080 HD
ENDBRANCH  21  24
ENDBRANCH   9  21
TORSDOF 3
ENDMDL
MODEL 2
REMARK VINA RESULT:     -11.7      2.528      4.256
REMARK  Name = 44129629
REMARK  3 active torsions:
REMARK  status: ('A' for Active; 'I' for Inactive)
REMARK    1  A    between atoms: C_6  and  C_16
REMARK    2  A    between atoms: C_9  and  S_21
REMARK    3  A    between atoms: S_21  and  N_24
REMARK                            x       y       z     vdW  Elec       q    Type
REMARK                         _______ _______ _______ _____ _____    ______ ____
ROOT
ATOM      1  S   UNL     1      32.960 -22.039 -18.749  0.00  0.00    +0.063 S 
ATOM      2  O   UNL     1      31.767 -21.890 -17.938  0.00  0.00    -0.153 OA
ATOM      3  O   UNL     1      33.157 -23.186 -19.611  0.00  0.00    -0.153 OA
ATOM      4  N   UNL     1      33.186 -20.599 -19.642  0.00  0.00    -0.163 NA
ATOM      5  N   UNL     1      35.548 -20.369 -19.113  0.00  0.00    -0.320 N 
ATOM      6  C   UNL     1      34.556 -20.405 -20.172  0.00  0.00    +0.147 C 
ATOM      7  C   UNL     1      35.463 -21.173 -17.986  0.00  0.00    +0.064 C 
ATOM      8  C   UNL     1      34.359 -21.980 -17.673  0.00  0.00    +0.136 C 
ATOM      9  C   UNL     1      35.370 -22.715 -15.614  0.00  0.00    +0.120 C 
ATOM     10  C   UNL     1      34.302 -22.746 -16.505  0.00  0.00    +0.041 C 
ATOM     11  C   UNL     1      36.519 -21.153 -17.060  0.00  0.00    +0.013 C 
ATOM     12  C   UNL     1      36.477 -21.918 -15.889  0.00  0.00    -0.002 C 
ATOM     13  C   UNL     1      37.640 -21.853 -14.953  0.00  0.00    +0.032 C 
ATOM     14  H   UNL     1      32.966 -19.811 -19.035  0.00  0.00    +0.151 HD
ATOM     15  H   UNL     1      36.309 -19.751 -19.198  0.00  0.00    +0.148 HD
ENDROOT
BRANCH   6  16
ATOM     16  C   UNL     1      34.593 -19.101 -20.949  0.00  0.00    +0.035 C 
ATOM     17  C   UNL     1      35.999 -18.521 -21.082  0.00  0.00    +0.003 C 
ATOM     18  C   UNL     1      34.166 -19.256 -22.405  0.00  0.00    +0.003 C 
ATOM     19  C   UNL     1      35.882 -17.529 -22.235  0.00  0.00    +0.000 C 
ATOM     20  C   UNL     1      34.695 -17.995 -23.080  0.00  0.00    +0.000 C 
ENDBRANCH   6  16
BRANCH   9  21
ATOM     21  S   UNL     1      35.285 -23.681 -14.158  0.00  0.00    +0.063 S 
ATOM     22  O   UNL     1      35.137 -22.783 -13.022  0.00  0.00    -0.153 OA
ATOM     23  O   UNL     1      34.318 -24.746 -14.370  0.00  0.00    -0.153 OA
BRANCH  21  24
ATOM     24  N   UNL     1      36.857 -24.360 -14.128  0.00  0.00    -0.160 NA
ATOM     25  N   UNL     1      39.150 -26.009 -13.588  0.00  0.00    +0.387 N 
ATOM     26  C   UNL     1      36.981 -25.717 -14.730  0.00  0.00    +0.073 C 
ATOM     27  C   UNL     1      37.565 -24.278 -12.820  0.00  0.00    +0.073 C 
ATOM     28  C   UNL     1      38.458 -26.075 -14.883  0.00  0.00    -0.058 C 
ATOM     29  C   UNL     1      39.032 -24.663 -13.010  0.00  0.00    -0.058 C 
ATOM     30  C   UNL     1      40.554 -26.386 -13.735  0.00  0.00    -0.101 C 
ATOM     31  H   UNL     1      38.705 -26.672 -12.952  0.00  0.00    -0.080 HD
ENDBRANCH  21  24
ENDBRANCH   9  21
TORSDOF 3
ENDMDL
MODEL 3
REMARK VINA RESULT:      -9.3      3.543      6.851
REMARK  Name = 44129629
REMARK  3 active torsions:
REMARK  status: ('A' for Active; 'I' for Inactive)
REMARK    1  A    between atoms: C_6  and  C_16
REMARK    2  A    between atoms: C_9  and  S_21
REMARK    3  A    between atoms: S_21  and  N_24
REMARK                            x       y       z     vdW  Elec       q    Type
REMARK                         _______ _______ _______ _____ _____    ______ ____
ROOT
ATOM      1  S   UNL     1      31.305 -23.632 -13.756  0.00  0.00    +0.063 S 
ATOM      2  O   UNL     1      31.703 -22.795 -12.641  0.00  0.00    -0.153 OA
ATOM      3  O   UNL     1      31.449 -25.073 -13.718  0.00  0.00    -0.153 OA
ATOM      4  N   UNL     1      29.703 -23.223 -14.191  0.00  0.00    -0.163 NA
ATOM      5  N   UNL     1      30.144 -23.066 -16.577  0.00  0.00    -0.320 N 
ATOM      6  C   UNL     1      29.300 -23.650 -15.551  0.00  0.00    +0.147 C 
ATOM      7  C   UNL     1      31.508 -22.879 -16.400  0.00  0.00    +0.064 C 
ATOM      8  C   UNL     1      32.182 -23.083 -15.187  0.00  0.00    +0.136 C 
ATOM      9  C   UNL     1      34.284 -22.390 -16.140  0.00  0.00    +0.120 C 
ATOM     10  C   UNL     1      33.553 -22.846 -15.047  0.00  0.00    +0.041 C 
ATOM     11  C   UNL     1      32.271 -22.407 -17.480  0.00  0.00    +0.013 C 
ATOM     12  C   UNL     1      33.643 -22.169 -17.355  0.00  0.00    -0.002 C 
ATOM     13  C   UNL     1      34.394 -21.674 -18.549  0.00  0.00    +0.032 C 
ATOM     14  H   UNL     1      29.608 -22.210 -14.135  0.00  0.00    +0.151 HD
ATOM     15  H   UNL     1      29.735 -22.793 -17.429  0.00  0.00    +0.148 HD
ENDROOT
BRANCH   6  16
ATOM     16  C   UNL     1      27.858 -23.232 -15.781  0.00  0.00    +0.035 C 
ATOM     17  C   UNL     1      27.418 -22.074 -14.889  0.00  0.00    +0.003 C 
ATOM     18  C   UNL     1      27.609 -22.677 -17.180  0.00  0.00    +0.003 C 
ATOM     19  C   UNL     1      26.170 -21.530 -15.576  0.00  0.00    +0.000 C 
ATOM     20  C   UNL     1      26.286 -21.928 -17.048  0.00  0.00    +0.000 C 
ENDBRANCH   6  16
BRANCH   9  21
ATOM     21  S   UNL     1      35.998 -22.101 -15.949  0.00  0.00    +0.063 S 
ATOM     22  O   UNL     1      36.670 -22.514 -17.172  0.00  0.00    -0.153 OA
ATOM     23  O   UNL     1      36.182 -20.750 -15.441  0.00  0.00    -0.153 OA
BRANCH  21  24
ATOM     24  N   UNL     1      36.378 -23.214 -14.704  0.00  0.00    -0.160 NA
ATOM     25  N   UNL     1      37.655 -24.631 -12.553  0.00  0.00    +0.387 N 
ATOM     26  C   UNL     1      36.400 -22.651 -13.325  0.00  0.00    +0.073 C 
ATOM     27  C   UNL     1      37.563 -24.080 -14.958  0.00  0.00    +0.073 C 
ATOM     28  C   UNL     1      36.476 -23.790 -12.309  0.00  0.00    -0.058 C 
ATOM     29  C   UNL     1      37.616 -25.192 -13.911  0.00  0.00    -0.058 C 
ATOM     30  C   UNL     1      37.740 -25.698 -11.558  0.00  0.00    -0.101 C 
ATOM     31  H   UNL     1      38.489 -24.048 -12.470  0.00  0.00    -0.080 HD
ENDBRANCH  21  24
ENDBRANCH   9  21
TORSDOF 3
ENDMDL
MODEL 4
REMARK VINA RESULT:      -9.1      8.814     13.693
REMARK  Name = 44129629
REMARK  3 active torsions:
REMARK  status: ('A' for Active; 'I' for Inactive)
REMARK    1  A    between atoms: C_6  and  C_16
REMARK    2  A    between atoms: C_9  and  S_21
REMARK    3  A    between atoms: S_21  and  N_24
REMARK                            x       y       z     vdW  Elec       q    Type
REMARK                         _______ _______ _______ _____ _____    ______ ____
ROOT
ATOM      1  S   UNL     1      33.136 -12.815 -24.588  0.00  0.00    +0.063 S 
ATOM      2  O   UNL     1      33.953 -11.828 -25.266  0.00  0.00    -0.153 OA
ATOM      3  O   UNL     1      31.975 -13.408 -25.219  0.00  0.00    -0.153 OA
ATOM      4  N   UNL     1      34.162 -14.047 -23.995  0.00  0.00    -0.163 NA
ATOM      5  N   UNL     1      33.195 -14.099 -21.765  0.00  0.00    -0.320 N 
ATOM      6  C   UNL     1      33.574 -14.885 -22.925  0.00  0.00    +0.147 C 
ATOM      7  C   UNL     1      32.660 -12.823 -21.873  0.00  0.00    +0.064 C 
ATOM      8  C   UNL     1      32.570 -12.105 -23.074  0.00  0.00    +0.136 C 
ATOM      9  C   UNL     1      31.618 -10.193 -21.958  0.00  0.00    +0.120 C 
ATOM     10  C   UNL     1      32.056 -10.806 -23.129  0.00  0.00    +0.041 C 
ATOM     11  C   UNL     1      32.222 -12.173 -20.708  0.00  0.00    +0.013 C 
ATOM     12  C   UNL     1      31.703 -10.875 -20.748  0.00  0.00    -0.002 C 
ATOM     13  C   UNL     1      31.249 -10.247 -19.470  0.00  0.00    +0.032 C 
ATOM     14  H   UNL     1      35.005 -13.608 -23.627  0.00  0.00    +0.151 HD
ATOM     15  H   UNL     1      33.323 -14.485 -20.869  0.00  0.00    +0.148 HD
ENDROOT
BRANCH   6  16
ATOM     16  C   UNL     1      34.592 -15.934 -22.517  0.00  0.00    +0.035 C 
ATOM     17  C   UNL     1      34.479 -16.346 -21.052  0.00  0.00    +0.003 C 
ATOM     18  C   UNL     1      34.410 -17.264 -23.244  0.00  0.00    +0.003 C 
ATOM     19  C   UNL     1      35.228 -17.673 -20.981  0.00  0.00    +0.000 C 
ATOM     20  C   UNL     1      35.195 -18.258 -22.393  0.00  0.00    +0.000 C 
ENDBRANCH   6  16
BRANCH   9  21
ATOM     21  S   UNL     1      30.976  -8.568 -22.044  0.00  0.00    +0.063 S 
ATOM     22  O   UNL     1      29.620  -8.640 -22.567  0.00  0.00    -0.153 OA
ATOM     23  O   UNL     1      31.228  -7.907 -20.772  0.00  0.00    -0.153 OA
BRANCH  21  24
ATOM     24  N   UNL     1      31.996  -7.880 -23.235  0.00  0.00    -0.160 NA
ATOM     25  N   UNL     1      33.609  -6.081 -24.794  0.00  0.00    +0.387 N 
ATOM     26  C   UNL     1      33.341  -7.451 -22.758  0.00  0.00    +0.073 C 
ATOM     27  C   UNL     1      31.366  -6.839 -24.094  0.00  0.00    +0.073 C 
ATOM     28  C   UNL     1      34.227  -7.119 -23.958  0.00  0.00    -0.058 C 
ATOM     29  C   UNL     1      32.289  -6.519 -25.269  0.00  0.00    -0.058 C 
ATOM     30  C   UNL     1      34.477  -5.744 -25.921  0.00  0.00    -0.101 C 
ATOM     31  H   UNL     1      33.483  -5.243 -24.224  0.00  0.00    -0.080 HD
ENDBRANCH  21  24
ENDBRANCH   9  21
TORSDOF 3
ENDMDL
