MODEL 1
REMARK VINA RESULT:     -11.5      0.000      0.000
REMARK  Name = 2898
REMARK  6 active torsions:
REMARK  status: ('A' for Active; 'I' for Inactive)
REMARK    1  A    between atoms: C_7  and  C_8
REMARK    2  A    between atoms: C_7  and  C_18
REMARK    3  A    between atoms: C_13  and  O_14
REMARK    4  A    between atoms: O_14  and  C_16
REMARK    5  A    between atoms: C_23  and  O_24
REMARK    6  A    between atoms: O_24  and  C_26
REMARK                            x       y       z     vdW  Elec       q    Type
REMARK                         _______ _______ _______ _____ _____    ______ ____
ROOT
ATOM      1  C   UNL     1      30.609 -23.922 -13.799  0.00  0.00    +0.001 C 
ATOM      2  C   UNL     1      30.828 -23.329 -15.192  0.00  0.00    +0.004 C 
ATOM      3  C   UNL     1      31.870 -24.612 -13.277  0.00  0.00    +0.004 C 
ATOM      4  C   UNL     1      32.034 -22.389 -15.227  0.00  0.00    +0.022 C 
ATOM      5  C   UNL     1      33.081 -23.678 -13.302  0.00  0.00    +0.022 C 
ATOM      6  C   UNL     1      33.257 -23.068 -14.668  0.00  0.00    -0.044 C 
ATOM      7  C   UNL     1      34.411 -23.142 -15.346  0.00  0.00    -0.008 C 
ENDROOT
BRANCH   7   8
ATOM      8  C   UNL     1      35.562 -23.835 -14.707  0.00  0.00    -0.000 C 
ATOM      9  C   UNL     1      36.381 -23.118 -13.860  0.00  0.00    +0.003 C 
ATOM     10  C   UNL     1      35.774 -25.168 -14.984  0.00  0.00    +0.003 C 
ATOM     11  C   UNL     1      37.461 -23.767 -13.261  0.00  0.00    +0.038 C 
ATOM     12  C   UNL     1      36.853 -25.817 -14.387  0.00  0.00    +0.038 C 
ATOM     13  C   UNL     1      37.697 -25.116 -13.524  0.00  0.00    +0.148 C 
BRANCH  13  14
ATOM     14  O   UNL     1      38.752 -25.749 -12.941  0.00  0.00    -0.424 OA
BRANCH  14  16
ATOM     15  O   UNL     1      40.841 -26.569 -13.605  0.00  0.00    -0.250 OA
ATOM     16  C   UNL     1      39.909 -25.787 -13.735  0.00  0.00    +0.322 C 
ATOM     17  C   UNL     1      39.847 -24.716 -14.783  0.00  0.00    +0.122 C 
ENDBRANCH  14  16
ENDBRANCH  13  14
ENDBRANCH   7   8
BRANCH   7  18
ATOM     18  C   UNL     1      34.475 -22.529 -16.700  0.00  0.00    -0.000 C 
ATOM     19  C   UNL     1      35.565 -21.751 -17.025  0.00  0.00    +0.003 C 
ATOM     20  C   UNL     1      33.443 -22.761 -17.583  0.00  0.00    +0.003 C 
ATOM     21  C   UNL     1      35.626 -21.175 -18.295  0.00  0.00    +0.038 C 
ATOM     22  C   UNL     1      33.503 -22.186 -18.853  0.00  0.00    +0.038 C 
ATOM     23  C   UNL     1      34.594 -21.393 -19.208  0.00  0.00    +0.148 C 
BRANCH  23  24
ATOM     24  O   UNL     1      34.653 -20.832 -20.447  0.00  0.00    -0.424 OA
BRANCH  24  26
ATOM     25  O   UNL     1      32.576 -19.753 -20.475  0.00  0.00    -0.250 OA
ATOM     26  C   UNL     1      33.791 -19.738 -20.623  0.00  0.00    +0.322 C 
ATOM     27  C   UNL     1      34.576 -18.525 -21.027  0.00  0.00    +0.122 C 
ENDBRANCH  24  26
ENDBRANCH  23  24
ENDBRANCH   7  18
TORSDOF 6
ENDMDL
MODEL 2
REMARK VINA RESULT:     -11.2      1.414      7.130
REMARK  Name = 2898
REMARK  6 active torsions:
REMARK  status: ('A' for Active; 'I' for Inactive)
REMARK    1  A    between atoms: C_7  and  C_8
REMARK    2  A    between atoms: C_7  and  C_18
REMARK    3  A    between atoms: C_13  and  O_14
REMARK    4  A    between atoms: O_14  and  C_16
REMARK    5  A    between atoms: C_23  and  O_24
REMARK    6  A    between atoms: O_24  and  C_26
REMARK                            x       y       z     vdW  Elec       q    Type
REMARK                         _______ _______ _______ _____ _____    ______ ____
ROOT
ATOM      1  C   UNL     1      30.178 -22.860 -15.189  0.00  0.00    +0.001 C 
ATOM      2  C   UNL     1      31.424 -23.135 -14.347  0.00  0.00    +0.004 C 
ATOM      3  C   UNL     1      30.507 -22.013 -16.419  0.00  0.00    +0.004 C 
ATOM      4  C   UNL     1      32.543 -23.767 -15.176  0.00  0.00    +0.022 C 
ATOM      5  C   UNL     1      31.621 -22.638 -17.259  0.00  0.00    +0.022 C 
ATOM      6  C   UNL     1      32.825 -22.945 -16.407  0.00  0.00    -0.044 C 
ATOM      7  C   UNL     1      34.052 -22.501 -16.709  0.00  0.00    -0.008 C 
ENDROOT
BRANCH   7   8
ATOM      8  C   UNL     1      34.227 -21.696 -17.948  0.00  0.00    -0.000 C 
ATOM      9  C   UNL     1      35.505 -21.383 -18.361  0.00  0.00    +0.003 C 
ATOM     10  C   UNL     1      33.107 -21.288 -18.641  0.00  0.00    +0.003 C 
ATOM     11  C   UNL     1      35.670 -20.627 -19.522  0.00  0.00    +0.038 C 
ATOM     12  C   UNL     1      33.271 -20.533 -19.801  0.00  0.00    +0.038 C 
ATOM     13  C   UNL     1      34.553 -20.202 -20.242  0.00  0.00    +0.148 C 
BRANCH  13  14
ATOM     14  O   UNL     1      34.713 -19.464 -21.375  0.00  0.00    -0.424 OA
BRANCH  14  16
ATOM     15  O   UNL     1      35.099 -17.335 -20.482  0.00  0.00    -0.250 OA
ATOM     16  C   UNL     1      35.438 -18.276 -21.187  0.00  0.00    +0.322 C 
ATOM     17  C   UNL     1      36.706 -18.317 -21.987  0.00  0.00    +0.122 C 
ENDBRANCH  14  16
ENDBRANCH  13  14
ENDBRANCH   7   8
BRANCH   7  18
ATOM     18  C   UNL     1      35.172 -22.837 -15.789  0.00  0.00    -0.000 C 
ATOM     19  C   UNL     1      36.076 -21.852 -15.455  0.00  0.00    +0.003 C 
ATOM     20  C   UNL     1      35.267 -24.123 -15.301  0.00  0.00    +0.003 C 
ATOM     21  C   UNL     1      37.126 -22.166 -14.592  0.00  0.00    +0.038 C 
ATOM     22  C   UNL     1      36.317 -24.438 -14.438  0.00  0.00    +0.038 C 
ATOM     23  C   UNL     1      37.246 -23.460 -14.084  0.00  0.00    +0.148 C 
BRANCH  23  24
ATOM     24  O   UNL     1      38.271 -23.767 -13.242  0.00  0.00    -0.424 OA
BRANCH  24  26
ATOM     25  O   UNL     1      38.823 -26.035 -13.062  0.00  0.00    -0.250 OA
ATOM     26  C   UNL     1      38.965 -24.938 -13.587  0.00  0.00    +0.322 C 
ATOM     27  C   UNL     1      39.925 -24.657 -14.705  0.00  0.00    +0.122 C 
ENDBRANCH  24  26
ENDBRANCH  23  24
ENDBRANCH   7  18
TORSDOF 6
ENDMDL
MODEL 3
REMARK VINA RESULT:     -11.2      1.378      7.191
REMARK  Name = 2898
REMARK  6 active torsions:
REMARK  status: ('A' for Active; 'I' for Inactive)
REMARK    1  A    between atoms: C_7  and  C_8
REMARK    2  A    between atoms: C_7  and  C_18
REMARK    3  A    between atoms: C_13  and  O_14
REMARK    4  A    between atoms: O_14  and  C_16
REMARK    5  A    between atoms: C_23  and  O_24
REMARK    6  A    between atoms: O_24  and  C_26
REMARK                            x       y       z     vdW  Elec       q    Type
REMARK                         _______ _______ _______ _____ _____    ______ ____
ROOT
ATOM      1  C   UNL     1      30.135 -22.870 -15.133  0.00  0.00    +0.001 C 
ATOM      2  C   UNL     1      31.383 -23.132 -14.288  0.00  0.00    +0.004 C 
ATOM      3  C   UNL     1      30.462 -22.044 -16.377  0.00  0.00    +0.004 C 
ATOM      4  C   UNL     1      32.500 -23.778 -15.109  0.00  0.00    +0.022 C 
ATOM      5  C   UNL     1      31.574 -22.684 -17.208  0.00  0.00    +0.022 C 
ATOM      6  C   UNL     1      32.780 -22.977 -16.354  0.00  0.00    -0.044 C 
ATOM      7  C   UNL     1      34.007 -22.540 -16.666  0.00  0.00    -0.008 C 
ENDROOT
BRANCH   7   8
ATOM      8  C   UNL     1      34.180 -21.755 -17.919  0.00  0.00    -0.000 C 
ATOM      9  C   UNL     1      33.058 -21.380 -18.626  0.00  0.00    +0.003 C 
ATOM     10  C   UNL     1      35.455 -21.431 -18.330  0.00  0.00    +0.003 C 
ATOM     11  C   UNL     1      33.220 -20.645 -19.801  0.00  0.00    +0.038 C 
ATOM     12  C   UNL     1      35.618 -20.697 -19.505  0.00  0.00    +0.038 C 
ATOM     13  C   UNL     1      34.499 -20.303 -20.240  0.00  0.00    +0.148 C 
BRANCH  13  14
ATOM     14  O   UNL     1      34.657 -19.587 -21.387  0.00  0.00    -0.424 OA
BRANCH  14  16
ATOM     15  O   UNL     1      34.724 -17.375 -20.625  0.00  0.00    -0.250 OA
ATOM     16  C   UNL     1      35.242 -18.324 -21.198  0.00  0.00    +0.322 C 
ATOM     17  C   UNL     1      36.612 -18.297 -21.808  0.00  0.00    +0.122 C 
ENDBRANCH  14  16
ENDBRANCH  13  14
ENDBRANCH   7   8
BRANCH   7  18
ATOM     18  C   UNL     1      35.128 -22.860 -15.742  0.00  0.00    -0.000 C 
ATOM     19  C   UNL     1      35.344 -24.175 -15.390  0.00  0.00    +0.003 C 
ATOM     20  C   UNL     1      35.914 -21.831 -15.269  0.00  0.00    +0.003 C 
ATOM     21  C   UNL     1      36.394 -24.476 -14.523  0.00  0.00    +0.038 C 
ATOM     22  C   UNL     1      36.965 -22.132 -14.402  0.00  0.00    +0.038 C 
ATOM     23  C   UNL     1      37.205 -23.454 -14.030  0.00  0.00    +0.148 C 
BRANCH  23  24
ATOM     24  O   UNL     1      38.230 -23.747 -13.184  0.00  0.00    -0.424 OA
BRANCH  24  26
ATOM     25  O   UNL     1      38.834 -26.004 -13.041  0.00  0.00    -0.250 OA
ATOM     26  C   UNL     1      38.958 -24.894 -13.541  0.00  0.00    +0.322 C 
ATOM     27  C   UNL     1      39.929 -24.567 -14.636  0.00  0.00    +0.122 C 
ENDBRANCH  24  26
ENDBRANCH  23  24
ENDBRANCH   7  18
TORSDOF 6
ENDMDL
MODEL 4
REMARK VINA RESULT:     -10.8      2.581      5.120
REMARK  Name = 2898
REMARK  6 active torsions:
REMARK  status: ('A' for Active; 'I' for Inactive)
REMARK    1  A    between atoms: C_7  and  C_8
REMARK    2  A    between atoms: C_7  and  C_18
REMARK    3  A    between atoms: C_13  and  O_14
REMARK    4  A    between atoms: O_14  and  C_16
REMARK    5  A    between atoms: C_23  and  O_24
REMARK    6  A    between atoms: O_24  and  C_26
REMARK                            x       y       z     vdW  Elec       q    Type
REMARK                         _______ _______ _______ _____ _____    ______ ____
ROOT
ATOM      1  C   UNL     1      34.318 -20.234 -20.237  0.00  0.00    +0.001 C 
ATOM      2  C   UNL     1      32.937 -20.456 -19.617  0.00  0.00    +0.004 C 
ATOM      3  C   UNL     1      35.436 -20.526 -19.235  0.00  0.00    +0.004 C 
ATOM      4  C   UNL     1      32.800 -21.857 -19.020  0.00  0.00    +0.022 C 
ATOM      5  C   UNL     1      35.311 -21.926 -18.636  0.00  0.00    +0.022 C 
ATOM      6  C   UNL     1      33.933 -22.146 -18.070  0.00  0.00    -0.044 C 
ATOM      7  C   UNL     1      33.728 -22.547 -16.808  0.00  0.00    -0.008 C 
ENDROOT
BRANCH   7   8
ATOM      8  C   UNL     1      34.914 -22.807 -15.948  0.00  0.00    -0.000 C 
ATOM      9  C   UNL     1      35.840 -21.800 -15.775  0.00  0.00    +0.003 C 
ATOM     10  C   UNL     1      35.048 -24.043 -15.354  0.00  0.00    +0.003 C 
ATOM     11  C   UNL     1      36.953 -22.043 -14.969  0.00  0.00    +0.038 C 
ATOM     12  C   UNL     1      36.160 -24.287 -14.549  0.00  0.00    +0.038 C 
ATOM     13  C   UNL     1      37.112 -23.286 -14.356  0.00  0.00    +0.148 C 
BRANCH  13  14
ATOM     14  O   UNL     1      38.198 -23.523 -13.570  0.00  0.00    -0.424 OA
BRANCH  14  16
ATOM     15  O   UNL     1      38.529 -25.781 -13.049  0.00  0.00    -0.250 OA
ATOM     16  C   UNL     1      38.762 -24.798 -13.740  0.00  0.00    +0.322 C 
ATOM     17  C   UNL     1      39.708 -24.790 -14.903  0.00  0.00    +0.122 C 
ENDBRANCH  14  16
ENDBRANCH  13  14
ENDBRANCH   7   8
BRANCH   7  18
ATOM     18  C   UNL     1      32.326 -22.710 -16.337  0.00  0.00    -0.000 C 
ATOM     19  C   UNL     1      31.315 -22.078 -17.029  0.00  0.00    +0.003 C 
ATOM     20  C   UNL     1      32.086 -23.487 -15.224  0.00  0.00    +0.003 C 
ATOM     21  C   UNL     1      30.001 -22.230 -16.587  0.00  0.00    +0.038 C 
ATOM     22  C   UNL     1      30.771 -23.639 -14.782  0.00  0.00    +0.038 C 
ATOM     23  C   UNL     1      29.729 -23.010 -15.463  0.00  0.00    +0.148 C 
BRANCH  23  24
ATOM     24  O   UNL     1      28.447 -23.158 -15.032  0.00  0.00    -0.424 OA
BRANCH  24  26
ATOM     25  O   UNL     1      27.368 -23.839 -16.994  0.00  0.00    -0.250 OA
ATOM     26  C   UNL     1      27.484 -23.069 -16.050  0.00  0.00    +0.322 C 
ATOM     27  C   UNL     1      26.603 -21.876 -15.822  0.00  0.00    +0.122 C 
ENDBRANCH  24  26
ENDBRANCH  23  24
ENDBRANCH   7  18
TORSDOF 6
ENDMDL
MODEL 5
REMARK VINA RESULT:     -10.7      0.498      7.125
REMARK  Name = 2898
REMARK  6 active torsions:
REMARK  status: ('A' for Active; 'I' for Inactive)
REMARK    1  A    between atoms: C_7  and  C_8
REMARK    2  A    between atoms: C_7  and  C_18
REMARK    3  A    between atoms: C_13  and  O_14
REMARK    4  A    between atoms: O_14  and  C_16
REMARK    5  A    between atoms: C_23  and  O_24
REMARK    6  A    between atoms: O_24  and  C_26
REMARK                            x       y       z     vdW  Elec       q    Type
REMARK                         _______ _______ _______ _____ _____    ______ ____
ROOT
ATOM      1  C   UNL     1      30.886 -22.758 -13.354  0.00  0.00    +0.001 C 
ATOM      2  C   UNL     1      32.166 -23.335 -12.747  0.00  0.00    +0.004 C 
ATOM      3  C   UNL     1      31.168 -22.022 -14.664  0.00  0.00    +0.004 C 
ATOM      4  C   UNL     1      32.915 -24.226 -13.738  0.00  0.00    +0.022 C 
ATOM      5  C   UNL     1      31.912 -22.905 -15.665  0.00  0.00    +0.022 C 
ATOM      6  C   UNL     1      33.146 -23.501 -15.039  0.00  0.00    -0.044 C 
ATOM      7  C   UNL     1      34.362 -23.377 -15.587  0.00  0.00    -0.008 C 
ENDROOT
BRANCH   7   8
ATOM      8  C   UNL     1      34.486 -22.642 -16.875  0.00  0.00    -0.000 C 
ATOM      9  C   UNL     1      33.509 -22.813 -17.832  0.00  0.00    +0.003 C 
ATOM     10  C   UNL     1      35.573 -21.817 -17.068  0.00  0.00    +0.003 C 
ATOM     11  C   UNL     1      33.624 -22.124 -19.040  0.00  0.00    +0.038 C 
ATOM     12  C   UNL     1      35.689 -21.128 -18.275  0.00  0.00    +0.038 C 
ATOM     13  C   UNL     1      34.714 -21.282 -19.261  0.00  0.00    +0.148 C 
BRANCH  13  14
ATOM     14  O   UNL     1      34.827 -20.610 -20.440  0.00  0.00    -0.424 OA
BRANCH  14  16
ATOM     15  O   UNL     1      32.678 -19.688 -20.364  0.00  0.00    -0.250 OA
ATOM     16  C   UNL     1      33.871 -19.597 -20.617  0.00  0.00    +0.322 C 
ATOM     17  C   UNL     1      34.524 -18.367 -21.172  0.00  0.00    +0.122 C 
ENDBRANCH  14  16
ENDBRANCH  13  14
ENDBRANCH   7   8
BRANCH   7  18
ATOM     18  C   UNL     1      35.522 -23.980 -14.876  0.00  0.00    -0.000 C 
ATOM     19  C   UNL     1      36.278 -23.183 -14.044  0.00  0.00    +0.003 C 
ATOM     20  C   UNL     1      35.801 -25.316 -15.074  0.00  0.00    +0.003 C 
ATOM     21  C   UNL     1      37.366 -23.748 -13.378  0.00  0.00    +0.038 C 
ATOM     22  C   UNL     1      36.889 -25.881 -14.408  0.00  0.00    +0.038 C 
ATOM     23  C   UNL     1      37.671 -25.097 -13.560  0.00  0.00    +0.148 C 
BRANCH  23  24
ATOM     24  O   UNL     1      38.732 -25.648 -12.911  0.00  0.00    -0.424 OA
BRANCH  24  26
ATOM     25  O   UNL     1      40.815 -26.527 -13.520  0.00  0.00    -0.250 OA
ATOM     26  C   UNL     1      39.901 -25.730 -13.686  0.00  0.00    +0.322 C 
ATOM     27  C   UNL     1      39.877 -24.686 -14.763  0.00  0.00    +0.122 C 
ENDBRANCH  24  26
ENDBRANCH  23  24
ENDBRANCH   7  18
TORSDOF 6
ENDMDL
MODEL 6
REMARK VINA RESULT:     -10.1      2.985      6.929
REMARK  Name = 2898
REMARK  6 active torsions:
REMARK  status: ('A' for Active; 'I' for Inactive)
REMARK    1  A    between atoms: C_7  and  C_8
REMARK    2  A    between atoms: C_7  and  C_18
REMARK    3  A    between atoms: C_13  and  O_14
REMARK    4  A    between atoms: O_14  and  C_16
REMARK    5  A    between atoms: C_23  and  O_24
REMARK    6  A    between atoms: O_24  and  C_26
REMARK                            x       y       z     vdW  Elec       q    Type
REMARK                         _______ _______ _______ _____ _____    ______ ____
ROOT
ATOM      1  C   UNL     1      37.753 -24.417 -13.138  0.00  0.00    +0.001 C 
ATOM      2  C   UNL     1      36.296 -24.687 -12.758  0.00  0.00    +0.004 C 
ATOM      3  C   UNL     1      37.873 -23.900 -14.572  0.00  0.00    +0.004 C 
ATOM      4  C   UNL     1      35.411 -23.460 -12.985  0.00  0.00    +0.022 C 
ATOM      5  C   UNL     1      36.997 -22.670 -14.809  0.00  0.00    +0.022 C 
ATOM      6  C   UNL     1      35.575 -22.937 -14.389  0.00  0.00    -0.044 C 
ATOM      7  C   UNL     1      34.533 -22.744 -15.210  0.00  0.00    -0.008 C 
ENDROOT
BRANCH   7   8
ATOM      8  C   UNL     1      34.799 -22.224 -16.578  0.00  0.00    -0.000 C 
ATOM      9  C   UNL     1      36.001 -21.597 -16.827  0.00  0.00    +0.003 C 
ATOM     10  C   UNL     1      33.835 -22.384 -17.550  0.00  0.00    +0.003 C 
ATOM     11  C   UNL     1      36.251 -21.109 -18.110  0.00  0.00    +0.038 C 
ATOM     12  C   UNL     1      34.083 -21.896 -18.832  0.00  0.00    +0.038 C 
ATOM     13  C   UNL     1      35.293 -21.258 -19.112  0.00  0.00    +0.148 C 
BRANCH  13  14
ATOM     14  O   UNL     1      35.535 -20.781 -20.364  0.00  0.00    -0.424 OA
BRANCH  14  16
ATOM     15  O   UNL     1      36.426 -18.623 -20.188  0.00  0.00    -0.250 OA
ATOM     16  C   UNL     1      35.503 -19.379 -20.460  0.00  0.00    +0.322 C 
ATOM     17  C   UNL     1      34.159 -18.929 -20.947  0.00  0.00    +0.122 C 
ENDBRANCH  14  16
ENDBRANCH  13  14
ENDBRANCH   7   8
BRANCH   7  18
ATOM     18  C   UNL     1      33.169 -23.063 -14.708  0.00  0.00    -0.000 C 
ATOM     19  C   UNL     1      32.240 -22.049 -14.621  0.00  0.00    +0.003 C 
ATOM     20  C   UNL     1      32.882 -24.362 -14.347  0.00  0.00    +0.003 C 
ATOM     21  C   UNL     1      30.961 -22.348 -14.150  0.00  0.00    +0.038 C 
ATOM     22  C   UNL     1      31.603 -24.660 -13.876  0.00  0.00    +0.038 C 
ATOM     23  C   UNL     1      30.643 -23.653 -13.778  0.00  0.00    +0.148 C 
BRANCH  23  24
ATOM     24  O   UNL     1      29.396 -23.945 -13.318  0.00  0.00    -0.424 OA
BRANCH  24  26
ATOM     25  O   UNL     1      28.256 -25.847 -14.068  0.00  0.00    -0.250 OA
ATOM     26  C   UNL     1      28.611 -24.685 -14.217  0.00  0.00    +0.322 C 
ATOM     27  C   UNL     1      28.262 -23.843 -15.409  0.00  0.00    +0.122 C 
ENDBRANCH  24  26
ENDBRANCH  23  24
ENDBRANCH   7  18
TORSDOF 6
ENDMDL
MODEL 7
REMARK VINA RESULT:      -9.5     11.791     17.295
REMARK  Name = 2898
REMARK  6 active torsions:
REMARK  status: ('A' for Active; 'I' for Inactive)
REMARK    1  A    between atoms: C_7  and  C_8
REMARK    2  A    between atoms: C_7  and  C_18
REMARK    3  A    between atoms: C_13  and  O_14
REMARK    4  A    between atoms: O_14  and  C_16
REMARK    5  A    between atoms: C_23  and  O_24
REMARK    6  A    between atoms: O_24  and  C_26
REMARK                            x       y       z     vdW  Elec       q    Type
REMARK                         _______ _______ _______ _____ _____    ______ ____
ROOT
ATOM      1  C   UNL     1      31.243  -5.639 -19.542  0.00  0.00    +0.001 C 
ATOM      2  C   UNL     1      31.398  -4.949 -20.899  0.00  0.00    +0.004 C 
ATOM      3  C   UNL     1      31.188  -7.160 -19.688  0.00  0.00    +0.004 C 
ATOM      4  C   UNL     1      32.606  -5.479 -21.672  0.00  0.00    +0.022 C 
ATOM      5  C   UNL     1      32.394  -7.702 -20.456  0.00  0.00    +0.022 C 
ATOM      6  C   UNL     1      32.560  -6.982 -21.769  0.00  0.00    -0.044 C 
ATOM      7  C   UNL     1      32.639  -7.630 -22.939  0.00  0.00    -0.008 C 
ENDROOT
BRANCH   7   8
ATOM      8  C   UNL     1      32.584  -9.117 -22.929  0.00  0.00    -0.000 C 
ATOM      9  C   UNL     1      33.584  -9.822 -23.565  0.00  0.00    +0.003 C 
ATOM     10  C   UNL     1      31.535  -9.740 -22.287  0.00  0.00    +0.003 C 
ATOM     11  C   UNL     1      33.533 -11.216 -23.556  0.00  0.00    +0.038 C 
ATOM     12  C   UNL     1      31.483 -11.133 -22.278  0.00  0.00    +0.038 C 
ATOM     13  C   UNL     1      32.483 -11.872 -22.913  0.00  0.00    +0.148 C 
BRANCH  13  14
ATOM     14  O   UNL     1      32.432 -13.232 -22.905  0.00  0.00    -0.424 OA
BRANCH  14  16
ATOM     15  O   UNL     1      34.460 -14.388 -23.074  0.00  0.00    -0.250 OA
ATOM     16  C   UNL     1      33.591 -13.847 -22.404  0.00  0.00    +0.322 C 
ATOM     17  C   UNL     1      33.618 -13.749 -20.908  0.00  0.00    +0.122 C 
ENDBRANCH  14  16
ENDBRANCH  13  14
ENDBRANCH   7   8
BRANCH   7  18
ATOM     18  C   UNL     1      32.775  -6.826 -24.184  0.00  0.00    -0.000 C 
ATOM     19  C   UNL     1      34.028  -6.393 -24.561  0.00  0.00    +0.003 C 
ATOM     20  C   UNL     1      31.643  -6.543 -24.919  0.00  0.00    +0.003 C 
ATOM     21  C   UNL     1      34.156  -5.639 -25.728  0.00  0.00    +0.038 C 
ATOM     22  C   UNL     1      31.771  -5.789 -26.085  0.00  0.00    +0.038 C 
ATOM     23  C   UNL     1      33.027  -5.337 -26.490  0.00  0.00    +0.148 C 
BRANCH  23  24
ATOM     24  O   UNL     1      33.152  -4.602 -27.628  0.00  0.00    -0.424 OA
BRANCH  24  26
ATOM     25  O   UNL     1      32.836  -6.144 -29.360  0.00  0.00    -0.250 OA
ATOM     26  C   UNL     1      33.539  -5.347 -28.754  0.00  0.00    +0.322 C 
ATOM     27  C   UNL     1      34.959  -5.028 -29.118  0.00  0.00    +0.122 C 
ENDBRANCH  24  26
ENDBRANCH  23  24
ENDBRANCH   7  18
TORSDOF 6
ENDMDL
MODEL 8
REMARK VINA RESULT:      -9.4     11.133     17.579
REMARK  Name = 2898
REMARK  6 active torsions:
REMARK  status: ('A' for Active; 'I' for Inactive)
REMARK    1  A    between atoms: C_7  and  C_8
REMARK    2  A    between atoms: C_7  and  C_18
REMARK    3  A    between atoms: C_13  and  O_14
REMARK    4  A    between atoms: O_14  and  C_16
REMARK    5  A    between atoms: C_23  and  O_24
REMARK    6  A    between atoms: O_24  and  C_26
REMARK                            x       y       z     vdW  Elec       q    Type
REMARK                         _______ _______ _______ _____ _____    ______ ____
ROOT
ATOM      1  C   UNL     1      31.506  -7.156 -18.731  0.00  0.00    +0.001 C 
ATOM      2  C   UNL     1      31.776  -8.626 -19.055  0.00  0.00    +0.004 C 
ATOM      3  C   UNL     1      31.881  -6.245 -19.900  0.00  0.00    +0.004 C 
ATOM      4  C   UNL     1      31.083  -9.061 -20.347  0.00  0.00    +0.022 C 
ATOM      5  C   UNL     1      31.189  -6.667 -21.196  0.00  0.00    +0.022 C 
ATOM      6  C   UNL     1      31.427  -8.127 -21.478  0.00  0.00    -0.044 C 
ATOM      7  C   UNL     1      31.929  -8.563 -22.642  0.00  0.00    -0.008 C 
ENDROOT
BRANCH   7   8
ATOM      8  C   UNL     1      32.237  -7.560 -23.698  0.00  0.00    -0.000 C 
ATOM      9  C   UNL     1      33.499  -7.005 -23.737  0.00  0.00    +0.003 C 
ATOM     10  C   UNL     1      31.253  -7.219 -24.600  0.00  0.00    +0.003 C 
ATOM     11  C   UNL     1      33.788  -6.065 -24.726  0.00  0.00    +0.038 C 
ATOM     12  C   UNL     1      31.541  -6.279 -25.589  0.00  0.00    +0.038 C 
ATOM     13  C   UNL     1      32.810  -5.702 -25.652  0.00  0.00    +0.148 C 
BRANCH  13  14
ATOM     14  O   UNL     1      33.092  -4.784 -26.617  0.00  0.00    -0.424 OA
BRANCH  14  16
ATOM     15  O   UNL     1      33.032  -5.941 -28.650  0.00  0.00    -0.250 OA
ATOM     16  C   UNL     1      33.646  -5.332 -27.785  0.00  0.00    +0.322 C 
ATOM     17  C   UNL     1      35.121  -5.065 -27.827  0.00  0.00    +0.122 C 
ENDBRANCH  14  16
ENDBRANCH  13  14
ENDBRANCH   7   8
BRANCH   7  18
ATOM     18  C   UNL     1      32.152 -10.024 -22.813  0.00  0.00    -0.000 C 
ATOM     19  C   UNL     1      33.185 -10.448 -23.621  0.00  0.00    +0.003 C 
ATOM     20  C   UNL     1      31.318 -10.903 -22.157  0.00  0.00    +0.003 C 
ATOM     21  C   UNL     1      33.394 -11.818 -23.782  0.00  0.00    +0.038 C 
ATOM     22  C   UNL     1      31.527 -12.274 -22.318  0.00  0.00    +0.038 C 
ATOM     23  C   UNL     1      32.564 -12.730 -23.130  0.00  0.00    +0.148 C 
BRANCH  23  24
ATOM     24  O   UNL     1      32.768 -14.067 -23.287  0.00  0.00    -0.424 OA
BRANCH  24  26
ATOM     25  O   UNL     1      34.911 -15.008 -23.271  0.00  0.00    -0.250 OA
ATOM     26  C   UNL     1      33.943 -14.543 -22.684  0.00  0.00    +0.322 C 
ATOM     27  C   UNL     1      33.849 -14.405 -21.193  0.00  0.00    +0.122 C 
ENDBRANCH  24  26
ENDBRANCH  23  24
ENDBRANCH   7  18
TORSDOF 6
ENDMDL
MODEL 9
REMARK VINA RESULT:      -9.2      1.564      2.333
REMARK  Name = 2898
REMARK  6 active torsions:
REMARK  status: ('A' for Active; 'I' for Inactive)
REMARK    1  A    between atoms: C_7  and  C_8
REMARK    2  A    between atoms: C_7  and  C_18
REMARK    3  A    between atoms: C_13  and  O_14
REMARK    4  A    between atoms: O_14  and  C_16
REMARK    5  A    between atoms: C_23  and  O_24
REMARK    6  A    between atoms: O_24  and  C_26
REMARK                            x       y       z     vdW  Elec       q    Type
REMARK                         _______ _______ _______ _____ _____    ______ ____
ROOT
ATOM      1  C   UNL     1      29.870 -23.607 -15.350  0.00  0.00    +0.001 C 
ATOM      2  C   UNL     1      30.298 -23.059 -16.713  0.00  0.00    +0.004 C 
ATOM      3  C   UNL     1      31.066 -24.132 -14.555  0.00  0.00    +0.004 C 
ATOM      4  C   UNL     1      31.392 -21.998 -16.582  0.00  0.00    +0.022 C 
ATOM      5  C   UNL     1      32.163 -23.076 -14.413  0.00  0.00    +0.022 C 
ATOM      6  C   UNL     1      32.542 -22.515 -15.759  0.00  0.00    -0.044 C 
ATOM      7  C   UNL     1      33.807 -22.497 -16.200  0.00  0.00    -0.008 C 
ENDROOT
BRANCH   7   8
ATOM      8  C   UNL     1      34.874 -23.032 -15.311  0.00  0.00    -0.000 C 
ATOM      9  C   UNL     1      35.097 -24.392 -15.288  0.00  0.00    +0.003 C 
ATOM     10  C   UNL     1      35.602 -22.151 -14.540  0.00  0.00    +0.003 C 
ATOM     11  C   UNL     1      36.097 -24.895 -14.455  0.00  0.00    +0.038 C 
ATOM     12  C   UNL     1      36.600 -22.652 -13.706  0.00  0.00    +0.038 C 
ATOM     13  C   UNL     1      36.848 -24.025 -13.664  0.00  0.00    +0.148 C 
BRANCH  13  14
ATOM     14  O   UNL     1      37.823 -24.515 -12.849  0.00  0.00    -0.424 OA
BRANCH  14  16
ATOM     15  O   UNL     1      37.353 -26.289 -11.397  0.00  0.00    -0.250 OA
ATOM     16  C   UNL     1      37.343 -25.095 -11.664  0.00  0.00    +0.322 C 
ATOM     17  C   UNL     1      36.804 -24.031 -10.755  0.00  0.00    +0.122 C 
ENDBRANCH  14  16
ENDBRANCH  13  14
ENDBRANCH   7   8
BRANCH   7  18
ATOM     18  C   UNL     1      34.075 -21.945 -17.556  0.00  0.00    -0.000 C 
ATOM     19  C   UNL     1      33.011 -21.715 -18.401  0.00  0.00    +0.003 C 
ATOM     20  C   UNL     1      35.379 -21.681 -17.919  0.00  0.00    +0.003 C 
ATOM     21  C   UNL     1      33.262 -21.198 -19.672  0.00  0.00    +0.038 C 
ATOM     22  C   UNL     1      35.629 -21.164 -19.191  0.00  0.00    +0.038 C 
ATOM     23  C   UNL     1      34.571 -20.922 -20.066  0.00  0.00    +0.148 C 
BRANCH  23  24
ATOM     24  O   UNL     1      34.816 -20.417 -21.306  0.00  0.00    -0.424 OA
BRANCH  24  26
ATOM     25  O   UNL     1      34.374 -18.264 -20.502  0.00  0.00    -0.250 OA
ATOM     26  C   UNL     1      34.557 -19.043 -21.429  0.00  0.00    +0.322 C 
ATOM     27  C   UNL     1      34.530 -18.651 -22.876  0.00  0.00    +0.122 C 
ENDBRANCH  24  26
ENDBRANCH  23  24
ENDBRANCH   7  18
TORSDOF 6
ENDMDL
