MODEL 1
REMARK VINA RESULT:     -12.9      0.000      0.000
REMARK  Name = 9549257
REMARK  5 active torsions:
REMARK  status: ('A' for Active; 'I' for Inactive)
REMARK    1  A    between atoms: N_1  and  C_5
REMARK    2  A    between atoms: N_1  and  S_19
REMARK    3  A    between atoms: N_4  and  C_9
REMARK    4  A    between atoms: C_9  and  C_14
REMARK    5  A    between atoms: S_19  and  C_24
REMARK                            x       y       z     vdW  Elec       q    Type
REMARK                         _______ _______ _______ _____ _____    ______ ____
ROOT
ATOM      1  N   UNL     1      34.013 -16.894 -22.146  0.00  0.00    -0.171 NA
ATOM      2  H   UNL     1      33.849 -16.813 -21.143  0.00  0.00    +0.149 HD
ENDROOT
BRANCH   1   5
ATOM      3  O   UNL     1      34.155 -14.247 -20.669  0.00  0.00    -0.273 OA
ATOM      4  N   UNL     1      33.076 -13.920 -22.734  0.00  0.00    -0.272 N 
ATOM      5  C   UNL     1      34.649 -15.642 -22.589  0.00  0.00    +0.153 C 
ATOM      6  C   UNL     1      34.345 -15.352 -24.055  0.00  0.00    +0.048 C 
ATOM      7  C   UNL     1      33.043 -14.573 -24.022  0.00  0.00    +0.096 C 
ATOM      8  C   UNL     1      33.968 -14.519 -21.846  0.00  0.00    +0.242 C 
BRANCH   4   9
ATOM      9  C   UNL     1      32.145 -12.865 -22.399  0.00  0.00    +0.152 C 
ATOM     10  C   UNL     1      31.926 -12.744 -20.910  0.00  0.00    +0.031 C 
BRANCH   9  14
ATOM     11  O   UNL     1      30.706  -8.026 -22.437  0.00  0.00    -0.350 OA
ATOM     12  O   UNL     1      33.749 -11.711 -23.708  0.00  0.00    -0.273 OA
ATOM     13  N   UNL     1      32.212 -10.403 -22.559  0.00  0.00    -0.273 N 
ATOM     14  C   UNL     1      32.780 -11.614 -22.950  0.00  0.00    +0.244 C 
ATOM     15  C   UNL     1      31.146 -10.246 -21.565  0.00  0.00    +0.126 C 
ATOM     16  C   UNL     1      32.765  -9.142 -23.052  0.00  0.00    +0.126 C 
ATOM     17  C   UNL     1      30.095  -9.266 -22.069  0.00  0.00    +0.164 C 
ATOM     18  C   UNL     1      31.647  -8.212 -23.498  0.00  0.00    +0.164 C 
ENDBRANCH   9  14
ENDBRANCH   4   9
ENDBRANCH   1   5
BRANCH   1  19
ATOM     19  S   UNL     1      34.857 -18.365 -22.406  0.00  0.00    +0.073 S 
ATOM     20  O   UNL     1      36.282 -18.126 -22.285  0.00  0.00    -0.152 OA
ATOM     21  O   UNL     1      34.300 -19.032 -23.567  0.00  0.00    -0.152 OA
BRANCH  19  24
ATOM     22 CL   UNL     1      32.274 -23.191 -16.553  0.00  0.00    -0.082 Cl
ATOM     23  N   UNL     1      35.420 -19.931 -20.242  0.00  0.00    -0.297 N 
ATOM     24  C   UNL     1      34.439 -19.459 -21.050  0.00  0.00    +0.173 C 
ATOM     25  C   UNL     1      33.237 -19.943 -20.639  0.00  0.00    +0.036 C 
ATOM     26  C   UNL     1      33.487 -20.769 -19.508  0.00  0.00    +0.017 C 
ATOM     27  C   UNL     1      34.865 -20.743 -19.280  0.00  0.00    +0.049 C 
ATOM     28  C   UNL     1      32.672 -21.535 -18.652  0.00  0.00    +0.013 C 
ATOM     29  C   UNL     1      35.470 -21.451 -18.236  0.00  0.00    +0.015 C 
ATOM     30  C   UNL     1      33.264 -22.249 -17.604  0.00  0.00    +0.058 C 
ATOM     31  C   UNL     1      34.642 -22.206 -17.400  0.00  0.00    +0.013 C 
ATOM     32  H   UNL     1      36.379 -19.727 -20.331  0.00  0.00    +0.153 HD
ENDBRANCH  19  24
ENDBRANCH   1  19
TORSDOF 5
ENDMDL
MODEL 2
REMARK VINA RESULT:     -12.7      4.357     10.672
REMARK  Name = 9549257
REMARK  5 active torsions:
REMARK  status: ('A' for Active; 'I' for Inactive)
REMARK    1  A    between atoms: N_1  and  C_5
REMARK    2  A    between atoms: N_1  and  S_19
REMARK    3  A    between atoms: N_4  and  C_9
REMARK    4  A    between atoms: C_9  and  C_14
REMARK    5  A    between atoms: S_19  and  C_24
REMARK                            x       y       z     vdW  Elec       q    Type
REMARK                         _______ _______ _______ _____ _____    ______ ____
ROOT
ATOM      1  N   UNL     1      34.389 -19.359 -20.258  0.00  0.00    -0.171 NA
ATOM      2  H   UNL     1      33.463 -19.074 -20.575  0.00  0.00    +0.149 HD
ENDROOT
BRANCH   1   5
ATOM      3  O   UNL     1      32.089 -21.250 -19.673  0.00  0.00    -0.273 OA
ATOM      4  N   UNL     1      33.814 -21.629 -18.118  0.00  0.00    -0.272 N 
ATOM      5  C   UNL     1      34.411 -20.831 -20.231  0.00  0.00    +0.153 C 
ATOM      6  C   UNL     1      35.652 -21.356 -19.517  0.00  0.00    +0.048 C 
ATOM      7  C   UNL     1      35.243 -21.425 -18.057  0.00  0.00    +0.096 C 
ATOM      8  C   UNL     1      33.268 -21.269 -19.349  0.00  0.00    +0.242 C 
BRANCH   4   9
ATOM      9  C   UNL     1      33.056 -22.014 -16.948  0.00  0.00    +0.152 C 
ATOM     10  C   UNL     1      31.569 -22.037 -17.209  0.00  0.00    +0.031 C 
BRANCH   9  14
ATOM     11  O   UNL     1      36.557 -23.679 -13.713  0.00  0.00    -0.350 OA
ATOM     12  O   UNL     1      33.251 -24.345 -17.329  0.00  0.00    -0.273 OA
ATOM     13  N   UNL     1      34.369 -23.500 -15.478  0.00  0.00    -0.273 N 
ATOM     14  C   UNL     1      33.562 -23.393 -16.608  0.00  0.00    +0.244 C 
ATOM     15  C   UNL     1      34.654 -22.417 -14.531  0.00  0.00    +0.126 C 
ATOM     16  C   UNL     1      34.906 -24.802 -15.082  0.00  0.00    +0.126 C 
ATOM     17  C   UNL     1      36.137 -22.396 -14.185  0.00  0.00    +0.164 C 
ATOM     18  C   UNL     1      36.378 -24.680 -14.718  0.00  0.00    +0.164 C 
ENDBRANCH   9  14
ENDBRANCH   4   9
ENDBRANCH   1   5
BRANCH   1  19
ATOM     19  S   UNL     1      35.536 -18.552 -21.246  0.00  0.00    +0.073 S 
ATOM     20  O   UNL     1      35.613 -19.218 -22.531  0.00  0.00    -0.152 OA
ATOM     21  O   UNL     1      36.727 -18.280 -20.464  0.00  0.00    -0.152 OA
BRANCH  19  24
ATOM     22 CL   UNL     1      32.767 -11.380 -23.509  0.00  0.00    -0.082 Cl
ATOM     23  N   UNL     1      34.386 -16.168 -20.578  0.00  0.00    -0.297 N 
ATOM     24  C   UNL     1      34.878 -16.921 -21.592  0.00  0.00    +0.173 C 
ATOM     25  C   UNL     1      34.769 -16.238 -22.763  0.00  0.00    +0.036 C 
ATOM     26  C   UNL     1      34.172 -14.984 -22.457  0.00  0.00    +0.017 C 
ATOM     27  C   UNL     1      33.942 -14.965 -21.079  0.00  0.00    +0.049 C 
ATOM     28  C   UNL     1      33.805 -13.859 -23.221  0.00  0.00    +0.013 C 
ATOM     29  C   UNL     1      33.359 -13.874 -20.426  0.00  0.00    +0.015 C 
ATOM     30  C   UNL     1      33.220 -12.760 -22.582  0.00  0.00    +0.058 C 
ATOM     31  C   UNL     1      33.003 -12.769 -21.205  0.00  0.00    +0.013 C 
ATOM     32  H   UNL     1      34.350 -16.438 -19.632  0.00  0.00    +0.153 HD
ENDBRANCH  19  24
ENDBRANCH   1  19
TORSDOF 5
ENDMDL
MODEL 3
REMARK VINA RESULT:     -12.6      6.839     12.297
REMARK  Name = 9549257
REMARK  5 active torsions:
REMARK  status: ('A' for Active; 'I' for Inactive)
REMARK    1  A    between atoms: N_1  and  C_5
REMARK    2  A    between atoms: N_1  and  S_19
REMARK    3  A    between atoms: N_4  and  C_9
REMARK    4  A    between atoms: C_9  and  C_14
REMARK    5  A    between atoms: S_19  and  C_24
REMARK                            x       y       z     vdW  Elec       q    Type
REMARK                         _______ _______ _______ _____ _____    ______ ____
ROOT
ATOM      1  N   UNL     1      34.242 -22.819 -17.128  0.00  0.00    -0.171 NA
ATOM      2  H   UNL     1      35.163 -22.539 -17.465  0.00  0.00    +0.149 HD
ENDROOT
BRANCH   1   5
ATOM      3  O   UNL     1      36.283 -21.780 -15.137  0.00  0.00    -0.273 OA
ATOM      4  N   UNL     1      34.833 -23.278 -14.045  0.00  0.00    -0.272 N 
ATOM      5  C   UNL     1      33.994 -22.090 -15.873  0.00  0.00    +0.153 C 
ATOM      6  C   UNL     1      32.838 -22.705 -15.092  0.00  0.00    +0.048 C 
ATOM      7  C   UNL     1      33.490 -23.775 -14.236  0.00  0.00    +0.096 C 
ATOM      8  C   UNL     1      35.195 -22.319 -14.990  0.00  0.00    +0.242 C 
BRANCH   4   9
ATOM      9  C   UNL     1      35.723 -23.864 -13.066  0.00  0.00    +0.152 C 
ATOM     10  C   UNL     1      34.986 -24.360 -11.845  0.00  0.00    +0.031 C 
BRANCH   9  14
ATOM     11  O   UNL     1      40.553 -24.990 -14.013  0.00  0.00    -0.350 OA
ATOM     12  O   UNL     1      35.691 -25.770 -14.476  0.00  0.00    -0.273 OA
ATOM     13  N   UNL     1      37.763 -25.126 -13.647  0.00  0.00    -0.273 N 
ATOM     14  C   UNL     1      36.382 -25.008 -13.794  0.00  0.00    +0.244 C 
ATOM     15  C   UNL     1      38.594 -24.319 -12.749  0.00  0.00    +0.126 C 
ATOM     16  C   UNL     1      38.481 -26.205 -14.325  0.00  0.00    +0.126 C 
ATOM     17  C   UNL     1      39.859 -23.865 -13.466  0.00  0.00    +0.164 C 
ATOM     18  C   UNL     1      39.746 -25.670 -14.979  0.00  0.00    +0.164 C 
ENDBRANCH   9  14
ENDBRANCH   4   9
ENDBRANCH   1   5
BRANCH   1  19
ATOM     19  S   UNL     1      33.138 -22.599 -18.423  0.00  0.00    +0.073 S 
ATOM     20  O   UNL     1      31.853 -22.191 -17.891  0.00  0.00    -0.152 OA
ATOM     21  O   UNL     1      33.255 -23.716 -19.341  0.00  0.00    -0.152 OA
BRANCH  19  24
ATOM     22 CL   UNL     1      35.039 -16.213 -22.876  0.00  0.00    -0.082 Cl
ATOM     23  N   UNL     1      35.054 -20.955 -19.463  0.00  0.00    -0.297 N 
ATOM     24  C   UNL     1      33.723 -21.203 -19.382  0.00  0.00    +0.173 C 
ATOM     25  C   UNL     1      33.041 -20.273 -20.102  0.00  0.00    +0.036 C 
ATOM     26  C   UNL     1      34.007 -19.393 -20.664  0.00  0.00    +0.017 C 
ATOM     27  C   UNL     1      35.262 -19.843 -20.247  0.00  0.00    +0.049 C 
ATOM     28  C   UNL     1      33.935 -18.254 -21.489  0.00  0.00    +0.013 C 
ATOM     29  C   UNL     1      36.453 -19.208 -20.616  0.00  0.00    +0.015 C 
ATOM     30  C   UNL     1      35.118 -17.607 -21.866  0.00  0.00    +0.058 C 
ATOM     31  C   UNL     1      36.357 -18.079 -21.436  0.00  0.00    +0.013 C 
ATOM     32  H   UNL     1      35.760 -21.486 -19.028  0.00  0.00    +0.153 HD
ENDBRANCH  19  24
ENDBRANCH   1  19
TORSDOF 5
ENDMDL
MODEL 4
REMARK VINA RESULT:     -12.2      6.746     12.211
REMARK  Name = 9549257
REMARK  5 active torsions:
REMARK  status: ('A' for Active; 'I' for Inactive)
REMARK    1  A    between atoms: N_1  and  C_5
REMARK    2  A    between atoms: N_1  and  S_19
REMARK    3  A    between atoms: N_4  and  C_9
REMARK    4  A    between atoms: C_9  and  C_14
REMARK    5  A    between atoms: S_19  and  C_24
REMARK                            x       y       z     vdW  Elec       q    Type
REMARK                         _______ _______ _______ _____ _____    ______ ____
ROOT
ATOM      1  N   UNL     1      35.112 -22.428 -17.176  0.00  0.00    -0.171 NA
ATOM      2  H   UNL     1      35.692 -21.608 -17.350  0.00  0.00    +0.149 HD
ENDROOT
BRANCH   1   5
ATOM      3  O   UNL     1      37.204 -21.969 -15.026  0.00  0.00    -0.273 OA
ATOM      4  N   UNL     1      36.402 -24.175 -14.863  0.00  0.00    -0.272 N 
ATOM      5  C   UNL     1      34.955 -22.552 -15.717  0.00  0.00    +0.153 C 
ATOM      6  C   UNL     1      34.159 -23.799 -15.348  0.00  0.00    +0.048 C 
ATOM      7  C   UNL     1      35.206 -24.893 -15.237  0.00  0.00    +0.096 C 
ATOM      8  C   UNL     1      36.328 -22.813 -15.150  0.00  0.00    +0.242 C 
BRANCH   4   9
ATOM      9  C   UNL     1      37.583 -24.868 -14.396  0.00  0.00    +0.152 C 
ATOM     10  C   UNL     1      38.745 -24.730 -15.351  0.00  0.00    +0.031 C 
BRANCH   9  14
ATOM     11  O   UNL     1      34.740 -23.698 -10.391  0.00  0.00    -0.350 OA
ATOM     12  O   UNL     1      38.995 -23.678 -12.910  0.00  0.00    -0.273 OA
ATOM     13  N   UNL     1      36.905 -24.279 -12.097  0.00  0.00    -0.273 N 
ATOM     14  C   UNL     1      37.900 -24.221 -13.072  0.00  0.00    +0.244 C 
ATOM     15  C   UNL     1      35.646 -25.022 -12.210  0.00  0.00    +0.126 C 
ATOM     16  C   UNL     1      37.129 -23.671 -10.786  0.00  0.00    +0.126 C 
ATOM     17  C   UNL     1      34.484 -24.171 -11.717  0.00  0.00    +0.164 C 
ATOM     18  C   UNL     1      35.908 -22.873 -10.356  0.00  0.00    +0.164 C 
ENDBRANCH   9  14
ENDBRANCH   4   9
ENDBRANCH   1   5
BRANCH   1  19
ATOM     19  S   UNL     1      33.697 -22.262 -18.130  0.00  0.00    +0.073 S 
ATOM     20  O   UNL     1      32.625 -21.737 -17.308  0.00  0.00    -0.152 OA
ATOM     21  O   UNL     1      33.518 -23.461 -18.926  0.00  0.00    -0.152 OA
BRANCH  19  24
ATOM     22 CL   UNL     1      34.467 -16.627 -23.777  0.00  0.00    -0.082 Cl
ATOM     23  N   UNL     1      35.285 -20.494 -19.474  0.00  0.00    -0.297 N 
ATOM     24  C   UNL     1      34.030 -20.992 -19.350  0.00  0.00    +0.173 C 
ATOM     25  C   UNL     1      33.207 -20.386 -20.247  0.00  0.00    +0.036 C 
ATOM     26  C   UNL     1      34.000 -19.452 -20.971  0.00  0.00    +0.017 C 
ATOM     27  C   UNL     1      35.300 -19.541 -20.466  0.00  0.00    +0.049 C 
ATOM     28  C   UNL     1      33.737 -18.539 -22.010  0.00  0.00    +0.013 C 
ATOM     29  C   UNL     1      36.352 -18.757 -20.951  0.00  0.00    +0.015 C 
ATOM     30  C   UNL     1      34.780 -17.748 -22.505  0.00  0.00    +0.058 C 
ATOM     31  C   UNL     1      36.067 -17.858 -21.983  0.00  0.00    +0.013 C 
ATOM     32  H   UNL     1      36.063 -20.770 -18.937  0.00  0.00    +0.153 HD
ENDBRANCH  19  24
ENDBRANCH   1  19
TORSDOF 5
ENDMDL
MODEL 5
REMARK VINA RESULT:     -11.9      3.891      6.705
REMARK  Name = 9549257
REMARK  5 active torsions:
REMARK  status: ('A' for Active; 'I' for Inactive)
REMARK    1  A    between atoms: N_1  and  C_5
REMARK    2  A    between atoms: N_1  and  S_19
REMARK    3  A    between atoms: N_4  and  C_9
REMARK    4  A    between atoms: C_9  and  C_14
REMARK    5  A    between atoms: S_19  and  C_24
REMARK                            x       y       z     vdW  Elec       q    Type
REMARK                         _______ _______ _______ _____ _____    ______ ____
ROOT
ATOM      1  N   UNL     1      33.487 -21.442 -18.180  0.00  0.00    -0.171 NA
ATOM      2  H   UNL     1      34.448 -21.368 -17.848  0.00  0.00    +0.149 HD
ENDROOT
BRANCH   1   5
ATOM      3  O   UNL     1      35.874 -20.991 -19.999  0.00  0.00    -0.273 OA
ATOM      4  N   UNL     1      34.166 -19.480 -20.580  0.00  0.00    -0.272 N 
ATOM      5  C   UNL     1      33.536 -21.529 -19.649  0.00  0.00    +0.153 C 
ATOM      6  C   UNL     1      32.321 -20.865 -20.287  0.00  0.00    +0.048 C 
ATOM      7  C   UNL     1      32.729 -19.412 -20.450  0.00  0.00    +0.096 C 
ATOM      8  C   UNL     1      34.697 -20.676 -20.099  0.00  0.00    +0.242 C 
BRANCH   4   9
ATOM      9  C   UNL     1      34.939 -18.339 -21.017  0.00  0.00    +0.152 C 
ATOM     10  C   UNL     1      36.423 -18.545 -20.831  0.00  0.00    +0.031 C 
BRANCH   9  14
ATOM     11  O   UNL     1      33.439 -14.404 -23.803  0.00  0.00    -0.350 OA
ATOM     12  O   UNL     1      34.456 -19.202 -23.172  0.00  0.00    -0.273 OA
ATOM     13  N   UNL     1      34.459 -16.890 -22.957  0.00  0.00    -0.273 N 
ATOM     14  C   UNL     1      34.598 -18.191 -22.479  0.00  0.00    +0.244 C 
ATOM     15  C   UNL     1      34.743 -15.669 -22.196  0.00  0.00    +0.126 C 
ATOM     16  C   UNL     1      34.123 -16.659 -24.362  0.00  0.00    +0.126 C 
ATOM     17  C   UNL     1      33.635 -14.646 -22.407  0.00  0.00    +0.164 C 
ATOM     18  C   UNL     1      33.039 -15.598 -24.480  0.00  0.00    +0.164 C 
ENDBRANCH   9  14
ENDBRANCH   4   9
ENDBRANCH   1   5
BRANCH   1  19
ATOM     19  S   UNL     1      32.747 -22.727 -17.319  0.00  0.00    +0.073 S 
ATOM     20  O   UNL     1      32.998 -23.975 -18.013  0.00  0.00    -0.152 OA
ATOM     21  O   UNL     1      31.404 -22.332 -16.938  0.00  0.00    -0.152 OA
BRANCH  19  24
ATOM     22 CL   UNL     1      35.923 -23.574 -10.009  0.00  0.00    -0.082 Cl
ATOM     23  N   UNL     1      34.931 -22.601 -15.684  0.00  0.00    -0.297 N 
ATOM     24  C   UNL     1      33.604 -22.872 -15.751  0.00  0.00    +0.173 C 
ATOM     25  C   UNL     1      33.148 -23.227 -14.520  0.00  0.00    +0.036 C 
ATOM     26  C   UNL     1      34.260 -23.174 -13.635  0.00  0.00    +0.017 C 
ATOM     27  C   UNL     1      35.366 -22.777 -14.391  0.00  0.00    +0.049 C 
ATOM     28  C   UNL     1      34.432 -23.423 -12.260  0.00  0.00    +0.013 C 
ATOM     29  C   UNL     1      36.641 -22.619 -13.837  0.00  0.00    +0.015 C 
ATOM     30  C   UNL     1      35.702 -23.270 -11.692  0.00  0.00    +0.058 C 
ATOM     31  C   UNL     1      36.788 -22.872 -12.469  0.00  0.00    +0.013 C 
ATOM     32  H   UNL     1      35.494 -22.322 -16.442  0.00  0.00    +0.153 HD
ENDBRANCH  19  24
ENDBRANCH   1  19
TORSDOF 5
ENDMDL
MODEL 6
REMARK VINA RESULT:     -11.7      4.180      6.455
REMARK  Name = 9549257
REMARK  5 active torsions:
REMARK  status: ('A' for Active; 'I' for Inactive)
REMARK    1  A    between atoms: N_1  and  C_5
REMARK    2  A    between atoms: N_1  and  S_19
REMARK    3  A    between atoms: N_4  and  C_9
REMARK    4  A    between atoms: C_9  and  C_14
REMARK    5  A    between atoms: S_19  and  C_24
REMARK                            x       y       z     vdW  Elec       q    Type
REMARK                         _______ _______ _______ _____ _____    ______ ____
ROOT
ATOM      1  N   UNL     1      32.517 -10.754 -21.897  0.00  0.00    -0.171 NA
ATOM      2  H   UNL     1      33.169  -9.979 -21.781  0.00  0.00    +0.149 HD
ENDROOT
BRANCH   1   5
ATOM      3  O   UNL     1      31.174  -8.605 -23.567  0.00  0.00    -0.273 OA
ATOM      4  N   UNL     1      31.229  -7.912 -21.319  0.00  0.00    -0.272 N 
ATOM      5  C   UNL     1      31.157 -10.208 -21.748  0.00  0.00    +0.153 C 
ATOM      6  C   UNL     1      30.817  -9.954 -20.284  0.00  0.00    +0.048 C 
ATOM      7  C   UNL     1      31.314  -8.544 -20.023  0.00  0.00    +0.096 C 
ATOM      8  C   UNL     1      31.169  -8.831 -22.366  0.00  0.00    +0.242 C 
BRANCH   4   9
ATOM      9  C   UNL     1      31.360  -6.480 -21.471  0.00  0.00    +0.152 C 
ATOM     10  C   UNL     1      31.276  -5.752 -20.151  0.00  0.00    +0.031 C 
BRANCH   9  14
ATOM     11  O   UNL     1      32.828  -5.213 -26.133  0.00  0.00    -0.350 OA
ATOM     12  O   UNL     1      33.723  -6.668 -21.492  0.00  0.00    -0.273 OA
ATOM     13  N   UNL     1      32.743  -5.694 -23.359  0.00  0.00    -0.273 N 
ATOM     14  C   UNL     1      32.718  -6.292 -22.100  0.00  0.00    +0.244 C 
ATOM     15  C   UNL     1      31.585  -5.123 -24.052  0.00  0.00    +0.126 C 
ATOM     16  C   UNL     1      34.019  -5.480 -24.041  0.00  0.00    +0.126 C 
ATOM     17  C   UNL     1      31.583  -5.548 -25.515  0.00  0.00    +0.164 C 
ATOM     18  C   UNL     1      33.915  -5.895 -25.501  0.00  0.00    +0.164 C 
ENDBRANCH   9  14
ENDBRANCH   4   9
ENDBRANCH   1   5
BRANCH   1  19
ATOM     19  S   UNL     1      32.915 -11.539 -23.369  0.00  0.00    +0.073 S 
ATOM     20  O   UNL     1      34.078 -10.900 -23.952  0.00  0.00    -0.152 OA
ATOM     21  O   UNL     1      31.704 -11.748 -24.138  0.00  0.00    -0.152 OA
BRANCH  19  24
ATOM     22 CL   UNL     1      35.347 -18.733 -20.807  0.00  0.00    -0.082 Cl
ATOM     23  N   UNL     1      33.510 -14.145 -23.924  0.00  0.00    -0.297 N 
ATOM     24  C   UNL     1      33.442 -13.201 -22.953  0.00  0.00    +0.173 C 
ATOM     25  C   UNL     1      33.818 -13.741 -21.763  0.00  0.00    +0.036 C 
ATOM     26  C   UNL     1      34.137 -15.105 -22.010  0.00  0.00    +0.017 C 
ATOM     27  C   UNL     1      33.936 -15.333 -23.374  0.00  0.00    +0.049 C 
ATOM     28  C   UNL     1      34.581 -16.171 -21.203  0.00  0.00    +0.013 C 
ATOM     29  C   UNL     1      34.156 -16.578 -23.972  0.00  0.00    +0.015 C 
ATOM     30  C   UNL     1      34.805 -17.423 -21.787  0.00  0.00    +0.058 C 
ATOM     31  C   UNL     1      34.596 -17.621 -23.151  0.00  0.00    +0.013 C 
ATOM     32  H   UNL     1      33.288 -14.004 -24.873  0.00  0.00    +0.153 HD
ENDBRANCH  19  24
ENDBRANCH   1  19
TORSDOF 5
ENDMDL
MODEL 7
REMARK VINA RESULT:     -11.4      7.247     12.631
REMARK  Name = 9549257
REMARK  5 active torsions:
REMARK  status: ('A' for Active; 'I' for Inactive)
REMARK    1  A    between atoms: N_1  and  C_5
REMARK    2  A    between atoms: N_1  and  S_19
REMARK    3  A    between atoms: N_4  and  C_9
REMARK    4  A    between atoms: C_9  and  C_14
REMARK    5  A    between atoms: S_19  and  C_24
REMARK                            x       y       z     vdW  Elec       q    Type
REMARK                         _______ _______ _______ _____ _____    ______ ____
ROOT
ATOM      1  N   UNL     1      34.105 -23.357 -16.212  0.00  0.00    -0.171 NA
ATOM      2  H   UNL     1      35.048 -23.312 -16.596  0.00  0.00    +0.149 HD
ENDROOT
BRANCH   1   5
ATOM      3  O   UNL     1      36.440 -22.217 -14.644  0.00  0.00    -0.273 OA
ATOM      4  N   UNL     1      35.063 -23.452 -13.188  0.00  0.00    -0.272 N 
ATOM      5  C   UNL     1      34.061 -22.455 -15.049  0.00  0.00    +0.153 C 
ATOM      6  C   UNL     1      32.984 -22.878 -14.057  0.00  0.00    +0.048 C 
ATOM      7  C   UNL     1      33.681 -23.871 -13.146  0.00  0.00    +0.096 C 
ATOM      8  C   UNL     1      35.352 -22.652 -14.293  0.00  0.00    +0.242 C 
BRANCH   4   9
ATOM      9  C   UNL     1      36.038 -23.968 -12.252  0.00  0.00    +0.152 C 
ATOM     10  C   UNL     1      35.416 -24.358 -10.933  0.00  0.00    +0.031 C 
BRANCH   9  14
ATOM     11  O   UNL     1      40.499 -24.814 -14.460  0.00  0.00    -0.350 OA
ATOM     12  O   UNL     1      35.889 -26.120 -13.235  0.00  0.00    -0.273 OA
ATOM     13  N   UNL     1      37.989 -25.129 -13.220  0.00  0.00    -0.273 N 
ATOM     14  C   UNL     1      36.624 -25.172 -12.945  0.00  0.00    +0.244 C 
ATOM     15  C   UNL     1      38.912 -24.079 -12.779  0.00  0.00    +0.126 C 
ATOM     16  C   UNL     1      38.636 -26.254 -13.895  0.00  0.00    +0.126 C 
ATOM     17  C   UNL     1      39.831 -23.669 -13.923  0.00  0.00    +0.164 C 
ATOM     18  C   UNL     1      39.561 -25.753 -14.994  0.00  0.00    +0.164 C 
ENDBRANCH   9  14
ENDBRANCH   4   9
ENDBRANCH   1   5
BRANCH   1  19
ATOM     19  S   UNL     1      33.015 -23.064 -17.503  0.00  0.00    +0.073 S 
ATOM     20  O   UNL     1      31.826 -22.416 -16.988  0.00  0.00    -0.152 OA
ATOM     21  O   UNL     1      32.928 -24.253 -18.330  0.00  0.00    -0.152 OA
BRANCH  19  24
ATOM     22 CL   UNL     1      37.119 -17.855 -22.004  0.00  0.00    -0.082 Cl
ATOM     23  N   UNL     1      33.024 -21.143 -19.444  0.00  0.00    -0.297 N 
ATOM     24  C   UNL     1      33.788 -21.858 -18.581  0.00  0.00    +0.173 C 
ATOM     25  C   UNL     1      35.090 -21.489 -18.710  0.00  0.00    +0.036 C 
ATOM     26  C   UNL     1      35.138 -20.485 -19.716  0.00  0.00    +0.017 C 
ATOM     27  C   UNL     1      33.828 -20.286 -20.160  0.00  0.00    +0.049 C 
ATOM     28  C   UNL     1      36.172 -19.722 -20.293  0.00  0.00    +0.013 C 
ATOM     29  C   UNL     1      33.501 -19.360 -21.156  0.00  0.00    +0.015 C 
ATOM     30  C   UNL     1      35.860 -18.793 -21.292  0.00  0.00    +0.058 C 
ATOM     31  C   UNL     1      34.543 -18.615 -21.714  0.00  0.00    +0.013 C 
ATOM     32  H   UNL     1      32.048 -21.225 -19.543  0.00  0.00    +0.153 HD
ENDBRANCH  19  24
ENDBRANCH   1  19
TORSDOF 5
ENDMDL
MODEL 8
REMARK VINA RESULT:     -11.0      5.305      7.626
REMARK  Name = 9549257
REMARK  5 active torsions:
REMARK  status: ('A' for Active; 'I' for Inactive)
REMARK    1  A    between atoms: N_1  and  C_5
REMARK    2  A    between atoms: N_1  and  S_19
REMARK    3  A    between atoms: N_4  and  C_9
REMARK    4  A    between atoms: C_9  and  C_14
REMARK    5  A    between atoms: S_19  and  C_24
REMARK                            x       y       z     vdW  Elec       q    Type
REMARK                         _______ _______ _______ _____ _____    ______ ____
ROOT
ATOM      1  N   UNL     1      31.987  -8.978 -21.687  0.00  0.00    -0.171 NA
ATOM      2  H   UNL     1      32.883  -8.961 -21.201  0.00  0.00    +0.149 HD
ENDROOT
BRANCH   1   5
ATOM      3  O   UNL     1      34.515  -8.095 -23.114  0.00  0.00    -0.273 OA
ATOM      4  N   UNL     1      32.690  -6.866 -23.948  0.00  0.00    -0.272 N 
ATOM      5  C   UNL     1      32.273  -9.015 -23.131  0.00  0.00    +0.153 C 
ATOM      6  C   UNL     1      31.076  -8.541 -23.947  0.00  0.00    +0.048 C 
ATOM      7  C   UNL     1      31.258  -7.037 -24.042  0.00  0.00    +0.096 C 
ATOM      8  C   UNL     1      33.331  -7.973 -23.394  0.00  0.00    +0.242 C 
BRANCH   4   9
ATOM      9  C   UNL     1      33.321  -5.603 -24.258  0.00  0.00    +0.152 C 
ATOM     10  C   UNL     1      33.841  -5.553 -25.675  0.00  0.00    +0.031 C 
BRANCH   9  14
ATOM     11  O   UNL     1      30.347  -4.512 -20.326  0.00  0.00    -0.350 OA
ATOM     12  O   UNL     1      31.790  -3.963 -25.024  0.00  0.00    -0.273 OA
ATOM     13  N   UNL     1      31.790  -4.397 -22.743  0.00  0.00    -0.273 N 
ATOM     14  C   UNL     1      32.233  -4.579 -24.051  0.00  0.00    +0.244 C 
ATOM     15  C   UNL     1      32.378  -5.017 -21.552  0.00  0.00    +0.126 C 
ATOM     16  C   UNL     1      30.733  -3.427 -22.456  0.00  0.00    +0.126 C 
ATOM     17  C   UNL     1      31.283  -5.548 -20.637  0.00  0.00    +0.164 C 
ATOM     18  C   UNL     1      29.706  -4.027 -21.509  0.00  0.00    +0.164 C 
ENDBRANCH   9  14
ENDBRANCH   4   9
ENDBRANCH   1   5
BRANCH   1  19
ATOM     19  S   UNL     1      31.066 -10.258 -21.012  0.00  0.00    +0.073 S 
ATOM     20  O   UNL     1      29.841 -10.417 -21.770  0.00  0.00    -0.152 OA
ATOM     21  O   UNL     1      31.048 -10.120 -19.569  0.00  0.00    -0.152 OA
BRANCH  19  24
ATOM     22 CL   UNL     1      35.206 -17.106 -21.463  0.00  0.00    -0.082 Cl
ATOM     23  N   UNL     1      32.311 -12.146 -22.542  0.00  0.00    -0.297 N 
ATOM     24  C   UNL     1      31.991 -11.770 -21.279  0.00  0.00    +0.173 C 
ATOM     25  C   UNL     1      32.473 -12.683 -20.394  0.00  0.00    +0.036 C 
ATOM     26  C   UNL     1      33.133 -13.688 -21.154  0.00  0.00    +0.017 C 
ATOM     27  C   UNL     1      33.017 -13.327 -22.499  0.00  0.00    +0.049 C 
ATOM     28  C   UNL     1      33.820 -14.873 -20.827  0.00  0.00    +0.013 C 
ATOM     29  C   UNL     1      33.556 -14.097 -23.536  0.00  0.00    +0.015 C 
ATOM     30  C   UNL     1      34.364 -15.653 -21.854  0.00  0.00    +0.058 C 
ATOM     31  C   UNL     1      34.234 -15.269 -23.187  0.00  0.00    +0.013 C 
ATOM     32  H   UNL     1      32.076 -11.653 -23.360  0.00  0.00    +0.153 HD
ENDBRANCH  19  24
ENDBRANCH   1  19
TORSDOF 5
ENDMDL
MODEL 9
REMARK VINA RESULT:     -10.8      2.755      4.722
REMARK  Name = 9549257
REMARK  5 active torsions:
REMARK  status: ('A' for Active; 'I' for Inactive)
REMARK    1  A    between atoms: N_1  and  C_5
REMARK    2  A    between atoms: N_1  and  S_19
REMARK    3  A    between atoms: N_4  and  C_9
REMARK    4  A    between atoms: C_9  and  C_14
REMARK    5  A    between atoms: S_19  and  C_24
REMARK                            x       y       z     vdW  Elec       q    Type
REMARK                         _______ _______ _______ _____ _____    ______ ____
ROOT
ATOM      1  N   UNL     1      34.536 -19.871 -19.800  0.00  0.00    -0.171 NA
ATOM      2  H   UNL     1      35.232 -19.644 -19.090  0.00  0.00    +0.149 HD
ENDROOT
BRANCH   1   5
ATOM      3  O   UNL     1      36.775 -18.007 -20.649  0.00  0.00    -0.273 OA
ATOM      4  N   UNL     1      34.922 -17.681 -22.063  0.00  0.00    -0.272 N 
ATOM      5  C   UNL     1      35.205 -19.796 -21.110  0.00  0.00    +0.153 C 
ATOM      6  C   UNL     1      34.200 -19.883 -22.253  0.00  0.00    +0.048 C 
ATOM      7  C   UNL     1      33.773 -18.446 -22.489  0.00  0.00    +0.096 C 
ATOM      8  C   UNL     1      35.775 -18.404 -21.230  0.00  0.00    +0.242 C 
BRANCH   4   9
ATOM      9  C   UNL     1      35.044 -16.271 -22.362  0.00  0.00    +0.152 C 
ATOM     10  C   UNL     1      34.511 -15.928 -23.733  0.00  0.00    +0.031 C 
BRANCH   9  14
ATOM     11  O   UNL     1      32.446 -11.943 -22.264  0.00  0.00    -0.350 OA
ATOM     12  O   UNL     1      34.311 -15.993 -20.125  0.00  0.00    -0.273 OA
ATOM     13  N   UNL     1      33.445 -14.514 -21.692  0.00  0.00    -0.273 N 
ATOM     14  C   UNL     1      34.236 -15.587 -21.288  0.00  0.00    +0.244 C 
ATOM     15  C   UNL     1      33.236 -14.087 -23.079  0.00  0.00    +0.126 C 
ATOM     16  C   UNL     1      32.635 -13.792 -20.711  0.00  0.00    +0.126 C 
ATOM     17  C   UNL     1      33.341 -12.571 -23.186  0.00  0.00    +0.164 C 
ATOM     18  C   UNL     1      32.771 -12.290 -20.915  0.00  0.00    +0.164 C 
ENDBRANCH   9  14
ENDBRANCH   4   9
ENDBRANCH   1   5
BRANCH   1  19
ATOM     19  S   UNL     1      33.813 -21.359 -19.346  0.00  0.00    +0.073 S 
ATOM     20  O   UNL     1      34.255 -22.401 -20.252  0.00  0.00    -0.152 OA
ATOM     21  O   UNL     1      32.405 -21.140 -19.077  0.00  0.00    -0.152 OA
BRANCH  19  24
ATOM     22 CL   UNL     1      37.463 -23.076 -12.421  0.00  0.00    -0.082 Cl
ATOM     23  N   UNL     1      33.682 -22.393 -16.823  0.00  0.00    -0.297 N 
ATOM     24  C   UNL     1      34.483 -21.804 -17.744  0.00  0.00    +0.173 C 
ATOM     25  C   UNL     1      35.735 -21.656 -17.234  0.00  0.00    +0.036 C 
ATOM     26  C   UNL     1      35.709 -22.185 -15.914  0.00  0.00    +0.017 C 
ATOM     27  C   UNL     1      34.410 -22.642 -15.681  0.00  0.00    +0.049 C 
ATOM     28  C   UNL     1      36.669 -22.321 -14.892  0.00  0.00    +0.013 C 
ATOM     29  C   UNL     1      34.021 -23.229 -14.472  0.00  0.00    +0.015 C 
ATOM     30  C   UNL     1      36.295 -22.906 -13.677  0.00  0.00    +0.058 C 
ATOM     31  C   UNL     1      34.991 -23.353 -13.473  0.00  0.00    +0.013 C 
ATOM     32  H   UNL     1      32.730 -22.609 -16.950  0.00  0.00    +0.153 HD
ENDBRANCH  19  24
ENDBRANCH   1  19
TORSDOF 5
ENDMDL
