MODEL 1
REMARK VINA RESULT:     -11.5      0.000      0.000
REMARK  Name = 40467016
REMARK  4 active torsions:
REMARK  status: ('A' for Active; 'I' for Inactive)
REMARK    1  A    between atoms: C_3  and  C_16
REMARK    2  A    between atoms: C_4  and  C_9
REMARK    3  A    between atoms: C_5  and  C_21
REMARK    4  A    between atoms: C_24  and  S_27
REMARK                            x       y       z     vdW  Elec       q    Type
REMARK                         _______ _______ _______ _____ _____    ______ ____
ROOT
ATOM      1  N   UNL     1      32.572 -22.320 -17.056  0.00  0.00    -0.315 N 
ATOM      2  N   UNL     1      34.785 -22.376 -16.870  0.00  0.00    -0.315 N 
ATOM      3  C   UNL     1      32.835 -23.045 -15.928  0.00  0.00    +0.059 C 
ATOM      4  C   UNL     1      34.207 -23.066 -15.834  0.00  0.00    +0.059 C 
ATOM      5  C   UNL     1      33.774 -21.940 -17.588  0.00  0.00    +0.168 C 
ATOM      6  H   UNL     1      31.682 -22.110 -17.421  0.00  0.00    +0.149 HD
ATOM      7  H   UNL     1      35.745 -22.238 -17.039  0.00  0.00    +0.149 HD
ENDROOT
BRANCH   4   9
ATOM      8  F   UNL     1      37.139 -25.579 -11.827  0.00  0.00    -0.204 F 
ATOM      9  C   UNL     1      34.963 -23.714 -14.801  0.00  0.00    +0.015 C 
ATOM     10  C   UNL     1      35.406 -25.025 -14.978  0.00  0.00    +0.004 C 
ATOM     11  C   UNL     1      35.255 -23.033 -13.619  0.00  0.00    +0.004 C 
ATOM     12  C   UNL     1      36.141 -25.655 -13.974  0.00  0.00    +0.030 C 
ATOM     13  C   UNL     1      35.991 -23.663 -12.614  0.00  0.00    +0.030 C 
ATOM     14  C   UNL     1      36.433 -24.974 -12.792  0.00  0.00    +0.140 C 
ENDBRANCH   4   9
BRANCH   3  16
ATOM     15  N   UNL     1      29.774 -24.698 -13.510  0.00  0.00    -0.242 NA
ATOM     16  C   UNL     1      31.794 -23.608 -15.105  0.00  0.00    +0.017 C 
ATOM     17  C   UNL     1      32.102 -24.153 -13.864  0.00  0.00    +0.022 C 
ATOM     18  C   UNL     1      30.476 -23.607 -15.549  0.00  0.00    +0.022 C 
ATOM     19  C   UNL     1      31.066 -24.681 -13.111  0.00  0.00    +0.099 C 
ATOM     20  C   UNL     1      29.511 -24.159 -14.722  0.00  0.00    +0.099 C 
ENDBRANCH   3  16
BRANCH   5  21
ATOM     21  C   UNL     1      33.863 -21.154 -18.795  0.00  0.00    +0.014 C 
ATOM     22  C   UNL     1      32.702 -20.701 -19.420  0.00  0.00    -0.000 C 
ATOM     23  C   UNL     1      35.112 -20.846 -19.336  0.00  0.00    -0.000 C 
ATOM     24  C   UNL     1      34.037 -19.634 -21.127  0.00  0.00    +0.056 C 
ATOM     25  C   UNL     1      32.788 -19.941 -20.586  0.00  0.00    +0.008 C 
ATOM     26  C   UNL     1      35.198 -20.086 -20.501  0.00  0.00    +0.008 C 
BRANCH  24  27
ATOM     27  S   UNL     1      34.148 -18.657 -22.626  0.00  0.00    +0.066 S 
ATOM     28  O   UNL     1      34.526 -19.602 -23.731  0.00  0.00    -0.251 OA
ATOM     29  C   UNL     1      35.639 -17.723 -22.191  0.00  0.00    +0.111 C 
ENDBRANCH  24  27
ENDBRANCH   5  21
TORSDOF 4
ENDMDL
MODEL 2
REMARK VINA RESULT:     -11.0      2.156      4.065
REMARK  Name = 40467016
REMARK  4 active torsions:
REMARK  status: ('A' for Active; 'I' for Inactive)
REMARK    1  A    between atoms: C_3  and  C_16
REMARK    2  A    between atoms: C_4  and  C_9
REMARK    3  A    between atoms: C_5  and  C_21
REMARK    4  A    between atoms: C_24  and  S_27
REMARK                            x       y       z     vdW  Elec       q    Type
REMARK                         _______ _______ _______ _____ _____    ______ ____
ROOT
ATOM      1  N   UNL     1      34.817 -22.366 -16.799  0.00  0.00    -0.315 N 
ATOM      2  N   UNL     1      32.655 -22.210 -17.284  0.00  0.00    -0.315 N 
ATOM      3  C   UNL     1      34.163 -23.068 -15.826  0.00  0.00    +0.059 C 
ATOM      4  C   UNL     1      32.830 -22.957 -16.147  0.00  0.00    +0.059 C 
ATOM      5  C   UNL     1      33.870 -21.869 -17.652  0.00  0.00    +0.168 C 
ATOM      6  H   UNL     1      35.790 -22.240 -16.873  0.00  0.00    +0.149 HD
ATOM      7  H   UNL     1      31.807 -21.979 -17.728  0.00  0.00    +0.149 HD
ENDROOT
BRANCH   4   9
ATOM      8  F   UNL     1      28.615 -25.201 -13.289  0.00  0.00    -0.204 F 
ATOM      9  C   UNL     1      31.743 -23.536 -15.410  0.00  0.00    +0.015 C 
ATOM     10  C   UNL     1      31.973 -24.100 -14.155  0.00  0.00    +0.004 C 
ATOM     11  C   UNL     1      30.456 -23.534 -15.948  0.00  0.00    +0.004 C 
ATOM     12  C   UNL     1      30.916 -24.663 -13.438  0.00  0.00    +0.030 C 
ATOM     13  C   UNL     1      29.399 -24.096 -15.231  0.00  0.00    +0.030 C 
ATOM     14  C   UNL     1      29.629 -24.661 -13.977  0.00  0.00    +0.140 C 
ENDBRANCH   4   9
BRANCH   3  16
ATOM     15  N   UNL     1      36.191 -25.027 -12.664  0.00  0.00    -0.242 NA
ATOM     16  C   UNL     1      34.853 -23.736 -14.750  0.00  0.00    +0.017 C 
ATOM     17  C   UNL     1      35.401 -24.997 -14.948  0.00  0.00    +0.022 C 
ATOM     18  C   UNL     1      34.973 -23.119 -13.510  0.00  0.00    +0.022 C 
ATOM     19  C   UNL     1      36.055 -25.595 -13.883  0.00  0.00    +0.099 C 
ATOM     20  C   UNL     1      35.646 -23.800 -12.508  0.00  0.00    +0.099 C 
ENDBRANCH   3  16
BRANCH   5  21
ATOM     21  C   UNL     1      34.219 -21.071 -18.803  0.00  0.00    +0.014 C 
ATOM     22  C   UNL     1      33.217 -20.528 -19.605  0.00  0.00    -0.000 C 
ATOM     23  C   UNL     1      35.561 -20.842 -19.111  0.00  0.00    -0.000 C 
ATOM     24  C   UNL     1      34.895 -19.529 -21.026  0.00  0.00    +0.056 C 
ATOM     25  C   UNL     1      33.555 -19.757 -20.717  0.00  0.00    +0.008 C 
ATOM     26  C   UNL     1      35.898 -20.072 -20.223  0.00  0.00    +0.008 C 
BRANCH  24  27
ATOM     27  S   UNL     1      35.329 -18.537 -22.455  0.00  0.00    +0.066 S 
ATOM     28  O   UNL     1      35.352 -17.105 -21.997  0.00  0.00    -0.251 OA
ATOM     29  C   UNL     1      33.790 -18.773 -23.383  0.00  0.00    +0.111 C 
ENDBRANCH  24  27
ENDBRANCH   5  21
TORSDOF 4
ENDMDL
MODEL 3
REMARK VINA RESULT:      -9.0      1.956      3.995
REMARK  Name = 40467016
REMARK  4 active torsions:
REMARK  status: ('A' for Active; 'I' for Inactive)
REMARK    1  A    between atoms: C_3  and  C_16
REMARK    2  A    between atoms: C_4  and  C_9
REMARK    3  A    between atoms: C_5  and  C_21
REMARK    4  A    between atoms: C_24  and  S_27
REMARK                            x       y       z     vdW  Elec       q    Type
REMARK                         _______ _______ _______ _____ _____    ______ ____
ROOT
ATOM      1  N   UNL     1      34.995 -22.031 -16.925  0.00  0.00    -0.315 N 
ATOM      2  N   UNL     1      32.808 -22.139 -17.292  0.00  0.00    -0.315 N 
ATOM      3  C   UNL     1      34.474 -22.736 -15.877  0.00  0.00    +0.059 C 
ATOM      4  C   UNL     1      33.123 -22.790 -16.126  0.00  0.00    +0.059 C 
ATOM      5  C   UNL     1      33.957 -21.693 -17.749  0.00  0.00    +0.168 C 
ATOM      6  H   UNL     1      35.944 -21.806 -17.062  0.00  0.00    +0.149 HD
ATOM      7  H   UNL     1      31.917 -22.030 -17.699  0.00  0.00    +0.149 HD
ENDROOT
BRANCH   4   9
ATOM      8  F   UNL     1      29.335 -25.289 -12.905  0.00  0.00    -0.204 F 
ATOM      9  C   UNL     1      32.146 -23.435 -15.295  0.00  0.00    +0.015 C 
ATOM     10  C   UNL     1      30.979 -23.949 -15.861  0.00  0.00    +0.004 C 
ATOM     11  C   UNL     1      32.363 -23.548 -13.922  0.00  0.00    +0.004 C 
ATOM     12  C   UNL     1      30.029 -24.575 -15.054  0.00  0.00    +0.030 C 
ATOM     13  C   UNL     1      31.413 -24.174 -13.115  0.00  0.00    +0.030 C 
ATOM     14  C   UNL     1      30.247 -24.688 -13.680  0.00  0.00    +0.140 C 
ENDBRANCH   4   9
BRANCH   3  16
ATOM     15  N   UNL     1      36.864 -24.266 -12.731  0.00  0.00    -0.242 NA
ATOM     16  C   UNL     1      35.288 -23.256 -14.807  0.00  0.00    +0.017 C 
ATOM     17  C   UNL     1      36.154 -22.416 -14.116  0.00  0.00    +0.022 C 
ATOM     18  C   UNL     1      35.209 -24.600 -14.460  0.00  0.00    +0.022 C 
ATOM     19  C   UNL     1      36.914 -22.965 -13.095  0.00  0.00    +0.099 C 
ATOM     20  C   UNL     1      36.010 -25.052 -13.424  0.00  0.00    +0.099 C 
ENDBRANCH   3  16
BRANCH   5  21
ATOM     21  C   UNL     1      34.156 -20.937 -18.962  0.00  0.00    +0.014 C 
ATOM     22  C   UNL     1      35.435 -20.805 -19.500  0.00  0.00    -0.000 C 
ATOM     23  C   UNL     1      33.067 -20.340 -19.597  0.00  0.00    -0.000 C 
ATOM     24  C   UNL     1      34.538 -19.477 -21.307  0.00  0.00    +0.056 C 
ATOM     25  C   UNL     1      35.627 -20.075 -20.672  0.00  0.00    +0.008 C 
ATOM     26  C   UNL     1      33.258 -19.610 -20.769  0.00  0.00    +0.008 C 
BRANCH  24  27
ATOM     27  S   UNL     1      34.786 -18.539 -22.814  0.00  0.00    +0.066 S 
ATOM     28  O   UNL     1      34.710 -19.520 -23.951  0.00  0.00    -0.251 OA
ATOM     29  C   UNL     1      36.538 -18.148 -22.566  0.00  0.00    +0.111 C 
ENDBRANCH  24  27
ENDBRANCH   5  21
TORSDOF 4
ENDMDL
MODEL 4
REMARK VINA RESULT:      -8.9      2.688      4.788
REMARK  Name = 40467016
REMARK  4 active torsions:
REMARK  status: ('A' for Active; 'I' for Inactive)
REMARK    1  A    between atoms: C_3  and  C_16
REMARK    2  A    between atoms: C_4  and  C_9
REMARK    3  A    between atoms: C_5  and  C_21
REMARK    4  A    between atoms: C_24  and  S_27
REMARK                            x       y       z     vdW  Elec       q    Type
REMARK                         _______ _______ _______ _____ _____    ______ ____
ROOT
ATOM      1  N   UNL     1      36.960 -22.894 -16.463  0.00  0.00    -0.315 N 
ATOM      2  N   UNL     1      35.214 -22.111 -15.336  0.00  0.00    -0.315 N 
ATOM      3  C   UNL     1      37.080 -23.389 -15.195  0.00  0.00    +0.059 C 
ATOM      4  C   UNL     1      35.991 -22.892 -14.519  0.00  0.00    +0.059 C 
ATOM      5  C   UNL     1      35.825 -22.132 -16.500  0.00  0.00    +0.168 C 
ATOM      6  H   UNL     1      37.577 -23.055 -17.213  0.00  0.00    +0.149 HD
ATOM      7  H   UNL     1      34.382 -21.637 -15.103  0.00  0.00    +0.149 HD
ENDROOT
BRANCH   4   9
ATOM      8  F   UNL     1      34.787 -23.855  -9.171  0.00  0.00    -0.204 F 
ATOM      9  C   UNL     1      35.680 -23.141 -13.139  0.00  0.00    +0.015 C 
ATOM     10  C   UNL     1      36.521 -22.655 -12.137  0.00  0.00    +0.004 C 
ATOM     11  C   UNL     1      34.539 -23.867 -12.801  0.00  0.00    +0.004 C 
ATOM     12  C   UNL     1      36.219 -22.896 -10.796  0.00  0.00    +0.030 C 
ATOM     13  C   UNL     1      34.237 -24.108 -11.461  0.00  0.00    +0.030 C 
ATOM     14  C   UNL     1      35.077 -23.623 -10.458  0.00  0.00    +0.140 C 
ENDBRANCH   4   9
BRANCH   3  16
ATOM     15  N   UNL     1      40.284 -25.897 -14.015  0.00  0.00    -0.242 NA
ATOM     16  C   UNL     1      38.169 -24.243 -14.793  0.00  0.00    +0.017 C 
ATOM     17  C   UNL     1      37.915 -25.527 -14.326  0.00  0.00    +0.022 C 
ATOM     18  C   UNL     1      39.480 -23.785 -14.872  0.00  0.00    +0.022 C 
ATOM     19  C   UNL     1      38.998 -26.308 -13.952  0.00  0.00    +0.099 C 
ATOM     20  C   UNL     1      40.493 -24.643 -14.475  0.00  0.00    +0.099 C 
ENDBRANCH   3  16
BRANCH   5  21
ATOM     21  C   UNL     1      35.395 -21.454 -17.700  0.00  0.00    +0.014 C 
ATOM     22  C   UNL     1      36.290 -20.651 -18.406  0.00  0.00    -0.000 C 
ATOM     23  C   UNL     1      34.085 -21.604 -18.154  0.00  0.00    -0.000 C 
ATOM     24  C   UNL     1      34.565 -20.146 -20.018  0.00  0.00    +0.056 C 
ATOM     25  C   UNL     1      35.875 -19.997 -19.564  0.00  0.00    +0.008 C 
ATOM     26  C   UNL     1      33.670 -20.950 -19.313  0.00  0.00    +0.008 C 
BRANCH  24  27
ATOM     27  S   UNL     1      34.031 -19.305 -21.509  0.00  0.00    +0.066 S 
ATOM     28  O   UNL     1      34.798 -19.917 -22.648  0.00  0.00    -0.251 OA
ATOM     29  C   UNL     1      34.793 -17.698 -21.160  0.00  0.00    +0.111 C 
ENDBRANCH  24  27
ENDBRANCH   5  21
TORSDOF 4
ENDMDL
MODEL 5
REMARK VINA RESULT:      -8.5     10.448     15.233
REMARK  Name = 40467016
REMARK  4 active torsions:
REMARK  status: ('A' for Active; 'I' for Inactive)
REMARK    1  A    between atoms: C_3  and  C_16
REMARK    2  A    between atoms: C_4  and  C_9
REMARK    3  A    between atoms: C_5  and  C_21
REMARK    4  A    between atoms: C_24  and  S_27
REMARK                            x       y       z     vdW  Elec       q    Type
REMARK                         _______ _______ _______ _____ _____    ______ ____
ROOT
ATOM      1  N   UNL     1      32.399 -11.122 -21.874  0.00  0.00    -0.315 N 
ATOM      2  N   UNL     1      32.790 -10.523 -23.976  0.00  0.00    -0.315 N 
ATOM      3  C   UNL     1      32.164  -9.777 -21.929  0.00  0.00    +0.059 C 
ATOM      4  C   UNL     1      32.412  -9.430 -23.237  0.00  0.00    +0.059 C 
ATOM      5  C   UNL     1      32.772 -11.526 -23.126  0.00  0.00    +0.168 C 
ATOM      6  H   UNL     1      32.315 -11.697 -21.078  0.00  0.00    +0.149 HD
ATOM      7  H   UNL     1      33.024 -10.551 -24.933  0.00  0.00    +0.149 HD
ENDROOT
BRANCH   4   9
ATOM      8  F   UNL     1      31.973  -4.307 -25.365  0.00  0.00    -0.204 F 
ATOM      9  C   UNL     1      32.299  -8.109 -23.786  0.00  0.00    +0.015 C 
ATOM     10  C   UNL     1      31.056  -7.630 -24.200  0.00  0.00    +0.004 C 
ATOM     11  C   UNL     1      33.431  -7.304 -23.905  0.00  0.00    +0.004 C 
ATOM     12  C   UNL     1      30.946  -6.345 -24.733  0.00  0.00    +0.030 C 
ATOM     13  C   UNL     1      33.321  -6.019 -24.438  0.00  0.00    +0.030 C 
ATOM     14  C   UNL     1      32.079  -5.540 -24.853  0.00  0.00    +0.140 C 
ENDBRANCH   4   9
BRANCH   3  16
ATOM     15  N   UNL     1      30.942  -7.525 -18.556  0.00  0.00    -0.242 NA
ATOM     16  C   UNL     1      31.747  -9.012 -20.781  0.00  0.00    +0.017 C 
ATOM     17  C   UNL     1      31.132  -9.642 -19.707  0.00  0.00    +0.022 C 
ATOM     18  C   UNL     1      31.961  -7.638 -20.744  0.00  0.00    +0.022 C 
ATOM     19  C   UNL     1      30.751  -8.861 -18.627  0.00  0.00    +0.099 C 
ATOM     20  C   UNL     1      31.544  -6.946 -19.619  0.00  0.00    +0.099 C 
ENDBRANCH   3  16
BRANCH   5  21
ATOM     21  C   UNL     1      33.097 -12.900 -23.424  0.00  0.00    +0.014 C 
ATOM     22  C   UNL     1      32.776 -13.439 -24.669  0.00  0.00    -0.000 C 
ATOM     23  C   UNL     1      33.734 -13.689 -22.466  0.00  0.00    -0.000 C 
ATOM     24  C   UNL     1      33.726 -15.556 -23.998  0.00  0.00    +0.056 C 
ATOM     25  C   UNL     1      33.090 -14.767 -24.956  0.00  0.00    +0.008 C 
ATOM     26  C   UNL     1      34.049 -15.016 -22.753  0.00  0.00    +0.008 C 
BRANCH  24  27
ATOM     27  S   UNL     1      34.130 -17.263 -24.368  0.00  0.00    +0.066 S 
ATOM     28  O   UNL     1      32.866 -17.909 -24.862  0.00  0.00    -0.251 OA
ATOM     29  C   UNL     1      34.381 -17.822 -22.663  0.00  0.00    +0.111 C 
ENDBRANCH  24  27
ENDBRANCH   5  21
TORSDOF 4
ENDMDL
