MODEL 1
REMARK VINA RESULT:     -11.6      0.000      0.000
REMARK  Name = 71857
REMARK  9 active torsions:
REMARK  status: ('A' for Active; 'I' for Inactive)
REMARK    1  A    between atoms: N_1  and  C_4
REMARK    2  A    between atoms: N_1  and  C_19
REMARK    3  A    between atoms: C_4  and  C_5
REMARK    4  A    between atoms: C_5  and  N_8
REMARK    5  A    between atoms: C_19  and  C_20
REMARK    6  A    between atoms: C_20  and  C_21
REMARK    7  A    between atoms: C_20  and  O_31
REMARK    8  A    between atoms: C_24  and  O_27
REMARK    9  A    between atoms: C_26  and  O_29
REMARK                            x       y       z     vdW  Elec       q    Type
REMARK                         _______ _______ _______ _____ _____    ______ ____
ROOT
ATOM      1  N   UNL     1      35.523 -19.541 -20.261  0.00  0.00    +0.387 N 
ATOM      2  H   UNL     1      36.439 -19.596 -20.708  0.00  0.00    -0.084 HD
ATOM      3  H   UNL     1      35.574 -18.977 -19.412  0.00  0.00    -0.084 HD
ENDROOT
BRANCH   1   4
ATOM      4  C   UNL     1      35.087 -20.885 -19.902  0.00  0.00    -0.064 C 
BRANCH   4   5
ATOM      5  C   UNL     1      35.674 -21.285 -18.551  0.00  0.00    +0.051 C 
BRANCH   5   8
ATOM      6  O   UNL     1      37.077 -21.794 -15.897  0.00  0.00    -0.272 OA
ATOM      7  O   UNL     1      34.316 -23.806 -12.680  0.00  0.00    -0.252 OA
ATOM      8  N   UNL     1      34.688 -21.899 -17.694  0.00  0.00    -0.242 NA
ATOM      9  N   UNL     1      33.407 -23.345 -14.772  0.00  0.00    -0.228 N 
ATOM     10  N   UNL     1      35.713 -22.802 -14.269  0.00  0.00    -0.211 N 
ATOM     11  N   UNL     1      32.724 -22.742 -17.058  0.00  0.00    -0.240 NA
ATOM     12  C   UNL     1      34.848 -22.310 -16.402  0.00  0.00    +0.192 C 
ATOM     13  C   UNL     1      33.633 -22.821 -16.037  0.00  0.00    +0.136 C 
ATOM     14  C   UNL     1      35.993 -22.256 -15.550  0.00  0.00    +0.254 C 
ATOM     15  C   UNL     1      33.393 -22.181 -18.045  0.00  0.00    +0.203 C 
ATOM     16  C   UNL     1      34.459 -23.355 -13.822  0.00  0.00    +0.318 C 
ATOM     17  C   UNL     1      32.097 -23.881 -14.422  0.00  0.00    +0.123 C 
ATOM     18  C   UNL     1      36.810 -22.804 -13.306  0.00  0.00    +0.124 C 
ENDBRANCH   5   8
ENDBRANCH   4   5
ENDBRANCH   1   4
BRANCH   1  19
ATOM     19  C   UNL     1      34.581 -18.916 -21.177  0.00  0.00    -0.047 C 
BRANCH  19  20
ATOM     20  C   UNL     1      35.319 -18.216 -22.326  0.00  0.00    +0.112 C 
BRANCH  20  21
ATOM     21  C   UNL     1      34.658 -16.905 -22.690  0.00  0.00    +0.005 C 
ATOM     22  C   UNL     1      34.144 -16.737 -23.964  0.00  0.00    +0.038 C 
ATOM     23  C   UNL     1      34.583 -15.899 -21.741  0.00  0.00    +0.001 C 
ATOM     24  C   UNL     1      33.536 -15.528 -24.300  0.00  0.00    +0.167 C 
ATOM     25  C   UNL     1      33.975 -14.690 -22.076  0.00  0.00    +0.040 C 
ATOM     26  C   UNL     1      33.452 -14.504 -23.355  0.00  0.00    +0.167 C 
BRANCH  24  27
ATOM     27  O   UNL     1      33.028 -15.358 -25.552  0.00  0.00    -0.503 OA
ATOM     28  H   UNL     1      32.173 -14.992 -25.665  0.00  0.00    +0.292 HD
ENDBRANCH  24  27
BRANCH  26  29
ATOM     29  O   UNL     1      32.858 -13.319 -23.672  0.00  0.00    -0.503 OA
ATOM     30  H   UNL     1      32.958 -12.579 -23.107  0.00  0.00    +0.292 HD
ENDBRANCH  26  29
ENDBRANCH  20  21
BRANCH  20  31
ATOM     31  O   UNL     1      36.670 -17.947 -21.956  0.00  0.00    -0.382 OA
ATOM     32  H   UNL     1      36.836 -16.993 -22.011  0.00  0.00    +0.211 HD
ENDBRANCH  20  31
ENDBRANCH  19  20
ENDBRANCH   1  19
TORSDOF 9
ENDMDL
MODEL 2
REMARK VINA RESULT:     -11.6      1.677      2.915
REMARK  Name = 71857
REMARK  9 active torsions:
REMARK  status: ('A' for Active; 'I' for Inactive)
REMARK    1  A    between atoms: N_1  and  C_4
REMARK    2  A    between atoms: N_1  and  C_19
REMARK    3  A    between atoms: C_4  and  C_5
REMARK    4  A    between atoms: C_5  and  N_8
REMARK    5  A    between atoms: C_19  and  C_20
REMARK    6  A    between atoms: C_20  and  C_21
REMARK    7  A    between atoms: C_20  and  O_31
REMARK    8  A    between atoms: C_24  and  O_27
REMARK    9  A    between atoms: C_26  and  O_29
REMARK                            x       y       z     vdW  Elec       q    Type
REMARK                         _______ _______ _______ _____ _____    ______ ____
ROOT
ATOM      1  N   UNL     1      35.204 -21.203 -19.877  0.00  0.00    +0.387 N 
ATOM      2  H   UNL     1      34.430 -21.867 -19.900  0.00  0.00    -0.084 HD
ATOM      3  H   UNL     1      35.930 -21.479 -20.538  0.00  0.00    -0.084 HD
ENDROOT
BRANCH   1   4
ATOM      4  C   UNL     1      35.777 -21.185 -18.537  0.00  0.00    -0.064 C 
BRANCH   4   5
ATOM      5  C   UNL     1      34.854 -21.909 -17.561  0.00  0.00    +0.051 C 
BRANCH   5   8
ATOM      6  O   UNL     1      32.732 -23.164 -15.773  0.00  0.00    -0.272 OA
ATOM      7  O   UNL     1      34.330 -24.342 -11.521  0.00  0.00    -0.252 OA
ATOM      8  N   UNL     1      35.514 -22.204 -16.311  0.00  0.00    -0.242 NA
ATOM      9  N   UNL     1      35.818 -23.367 -13.021  0.00  0.00    -0.228 N 
ATOM     10  N   UNL     1      33.510 -23.762 -13.637  0.00  0.00    -0.211 N 
ATOM     11  N   UNL     1      37.155 -22.327 -14.807  0.00  0.00    -0.240 NA
ATOM     12  C   UNL     1      34.969 -22.775 -15.197  0.00  0.00    +0.192 C 
ATOM     13  C   UNL     1      35.993 -22.838 -14.293  0.00  0.00    +0.136 C 
ATOM     14  C   UNL     1      33.640 -23.231 -14.948  0.00  0.00    +0.254 C 
ATOM     15  C   UNL     1      36.831 -21.952 -16.027  0.00  0.00    +0.203 C 
ATOM     16  C   UNL     1      34.545 -23.859 -12.639  0.00  0.00    +0.318 C 
ATOM     17  C   UNL     1      36.935 -23.416 -12.086  0.00  0.00    +0.123 C 
ATOM     18  C   UNL     1      32.190 -24.263 -13.263  0.00  0.00    +0.124 C 
ENDBRANCH   5   8
ENDBRANCH   4   5
ENDBRANCH   1   4
BRANCH   1  19
ATOM     19  C   UNL     1      34.712 -19.885 -20.250  0.00  0.00    -0.047 C 
BRANCH  19  20
ATOM     20  C   UNL     1      35.721 -19.159 -21.149  0.00  0.00    +0.112 C 
BRANCH  20  21
ATOM     21  C   UNL     1      35.026 -18.345 -22.217  0.00  0.00    +0.005 C 
ATOM     22  C   UNL     1      35.194 -16.972 -22.238  0.00  0.00    +0.038 C 
ATOM     23  C   UNL     1      34.235 -18.991 -23.151  0.00  0.00    +0.001 C 
ATOM     24  C   UNL     1      34.553 -16.221 -23.223  0.00  0.00    +0.167 C 
ATOM     25  C   UNL     1      33.593 -18.242 -24.137  0.00  0.00    +0.040 C 
ATOM     26  C   UNL     1      33.752 -16.857 -24.172  0.00  0.00    +0.167 C 
BRANCH  24  27
ATOM     27  O   UNL     1      34.716 -14.869 -23.249  0.00  0.00    -0.503 OA
ATOM     28  H   UNL     1      34.072 -14.311 -22.859  0.00  0.00    +0.292 HD
ENDBRANCH  24  27
BRANCH  26  29
ATOM     29  O   UNL     1      33.121 -16.134 -25.140  0.00  0.00    -0.503 OA
ATOM     30  H   UNL     1      33.545 -15.980 -25.961  0.00  0.00    +0.292 HD
ENDBRANCH  26  29
ENDBRANCH  20  21
BRANCH  20  31
ATOM     31  O   UNL     1      36.531 -18.277 -20.373  0.00  0.00    -0.382 OA
ATOM     32  H   UNL     1      37.452 -18.339 -20.670  0.00  0.00    +0.211 HD
ENDBRANCH  20  31
ENDBRANCH  19  20
ENDBRANCH   1  19
TORSDOF 9
ENDMDL
MODEL 3
REMARK VINA RESULT:     -11.5      1.433      2.347
REMARK  Name = 71857
REMARK  9 active torsions:
REMARK  status: ('A' for Active; 'I' for Inactive)
REMARK    1  A    between atoms: N_1  and  C_4
REMARK    2  A    between atoms: N_1  and  C_19
REMARK    3  A    between atoms: C_4  and  C_5
REMARK    4  A    between atoms: C_5  and  N_8
REMARK    5  A    between atoms: C_19  and  C_20
REMARK    6  A    between atoms: C_20  and  C_21
REMARK    7  A    between atoms: C_20  and  O_31
REMARK    8  A    between atoms: C_24  and  O_27
REMARK    9  A    between atoms: C_26  and  O_29
REMARK                            x       y       z     vdW  Elec       q    Type
REMARK                         _______ _______ _______ _____ _____    ______ ____
ROOT
ATOM      1  N   UNL     1      35.470 -19.241 -20.265  0.00  0.00    +0.387 N 
ATOM      2  H   UNL     1      36.406 -18.908 -20.496  0.00  0.00    -0.084 HD
ATOM      3  H   UNL     1      35.147 -18.819 -19.394  0.00  0.00    -0.084 HD
ENDROOT
BRANCH   1   4
ATOM      4  C   UNL     1      35.507 -20.688 -20.096  0.00  0.00    -0.064 C 
BRANCH   4   5
ATOM      5  C   UNL     1      34.319 -21.150 -19.257  0.00  0.00    +0.051 C 
BRANCH   5   8
ATOM      6  O   UNL     1      31.784 -22.171 -17.915  0.00  0.00    -0.272 OA
ATOM      7  O   UNL     1      32.534 -24.027 -13.671  0.00  0.00    -0.252 OA
ATOM      8  N   UNL     1      34.734 -21.679 -17.980  0.00  0.00    -0.242 NA
ATOM      9  N   UNL     1      34.363 -23.194 -14.843  0.00  0.00    -0.228 N 
ATOM     10  N   UNL     1      32.135 -23.105 -15.787  0.00  0.00    -0.211 N 
ATOM     11  N   UNL     1      36.097 -22.241 -16.307  0.00  0.00    -0.240 NA
ATOM     12  C   UNL     1      33.947 -22.249 -17.020  0.00  0.00    +0.192 C 
ATOM     13  C   UNL     1      34.805 -22.584 -16.009  0.00  0.00    +0.136 C 
ATOM     14  C   UNL     1      32.539 -22.481 -16.997  0.00  0.00    +0.254 C 
ATOM     15  C   UNL     1      36.019 -21.697 -17.504  0.00  0.00    +0.203 C 
ATOM     16  C   UNL     1      32.985 -23.484 -14.686  0.00  0.00    +0.318 C 
ATOM     17  C   UNL     1      35.309 -23.534 -13.787  0.00  0.00    +0.123 C 
ATOM     18  C   UNL     1      30.711 -23.395 -15.645  0.00  0.00    +0.124 C 
ENDBRANCH   5   8
ENDBRANCH   4   5
ENDBRANCH   1   4
BRANCH   1  19
ATOM     19  C   UNL     1      34.554 -18.865 -21.332  0.00  0.00    -0.047 C 
BRANCH  19  20
ATOM     20  C   UNL     1      35.295 -18.131 -22.456  0.00  0.00    +0.112 C 
BRANCH  20  21
ATOM     21  C   UNL     1      34.626 -16.818 -22.795  0.00  0.00    +0.005 C 
ATOM     22  C   UNL     1      34.101 -16.634 -24.062  0.00  0.00    +0.038 C 
ATOM     23  C   UNL     1      34.554 -15.827 -21.832  0.00  0.00    +0.001 C 
ATOM     24  C   UNL     1      33.483 -15.423 -24.376  0.00  0.00    +0.167 C 
ATOM     25  C   UNL     1      33.937 -14.616 -22.144  0.00  0.00    +0.040 C 
ATOM     26  C   UNL     1      33.402 -14.413 -23.416  0.00  0.00    +0.167 C 
BRANCH  24  27
ATOM     27  O   UNL     1      32.965 -15.238 -25.621  0.00  0.00    -0.503 OA
ATOM     28  H   UNL     1      32.292 -15.808 -25.938  0.00  0.00    +0.292 HD
ENDBRANCH  24  27
BRANCH  26  29
ATOM     29  O   UNL     1      32.801 -13.227 -23.710  0.00  0.00    -0.503 OA
ATOM     30  H   UNL     1      32.091 -12.917 -23.183  0.00  0.00    +0.292 HD
ENDBRANCH  26  29
ENDBRANCH  20  21
BRANCH  20  31
ATOM     31  O   UNL     1      36.640 -17.858 -22.067  0.00  0.00    -0.382 OA
ATOM     32  H   UNL     1      36.780 -18.158 -21.154  0.00  0.00    +0.211 HD
ENDBRANCH  20  31
ENDBRANCH  19  20
ENDBRANCH   1  19
TORSDOF 9
ENDMDL
MODEL 4
REMARK VINA RESULT:     -10.8      2.975     10.161
REMARK  Name = 71857
REMARK  9 active torsions:
REMARK  status: ('A' for Active; 'I' for Inactive)
REMARK    1  A    between atoms: N_1  and  C_4
REMARK    2  A    between atoms: N_1  and  C_19
REMARK    3  A    between atoms: C_4  and  C_5
REMARK    4  A    between atoms: C_5  and  N_8
REMARK    5  A    between atoms: C_19  and  C_20
REMARK    6  A    between atoms: C_20  and  C_21
REMARK    7  A    between atoms: C_20  and  O_31
REMARK    8  A    between atoms: C_24  and  O_27
REMARK    9  A    between atoms: C_26  and  O_29
REMARK                            x       y       z     vdW  Elec       q    Type
REMARK                         _______ _______ _______ _____ _____    ______ ____
ROOT
ATOM      1  N   UNL     1      33.942 -19.420 -20.634  0.00  0.00    +0.387 N 
ATOM      2  H   UNL     1      32.987 -19.778 -20.635  0.00  0.00    -0.084 HD
ATOM      3  H   UNL     1      34.027 -18.633 -19.991  0.00  0.00    -0.084 HD
ENDROOT
BRANCH   1   4
ATOM      4  C   UNL     1      34.283 -18.964 -21.976  0.00  0.00    -0.064 C 
BRANCH   4   5
ATOM      5  C   UNL     1      34.941 -17.589 -21.913  0.00  0.00    +0.051 C 
BRANCH   5   8
ATOM      6  O   UNL     1      34.198 -15.011 -20.473  0.00  0.00    -0.272 OA
ATOM      7  O   UNL     1      32.462 -11.712 -23.323  0.00  0.00    -0.252 OA
ATOM      8  N   UNL     1      34.432 -16.700 -22.931  0.00  0.00    -0.242 NA
ATOM      9  N   UNL     1      33.083 -13.751 -24.256  0.00  0.00    -0.228 N 
ATOM     10  N   UNL     1      33.326 -13.343 -21.881  0.00  0.00    -0.211 N 
ATOM     11  N   UNL     1      33.821 -15.992 -24.955  0.00  0.00    -0.240 NA
ATOM     12  C   UNL     1      33.973 -15.425 -22.768  0.00  0.00    +0.192 C 
ATOM     13  C   UNL     1      33.606 -15.015 -24.020  0.00  0.00    +0.136 C 
ATOM     14  C   UNL     1      33.865 -14.625 -21.591  0.00  0.00    +0.254 C 
ATOM     15  C   UNL     1      34.320 -16.997 -24.264  0.00  0.00    +0.203 C 
ATOM     16  C   UNL     1      32.921 -12.850 -23.174  0.00  0.00    +0.318 C 
ATOM     17  C   UNL     1      32.704 -13.353 -25.606  0.00  0.00    +0.123 C 
ATOM     18  C   UNL     1      33.166 -12.430 -20.753  0.00  0.00    +0.124 C 
ENDBRANCH   5   8
ENDBRANCH   4   5
ENDBRANCH   1   4
BRANCH   1  19
ATOM     19  C   UNL     1      34.846 -20.475 -20.198  0.00  0.00    -0.047 C 
BRANCH  19  20
ATOM     20  C   UNL     1      34.128 -21.458 -19.265  0.00  0.00    +0.112 C 
BRANCH  20  21
ATOM     21  C   UNL     1      34.900 -21.665 -17.980  0.00  0.00    +0.005 C 
ATOM     22  C   UNL     1      34.303 -22.351 -16.937  0.00  0.00    +0.038 C 
ATOM     23  C   UNL     1      36.185 -21.164 -17.875  0.00  0.00    +0.001 C 
ATOM     24  C   UNL     1      35.014 -22.542 -15.751  0.00  0.00    +0.167 C 
ATOM     25  C   UNL     1      36.897 -21.354 -16.691  0.00  0.00    +0.040 C 
ATOM     26  C   UNL     1      36.311 -22.042 -15.629  0.00  0.00    +0.167 C 
BRANCH  24  27
ATOM     27  O   UNL     1      34.431 -23.216 -14.722  0.00  0.00    -0.503 OA
ATOM     28  H   UNL     1      34.956 -23.539 -14.016  0.00  0.00    +0.292 HD
ENDBRANCH  24  27
BRANCH  26  29
ATOM     29  O   UNL     1      37.015 -22.224 -14.477  0.00  0.00    -0.503 OA
ATOM     30  H   UNL     1      36.570 -22.245 -13.654  0.00  0.00    +0.292 HD
ENDBRANCH  26  29
ENDBRANCH  20  21
BRANCH  20  31
ATOM     31  O   UNL     1      32.831 -20.968 -18.932  0.00  0.00    -0.382 OA
ATOM     32  H   UNL     1      32.164 -21.432 -19.462  0.00  0.00    +0.211 HD
ENDBRANCH  20  31
ENDBRANCH  19  20
ENDBRANCH   1  19
TORSDOF 9
ENDMDL
MODEL 5
REMARK VINA RESULT:     -10.6      7.438     12.618
REMARK  Name = 71857
REMARK  9 active torsions:
REMARK  status: ('A' for Active; 'I' for Inactive)
REMARK    1  A    between atoms: N_1  and  C_4
REMARK    2  A    between atoms: N_1  and  C_19
REMARK    3  A    between atoms: C_4  and  C_5
REMARK    4  A    between atoms: C_5  and  N_8
REMARK    5  A    between atoms: C_19  and  C_20
REMARK    6  A    between atoms: C_20  and  C_21
REMARK    7  A    between atoms: C_20  and  O_31
REMARK    8  A    between atoms: C_24  and  O_27
REMARK    9  A    between atoms: C_26  and  O_29
REMARK                            x       y       z     vdW  Elec       q    Type
REMARK                         _______ _______ _______ _____ _____    ______ ____
ROOT
ATOM      1  N   UNL     1      32.632 -11.997 -22.439  0.00  0.00    +0.387 N 
ATOM      2  H   UNL     1      32.995 -11.053 -22.572  0.00  0.00    -0.084 HD
ATOM      3  H   UNL     1      31.997 -12.245 -23.198  0.00  0.00    -0.084 HD
ENDROOT
BRANCH   1   4
ATOM      4  C   UNL     1      31.898 -12.053 -21.180  0.00  0.00    -0.064 C 
BRANCH   4   5
ATOM      5  C   UNL     1      30.729 -11.072 -21.210  0.00  0.00    +0.051 C 
BRANCH   5   8
ATOM      6  O   UNL     1      31.428  -9.266 -23.559  0.00  0.00    -0.272 OA
ATOM      7  O   UNL     1      32.670  -4.927 -22.275  0.00  0.00    -0.252 OA
ATOM      8  N   UNL     1      31.082  -9.795 -20.635  0.00  0.00    -0.242 NA
ATOM      9  N   UNL     1      32.103  -6.444 -20.606  0.00  0.00    -0.228 N 
ATOM     10  N   UNL     1      32.054  -7.086 -22.940  0.00  0.00    -0.211 N 
ATOM     11  N   UNL     1      31.455  -8.254 -19.068  0.00  0.00    -0.240 NA
ATOM     12  C   UNL     1      31.468  -8.664 -21.295  0.00  0.00    +0.192 C 
ATOM     13  C   UNL     1      31.690  -7.737 -20.314  0.00  0.00    +0.136 C 
ATOM     14  C   UNL     1      31.631  -8.419 -22.692  0.00  0.00    +0.254 C 
ATOM     15  C   UNL     1      31.090  -9.499 -19.297  0.00  0.00    +0.203 C 
ATOM     16  C   UNL     1      32.304  -6.063 -21.956  0.00  0.00    +0.318 C 
ATOM     17  C   UNL     1      32.329  -5.486 -19.531  0.00  0.00    +0.123 C 
ATOM     18  C   UNL     1      32.256  -6.714 -24.337  0.00  0.00    +0.124 C 
ENDBRANCH   5   8
ENDBRANCH   4   5
ENDBRANCH   1   4
BRANCH   1  19
ATOM     19  C   UNL     1      33.742 -12.939 -22.435  0.00  0.00    -0.047 C 
BRANCH  19  20
ATOM     20  C   UNL     1      33.694 -13.845 -23.672  0.00  0.00    +0.112 C 
BRANCH  20  21
ATOM     21  C   UNL     1      33.992 -15.285 -23.316  0.00  0.00    +0.005 C 
ATOM     22  C   UNL     1      34.485 -15.581 -22.057  0.00  0.00    +0.038 C 
ATOM     23  C   UNL     1      33.768 -16.274 -24.257  0.00  0.00    +0.001 C 
ATOM     24  C   UNL     1      34.761 -16.909 -21.728  0.00  0.00    +0.167 C 
ATOM     25  C   UNL     1      34.043 -17.602 -23.929  0.00  0.00    +0.040 C 
ATOM     26  C   UNL     1      34.540 -17.919 -22.666  0.00  0.00    +0.167 C 
BRANCH  24  27
ATOM     27  O   UNL     1      35.245 -17.206 -20.491  0.00  0.00    -0.503 OA
ATOM     28  H   UNL     1      34.943 -16.729 -19.743  0.00  0.00    +0.292 HD
ENDBRANCH  24  27
BRANCH  26  29
ATOM     29  O   UNL     1      34.804 -19.219 -22.355  0.00  0.00    -0.503 OA
ATOM     30  H   UNL     1      34.177 -19.885 -22.554  0.00  0.00    +0.292 HD
ENDBRANCH  26  29
ENDBRANCH  20  21
BRANCH  20  31
ATOM     31  O   UNL     1      32.401 -13.793 -24.274  0.00  0.00    -0.382 OA
ATOM     32  H   UNL     1      32.431 -14.229 -25.141  0.00  0.00    +0.211 HD
ENDBRANCH  20  31
ENDBRANCH  19  20
ENDBRANCH   1  19
TORSDOF 9
ENDMDL
MODEL 6
REMARK VINA RESULT:     -10.5      1.515      2.221
REMARK  Name = 71857
REMARK  9 active torsions:
REMARK  status: ('A' for Active; 'I' for Inactive)
REMARK    1  A    between atoms: N_1  and  C_4
REMARK    2  A    between atoms: N_1  and  C_19
REMARK    3  A    between atoms: C_4  and  C_5
REMARK    4  A    between atoms: C_5  and  N_8
REMARK    5  A    between atoms: C_19  and  C_20
REMARK    6  A    between atoms: C_20  and  C_21
REMARK    7  A    between atoms: C_20  and  O_31
REMARK    8  A    between atoms: C_24  and  O_27
REMARK    9  A    between atoms: C_26  and  O_29
REMARK                            x       y       z     vdW  Elec       q    Type
REMARK                         _______ _______ _______ _____ _____    ______ ____
ROOT
ATOM      1  N   UNL     1      33.867 -20.647 -19.694  0.00  0.00    +0.387 N 
ATOM      2  H   UNL     1      34.199 -21.488 -20.166  0.00  0.00    -0.084 HD
ATOM      3  H   UNL     1      34.600 -20.257 -19.102  0.00  0.00    -0.084 HD
ENDROOT
BRANCH   1   4
ATOM      4  C   UNL     1      32.723 -20.989 -18.857  0.00  0.00    -0.064 C 
BRANCH   4   5
ATOM      5  C   UNL     1      32.721 -22.485 -18.556  0.00  0.00    +0.051 C 
BRANCH   5   8
ATOM      6  O   UNL     1      35.631 -22.046 -17.774  0.00  0.00    -0.272 OA
ATOM      7  O   UNL     1      36.472 -22.779 -13.216  0.00  0.00    -0.252 OA
ATOM      8  N   UNL     1      32.794 -22.751 -17.139  0.00  0.00    -0.242 NA
ATOM      9  N   UNL     1      34.298 -23.069 -13.991  0.00  0.00    -0.228 N 
ATOM     10  N   UNL     1      36.077 -22.408 -15.495  0.00  0.00    -0.211 N 
ATOM     11  N   UNL     1      32.107 -23.299 -15.090  0.00  0.00    -0.240 NA
ATOM     12  C   UNL     1      33.896 -22.685 -16.336  0.00  0.00    +0.192 C 
ATOM     13  C   UNL     1      33.449 -23.024 -15.089  0.00  0.00    +0.136 C 
ATOM     14  C   UNL     1      35.248 -22.347 -16.647  0.00  0.00    +0.254 C 
ATOM     15  C   UNL     1      31.742 -23.125 -16.344  0.00  0.00    +0.203 C 
ATOM     16  C   UNL     1      35.670 -22.756 -14.157  0.00  0.00    +0.318 C 
ATOM     17  C   UNL     1      33.781 -23.437 -12.678  0.00  0.00    +0.123 C 
ATOM     18  C   UNL     1      37.487 -22.082 -15.687  0.00  0.00    +0.124 C 
ENDBRANCH   5   8
ENDBRANCH   4   5
ENDBRANCH   1   4
BRANCH   1  19
ATOM     19  C   UNL     1      33.500 -19.654 -20.694  0.00  0.00    -0.047 C 
BRANCH  19  20
ATOM     20  C   UNL     1      34.743 -19.125 -21.420  0.00  0.00    +0.112 C 
BRANCH  20  21
ATOM     21  C   UNL     1      34.372 -18.142 -22.509  0.00  0.00    +0.005 C 
ATOM     22  C   UNL     1      34.714 -16.809 -22.361  0.00  0.00    +0.038 C 
ATOM     23  C   UNL     1      33.697 -18.596 -23.628  0.00  0.00    +0.001 C 
ATOM     24  C   UNL     1      34.371 -15.902 -23.365  0.00  0.00    +0.167 C 
ATOM     25  C   UNL     1      33.354 -17.691 -24.632  0.00  0.00    +0.040 C 
ATOM     26  C   UNL     1      33.691 -16.344 -24.500  0.00  0.00    +0.167 C 
BRANCH  24  27
ATOM     27  O   UNL     1      34.707 -14.590 -23.225  0.00  0.00    -0.503 OA
ATOM     28  H   UNL     1      34.111 -13.922 -23.502  0.00  0.00    +0.292 HD
ENDBRANCH  24  27
BRANCH  26  29
ATOM     29  O   UNL     1      33.352 -15.468 -25.487  0.00  0.00    -0.503 OA
ATOM     30  H   UNL     1      32.465 -15.412 -25.781  0.00  0.00    +0.292 HD
ENDBRANCH  26  29
ENDBRANCH  20  21
BRANCH  20  31
ATOM     31  O   UNL     1      35.611 -18.465 -20.500  0.00  0.00    -0.382 OA
ATOM     32  H   UNL     1      35.422 -17.513 -20.504  0.00  0.00    +0.211 HD
ENDBRANCH  20  31
ENDBRANCH  19  20
ENDBRANCH   1  19
TORSDOF 9
ENDMDL
MODEL 7
REMARK VINA RESULT:     -10.4      1.526      2.140
REMARK  Name = 71857
REMARK  9 active torsions:
REMARK  status: ('A' for Active; 'I' for Inactive)
REMARK    1  A    between atoms: N_1  and  C_4
REMARK    2  A    between atoms: N_1  and  C_19
REMARK    3  A    between atoms: C_4  and  C_5
REMARK    4  A    between atoms: C_5  and  N_8
REMARK    5  A    between atoms: C_19  and  C_20
REMARK    6  A    between atoms: C_20  and  C_21
REMARK    7  A    between atoms: C_20  and  O_31
REMARK    8  A    between atoms: C_24  and  O_27
REMARK    9  A    between atoms: C_26  and  O_29
REMARK                            x       y       z     vdW  Elec       q    Type
REMARK                         _______ _______ _______ _____ _____    ______ ____
ROOT
ATOM      1  N   UNL     1      35.348 -18.168 -20.826  0.00  0.00    +0.387 N 
ATOM      2  H   UNL     1      36.247 -18.368 -20.389  0.00  0.00    -0.084 HD
ATOM      3  H   UNL     1      34.821 -17.497 -20.266  0.00  0.00    -0.084 HD
ENDROOT
BRANCH   1   4
ATOM      4  C   UNL     1      34.577 -19.402 -20.920  0.00  0.00    -0.064 C 
BRANCH   4   5
ATOM      5  C   UNL     1      35.153 -20.454 -19.977  0.00  0.00    +0.051 C 
BRANCH   5   8
ATOM      6  O   UNL     1      36.562 -21.474 -17.477  0.00  0.00    -0.272 OA
ATOM      7  O   UNL     1      33.683 -23.621 -14.456  0.00  0.00    -0.252 OA
ATOM      8  N   UNL     1      34.129 -21.077 -19.173  0.00  0.00    -0.242 NA
ATOM      9  N   UNL     1      32.776 -22.779 -16.426  0.00  0.00    -0.228 N 
ATOM     10  N   UNL     1      35.139 -22.554 -15.949  0.00  0.00    -0.211 N 
ATOM     11  N   UNL     1      32.103 -21.793 -18.578  0.00  0.00    -0.240 NA
ATOM     12  C   UNL     1      34.278 -21.680 -17.956  0.00  0.00    +0.192 C 
ATOM     13  C   UNL     1      33.025 -22.109 -17.616  0.00  0.00    +0.136 C 
ATOM     14  C   UNL     1      35.443 -21.865 -17.153  0.00  0.00    +0.254 C 
ATOM     15  C   UNL     1      32.803 -21.171 -19.505  0.00  0.00    +0.203 C 
ATOM     16  C   UNL     1      33.845 -23.031 -15.530  0.00  0.00    +0.318 C 
ATOM     17  C   UNL     1      31.426 -23.220 -16.100  0.00  0.00    +0.123 C 
ATOM     18  C   UNL     1      36.254 -22.804 -15.040  0.00  0.00    +0.124 C 
ENDBRANCH   5   8
ENDBRANCH   4   5
ENDBRANCH   1   4
BRANCH   1  19
ATOM     19  C   UNL     1      35.575 -17.595 -22.145  0.00  0.00    -0.047 C 
BRANCH  19  20
ATOM     20  C   UNL     1      34.264 -17.509 -22.936  0.00  0.00    +0.112 C 
BRANCH  20  21
ATOM     21  C   UNL     1      33.937 -16.080 -23.312  0.00  0.00    +0.005 C 
ATOM     22  C   UNL     1      34.144 -15.073 -22.386  0.00  0.00    +0.038 C 
ATOM     23  C   UNL     1      33.436 -15.811 -24.574  0.00  0.00    +0.001 C 
ATOM     24  C   UNL     1      33.842 -13.756 -22.732  0.00  0.00    +0.167 C 
ATOM     25  C   UNL     1      33.134 -14.494 -24.921  0.00  0.00    +0.040 C 
ATOM     26  C   UNL     1      33.337 -13.467 -23.999  0.00  0.00    +0.167 C 
BRANCH  24  27
ATOM     27  O   UNL     1      34.046 -12.761 -21.824  0.00  0.00    -0.503 OA
ATOM     28  H   UNL     1      33.461 -12.662 -21.099  0.00  0.00    +0.292 HD
ENDBRANCH  24  27
BRANCH  26  29
ATOM     29  O   UNL     1      33.040 -12.184 -24.349  0.00  0.00    -0.503 OA
ATOM     30  H   UNL     1      33.545 -11.748 -25.006  0.00  0.00    +0.292 HD
ENDBRANCH  26  29
ENDBRANCH  20  21
BRANCH  20  31
ATOM     31  O   UNL     1      34.358 -18.275 -24.136  0.00  0.00    -0.382 OA
ATOM     32  H   UNL     1      34.818 -17.756 -24.816  0.00  0.00    +0.211 HD
ENDBRANCH  20  31
ENDBRANCH  19  20
ENDBRANCH   1  19
TORSDOF 9
ENDMDL
MODEL 8
REMARK VINA RESULT:     -10.3      2.448      4.116
REMARK  Name = 71857
REMARK  9 active torsions:
REMARK  status: ('A' for Active; 'I' for Inactive)
REMARK    1  A    between atoms: N_1  and  C_4
REMARK    2  A    between atoms: N_1  and  C_19
REMARK    3  A    between atoms: C_4  and  C_5
REMARK    4  A    between atoms: C_5  and  N_8
REMARK    5  A    between atoms: C_19  and  C_20
REMARK    6  A    between atoms: C_20  and  C_21
REMARK    7  A    between atoms: C_20  and  O_31
REMARK    8  A    between atoms: C_24  and  O_27
REMARK    9  A    between atoms: C_26  and  O_29
REMARK                            x       y       z     vdW  Elec       q    Type
REMARK                         _______ _______ _______ _____ _____    ______ ____
ROOT
ATOM      1  N   UNL     1      32.970 -22.758 -18.157  0.00  0.00    +0.387 N 
ATOM      2  H   UNL     1      32.053 -23.066 -18.481  0.00  0.00    -0.084 HD
ATOM      3  H   UNL     1      33.695 -23.397 -18.481  0.00  0.00    -0.084 HD
ENDROOT
BRANCH   1   4
ATOM      4  C   UNL     1      32.980 -22.744 -16.699  0.00  0.00    -0.064 C 
BRANCH   4   5
ATOM      5  C   UNL     1      34.158 -23.558 -16.173  0.00  0.00    +0.051 C 
BRANCH   5   8
ATOM      6  O   UNL     1      37.044 -24.093 -15.364  0.00  0.00    -0.272 OA
ATOM      7  O   UNL     1      37.644 -24.474 -10.725  0.00  0.00    -0.252 OA
ATOM      8  N   UNL     1      34.155 -23.644 -14.732  0.00  0.00    -0.242 NA
ATOM      9  N   UNL     1      35.497 -24.065 -11.524  0.00  0.00    -0.228 N 
ATOM     10  N   UNL     1      37.369 -24.288 -13.044  0.00  0.00    -0.211 N 
ATOM     11  N   UNL     1      33.352 -23.636 -12.652  0.00  0.00    -0.240 NA
ATOM     12  C   UNL     1      35.221 -23.873 -13.910  0.00  0.00    +0.192 C 
ATOM     13  C   UNL     1      34.702 -23.863 -12.644  0.00  0.00    +0.136 C 
ATOM     14  C   UNL     1      36.598 -24.086 -14.219  0.00  0.00    +0.254 C 
ATOM     15  C   UNL     1      33.052 -23.509 -13.929  0.00  0.00    +0.203 C 
ATOM     16  C   UNL     1      36.887 -24.289 -11.685  0.00  0.00    +0.318 C 
ATOM     17  C   UNL     1      34.906 -24.048 -10.191  0.00  0.00    +0.123 C 
ATOM     18  C   UNL     1      38.799 -24.517 -13.232  0.00  0.00    +0.124 C 
ENDBRANCH   5   8
ENDBRANCH   4   5
ENDBRANCH   1   4
BRANCH   1  19
ATOM     19  C   UNL     1      33.244 -21.433 -18.692  0.00  0.00    -0.047 C 
BRANCH  19  20
ATOM     20  C   UNL     1      34.662 -21.361 -19.272  0.00  0.00    +0.112 C 
BRANCH  20  21
ATOM     21  C   UNL     1      34.803 -20.215 -20.250  0.00  0.00    +0.005 C 
ATOM     22  C   UNL     1      36.041 -19.622 -20.423  0.00  0.00    +0.038 C 
ATOM     23  C   UNL     1      33.690 -19.783 -20.949  0.00  0.00    +0.001 C 
ATOM     24  C   UNL     1      36.171 -18.565 -21.324  0.00  0.00    +0.167 C 
ATOM     25  C   UNL     1      33.818 -18.727 -21.851  0.00  0.00    +0.040 C 
ATOM     26  C   UNL     1      35.059 -18.117 -22.037  0.00  0.00    +0.167 C 
BRANCH  24  27
ATOM     27  O   UNL     1      37.388 -17.979 -21.498  0.00  0.00    -0.503 OA
ATOM     28  H   UNL     1      38.021 -18.373 -22.065  0.00  0.00    +0.292 HD
ENDBRANCH  24  27
BRANCH  26  29
ATOM     29  O   UNL     1      35.174 -17.087 -22.921  0.00  0.00    -0.503 OA
ATOM     30  H   UNL     1      35.954 -16.569 -22.939  0.00  0.00    +0.292 HD
ENDBRANCH  26  29
ENDBRANCH  20  21
BRANCH  20  31
ATOM     31  O   UNL     1      35.616 -21.176 -18.228  0.00  0.00    -0.382 OA
ATOM     32  H   UNL     1      35.156 -20.936 -17.408  0.00  0.00    +0.211 HD
ENDBRANCH  20  31
ENDBRANCH  19  20
ENDBRANCH   1  19
TORSDOF 9
ENDMDL
MODEL 9
REMARK VINA RESULT:     -10.0      4.902     10.911
REMARK  Name = 71857
REMARK  9 active torsions:
REMARK  status: ('A' for Active; 'I' for Inactive)
REMARK    1  A    between atoms: N_1  and  C_4
REMARK    2  A    between atoms: N_1  and  C_19
REMARK    3  A    between atoms: C_4  and  C_5
REMARK    4  A    between atoms: C_5  and  N_8
REMARK    5  A    between atoms: C_19  and  C_20
REMARK    6  A    between atoms: C_20  and  C_21
REMARK    7  A    between atoms: C_20  and  O_31
REMARK    8  A    between atoms: C_24  and  O_27
REMARK    9  A    between atoms: C_26  and  O_29
REMARK                            x       y       z     vdW  Elec       q    Type
REMARK                         _______ _______ _______ _____ _____    ______ ____
ROOT
ATOM      1  N   UNL     1      34.215 -16.105 -22.670  0.00  0.00    +0.387 N 
ATOM      2  H   UNL     1      34.820 -16.260 -23.476  0.00  0.00    -0.084 HD
ATOM      3  H   UNL     1      33.247 -16.327 -22.902  0.00  0.00    -0.084 HD
ENDROOT
BRANCH   1   4
ATOM      4  C   UNL     1      34.291 -14.702 -22.281  0.00  0.00    -0.064 C 
BRANCH   4   5
ATOM      5  C   UNL     1      33.080 -13.942 -22.814  0.00  0.00    +0.051 C 
BRANCH   5   8
ATOM      6  O   UNL     1      32.831 -11.225 -24.166  0.00  0.00    -0.272 OA
ATOM      7  O   UNL     1      31.038  -7.906 -21.374  0.00  0.00    -0.252 OA
ATOM      8  N   UNL     1      32.518 -13.057 -21.821  0.00  0.00    -0.242 NA
ATOM      9  N   UNL     1      31.301 -10.048 -20.504  0.00  0.00    -0.228 N 
ATOM     10  N   UNL     1      31.935  -9.546 -22.786  0.00  0.00    -0.211 N 
ATOM     11  N   UNL     1      31.691 -12.392 -19.861  0.00  0.00    -0.240 NA
ATOM     12  C   UNL     1      32.222 -11.731 -21.961  0.00  0.00    +0.192 C 
ATOM     13  C   UNL     1      31.718 -11.349 -20.748  0.00  0.00    +0.136 C 
ATOM     14  C   UNL     1      32.374 -10.864 -23.084  0.00  0.00    +0.254 C 
ATOM     15  C   UNL     1      32.182 -13.408 -20.540  0.00  0.00    +0.203 C 
ATOM     16  C   UNL     1      31.395  -9.079 -21.533  0.00  0.00    +0.318 C 
ATOM     17  C   UNL     1      30.770  -9.681 -19.197  0.00  0.00    +0.123 C 
ATOM     18  C   UNL     1      32.041  -8.563 -23.860  0.00  0.00    +0.124 C 
ENDBRANCH   5   8
ENDBRANCH   4   5
ENDBRANCH   1   4
BRANCH   1  19
ATOM     19  C   UNL     1      34.642 -16.970 -21.580  0.00  0.00    -0.047 C 
BRANCH  19  20
ATOM     20  C   UNL     1      34.897 -18.396 -22.083  0.00  0.00    +0.112 C 
BRANCH  20  21
ATOM     21  C   UNL     1      34.719 -19.413 -20.977  0.00  0.00    +0.005 C 
ATOM     22  C   UNL     1      33.442 -19.825 -20.637  0.00  0.00    +0.038 C 
ATOM     23  C   UNL     1      35.836 -19.910 -20.329  0.00  0.00    +0.001 C 
ATOM     24  C   UNL     1      33.276 -20.762 -19.617  0.00  0.00    +0.167 C 
ATOM     25  C   UNL     1      35.672 -20.848 -19.310  0.00  0.00    +0.040 C 
ATOM     26  C   UNL     1      34.392 -21.273 -18.954  0.00  0.00    +0.167 C 
BRANCH  24  27
ATOM     27  O   UNL     1      32.022 -21.170 -19.280  0.00  0.00    -0.503 OA
ATOM     28  H   UNL     1      31.313 -21.054 -19.881  0.00  0.00    +0.292 HD
ENDBRANCH  24  27
BRANCH  26  29
ATOM     29  O   UNL     1      34.243 -22.190 -17.957  0.00  0.00    -0.503 OA
ATOM     30  H   UNL     1      33.798 -21.957 -17.167  0.00  0.00    +0.292 HD
ENDBRANCH  26  29
ENDBRANCH  20  21
BRANCH  20  31
ATOM     31  O   UNL     1      33.993 -18.720 -23.137  0.00  0.00    -0.382 OA
ATOM     32  H   UNL     1      33.566 -19.570 -22.947  0.00  0.00    +0.211 HD
ENDBRANCH  20  31
ENDBRANCH  19  20
ENDBRANCH   1  19
TORSDOF 9
ENDMDL
