MODEL 1
REMARK VINA RESULT:     -10.9      0.000      0.000
REMARK  Name = 4369141
REMARK  13 active torsions:
REMARK  status: ('A' for Active; 'I' for Inactive)
REMARK    1  A    between atoms: C_1  and  C_4
REMARK    2  A    between atoms: C_1  and  N_19
REMARK    3  A    between atoms: C_1  and  C_35
REMARK    4  A    between atoms: N_3  and  C_6
REMARK    5  A    between atoms: C_6  and  C_9
REMARK    6  A    between atoms: N_8  and  C_11
REMARK    7  A    between atoms: C_11  and  C_12
REMARK    8  A    between atoms: C_11  and  C_16
REMARK    9  A    between atoms: C_16  and  O_17
REMARK   10  A    between atoms: N_19  and  C_22
REMARK   11  A    between atoms: C_22  and  C_23
REMARK   12  A    between atoms: C_26  and  C_29
REMARK   13  A    between atoms: C_35  and  S_36
REMARK                            x       y       z     vdW  Elec       q    Type
REMARK                         _______ _______ _______ _____ _____    ______ ____
ROOT
ATOM      1  C   UNL     1      32.038 -22.650 -15.248  0.00  0.00    +0.028 C 
ENDROOT
BRANCH   1   4
ATOM      2  O   UNL     1      31.787 -24.545 -13.758  0.00  0.00    -0.277 OA
ATOM      3  N   UNL     1      33.511 -23.044 -13.352  0.00  0.00    -0.298 N 
ATOM      4  C   UNL     1      32.401 -23.520 -14.048  0.00  0.00    +0.204 C 
ATOM      5  H   UNL     1      33.939 -22.212 -13.658  0.00  0.00    +0.150 HD
BRANCH   3   6
ATOM      6  C   UNL     1      34.053 -23.716 -12.209  0.00  0.00    +0.176 C 
BRANCH   6   9
ATOM      7  O   UNL     1      36.294 -23.517 -11.330  0.00  0.00    -0.273 OA
ATOM      8  N   UNL     1      36.001 -23.950 -13.594  0.00  0.00    -0.295 N 
ATOM      9  C   UNL     1      35.564 -23.727 -12.295  0.00  0.00    +0.243 C 
ATOM     10  H   UNL     1      35.325 -24.108 -14.293  0.00  0.00    +0.150 HD
BRANCH   8  11
ATOM     11  C   UNL     1      37.391 -23.962 -13.974  0.00  0.00    +0.171 C 
BRANCH  11  12
ATOM     12  C   UNL     1      37.928 -25.384 -14.242  0.00  0.00    +0.029 C 
ATOM     13  C   UNL     1      39.308 -25.586 -13.610  0.00  0.00    +0.002 C 
ATOM     14  C   UNL     1      36.973 -26.489 -13.776  0.00  0.00    +0.002 C 
ENDBRANCH  11  12
BRANCH  11  16
ATOM     15  O   UNL     1      38.769 -22.885 -15.644  0.00  0.00    -0.248 OA
ATOM     16  C   UNL     1      37.654 -23.038 -15.158  0.00  0.00    +0.335 C 
BRANCH  16  17
ATOM     17  O   UNL     1      36.518 -22.420 -15.591  0.00  0.00    -0.443 OA
ATOM     18  C   UNL     1      36.687 -21.090 -16.095  0.00  0.00    +0.256 C 
ENDBRANCH  16  17
ENDBRANCH  11  16
ENDBRANCH   8  11
ENDBRANCH   6   9
ENDBRANCH   3   6
ENDBRANCH   1   4
BRANCH   1  19
ATOM     19  N   UNL     1      33.266 -22.543 -16.040  0.00  0.00    +0.394 N 
ATOM     20  H   UNL     1      33.997 -23.102 -15.602  0.00  0.00    -0.083 HD
ATOM     21  H   UNL     1      33.546 -21.563 -16.082  0.00  0.00    -0.083 HD
BRANCH  19  22
ATOM     22  C   UNL     1      33.045 -23.023 -17.395  0.00  0.00    -0.053 C 
BRANCH  22  23
ATOM     23  C   UNL     1      33.327 -21.958 -18.420  0.00  0.00    -0.044 C 
ATOM     24  C   UNL     1      32.284 -21.175 -18.916  0.00  0.00    -0.006 C 
ATOM     25  C   UNL     1      34.630 -21.755 -18.876  0.00  0.00    -0.006 C 
ATOM     26  C   UNL     1      33.848 -19.985 -20.322  0.00  0.00    -0.000 C 
ATOM     27  C   UNL     1      32.545 -20.188 -19.867  0.00  0.00    -0.000 C 
ATOM     28  C   UNL     1      34.890 -20.767 -19.827  0.00  0.00    -0.000 C 
BRANCH  26  29
ATOM     29  C   UNL     1      34.117 -18.961 -21.308  0.00  0.00    -0.000 C 
ATOM     30  C   UNL     1      34.813 -17.808 -20.944  0.00  0.00    -0.000 C 
ATOM     31  C   UNL     1      33.684 -19.127 -22.623  0.00  0.00    -0.000 C 
ATOM     32  C   UNL     1      35.074 -16.821 -21.895  0.00  0.00    +0.000 C 
ATOM     33  C   UNL     1      33.945 -18.141 -23.574  0.00  0.00    +0.000 C 
ATOM     34  C   UNL     1      34.640 -16.988 -23.209  0.00  0.00    +0.000 C 
ENDBRANCH  26  29
ENDBRANCH  22  23
ENDBRANCH  19  22
ENDBRANCH   1  19
BRANCH   1  35
ATOM     35  C   UNL     1      30.938 -23.269 -16.115  0.00  0.00    +0.041 C 
BRANCH  35  36
ATOM     36  S   UNL     1      29.292 -22.655 -15.636  0.00  0.00    -0.170 S 
ATOM     37  H   UNL     1      28.735 -21.986 -16.682  0.00  0.00    +0.102 HD
ENDBRANCH  35  36
ENDBRANCH   1  35
TORSDOF 13
ENDMDL
MODEL 2
REMARK VINA RESULT:     -10.8      9.011     13.654
REMARK  Name = 4369141
REMARK  13 active torsions:
REMARK  status: ('A' for Active; 'I' for Inactive)
REMARK    1  A    between atoms: C_1  and  C_4
REMARK    2  A    between atoms: C_1  and  N_19
REMARK    3  A    between atoms: C_1  and  C_35
REMARK    4  A    between atoms: N_3  and  C_6
REMARK    5  A    between atoms: C_6  and  C_9
REMARK    6  A    between atoms: N_8  and  C_11
REMARK    7  A    between atoms: C_11  and  C_12
REMARK    8  A    between atoms: C_11  and  C_16
REMARK    9  A    between atoms: C_16  and  O_17
REMARK   10  A    between atoms: N_19  and  C_22
REMARK   11  A    between atoms: C_22  and  C_23
REMARK   12  A    between atoms: C_26  and  C_29
REMARK   13  A    between atoms: C_35  and  S_36
REMARK                            x       y       z     vdW  Elec       q    Type
REMARK                         _______ _______ _______ _____ _____    ______ ____
ROOT
ATOM      1  C   UNL     1      33.393 -13.126 -23.540  0.00  0.00    +0.028 C 
ENDROOT
BRANCH   1   4
ATOM      2  O   UNL     1      32.609 -13.676 -21.313  0.00  0.00    -0.277 OA
ATOM      3  N   UNL     1      31.881 -11.695 -22.281  0.00  0.00    -0.298 N 
ATOM      4  C   UNL     1      32.592 -12.894 -22.261  0.00  0.00    +0.204 C 
ATOM      5  H   UNL     1      31.927 -11.131 -23.086  0.00  0.00    +0.150 HD
BRANCH   3   6
ATOM      6  C   UNL     1      31.083 -11.253 -21.175  0.00  0.00    +0.176 C 
BRANCH   6   9
ATOM      7  O   UNL     1      30.860  -9.152 -20.004  0.00  0.00    -0.273 OA
ATOM      8  N   UNL     1      31.814  -9.170 -22.123  0.00  0.00    -0.295 N 
ATOM      9  C   UNL     1      31.241  -9.757 -21.003  0.00  0.00    +0.243 C 
ATOM     10  H   UNL     1      32.084  -9.754 -22.870  0.00  0.00    +0.150 HD
BRANCH   8  11
ATOM     11  C   UNL     1      32.035  -7.752 -22.251  0.00  0.00    +0.171 C 
BRANCH  11  12
ATOM     12  C   UNL     1      33.166  -7.407 -23.244  0.00  0.00    +0.029 C 
ATOM     13  C   UNL     1      33.952  -6.176 -22.786  0.00  0.00    +0.002 C 
ATOM     14  C   UNL     1      34.125  -8.576 -23.498  0.00  0.00    +0.002 C 
ENDBRANCH  11  12
BRANCH  11  16
ATOM     15  O   UNL     1      30.028  -7.349 -23.539  0.00  0.00    -0.248 OA
ATOM     16  C   UNL     1      30.746  -7.016 -22.602  0.00  0.00    +0.335 C 
BRANCH  16  17
ATOM     17  O   UNL     1      30.505  -5.970 -21.763  0.00  0.00    -0.443 OA
ATOM     18  C   UNL     1      30.409  -4.683 -22.385  0.00  0.00    +0.256 C 
ENDBRANCH  16  17
ENDBRANCH  11  16
ENDBRANCH   8  11
ENDBRANCH   6   9
ENDBRANCH   3   6
ENDBRANCH   1   4
BRANCH   1  19
ATOM     19  N   UNL     1      33.008 -14.462 -24.005  0.00  0.00    +0.394 N 
ATOM     20  H   UNL     1      32.494 -14.376 -24.881  0.00  0.00    -0.083 HD
ATOM     21  H   UNL     1      32.423 -14.901 -23.293  0.00  0.00    -0.083 HD
BRANCH  19  22
ATOM     22  C   UNL     1      34.184 -15.288 -24.220  0.00  0.00    -0.053 C 
BRANCH  22  23
ATOM     23  C   UNL     1      34.251 -16.433 -23.245  0.00  0.00    -0.044 C 
ATOM     24  C   UNL     1      34.717 -16.218 -21.947  0.00  0.00    -0.006 C 
ATOM     25  C   UNL     1      33.848 -17.710 -23.638  0.00  0.00    -0.006 C 
ATOM     26  C   UNL     1      34.376 -18.555 -21.437  0.00  0.00    -0.000 C 
ATOM     27  C   UNL     1      34.779 -17.278 -21.044  0.00  0.00    -0.000 C 
ATOM     28  C   UNL     1      33.911 -18.770 -22.734  0.00  0.00    -0.000 C 
BRANCH  26  29
ATOM     29  C   UNL     1      34.440 -19.654 -20.500  0.00  0.00    -0.000 C 
ATOM     30  C   UNL     1      33.266 -20.257 -20.049  0.00  0.00    -0.000 C 
ATOM     31  C   UNL     1      35.677 -20.113 -20.048  0.00  0.00    -0.000 C 
ATOM     32  C   UNL     1      33.328 -21.318 -19.146  0.00  0.00    +0.000 C 
ATOM     33  C   UNL     1      35.740 -21.175 -19.144  0.00  0.00    +0.000 C 
ATOM     34  C   UNL     1      34.565 -21.776 -18.694  0.00  0.00    +0.000 C 
ENDBRANCH  26  29
ENDBRANCH  22  23
ENDBRANCH  19  22
ENDBRANCH   1  19
BRANCH   1  35
ATOM     35  C   UNL     1      33.068 -12.105 -24.634  0.00  0.00    +0.041 C 
BRANCH  35  36
ATOM     36  S   UNL     1      32.651 -12.926 -26.205  0.00  0.00    -0.170 S 
ATOM     37  H   UNL     1      32.369 -14.237 -25.971  0.00  0.00    +0.102 HD
ENDBRANCH  35  36
ENDBRANCH   1  35
TORSDOF 13
ENDMDL
MODEL 3
REMARK VINA RESULT:     -10.6      8.766     13.586
REMARK  Name = 4369141
REMARK  13 active torsions:
REMARK  status: ('A' for Active; 'I' for Inactive)
REMARK    1  A    between atoms: C_1  and  C_4
REMARK    2  A    between atoms: C_1  and  N_19
REMARK    3  A    between atoms: C_1  and  C_35
REMARK    4  A    between atoms: N_3  and  C_6
REMARK    5  A    between atoms: C_6  and  C_9
REMARK    6  A    between atoms: N_8  and  C_11
REMARK    7  A    between atoms: C_11  and  C_12
REMARK    8  A    between atoms: C_11  and  C_16
REMARK    9  A    between atoms: C_16  and  O_17
REMARK   10  A    between atoms: N_19  and  C_22
REMARK   11  A    between atoms: C_22  and  C_23
REMARK   12  A    between atoms: C_26  and  C_29
REMARK   13  A    between atoms: C_35  and  S_36
REMARK                            x       y       z     vdW  Elec       q    Type
REMARK                         _______ _______ _______ _____ _____    ______ ____
ROOT
ATOM      1  C   UNL     1      33.321 -13.817 -23.082  0.00  0.00    +0.028 C 
ENDROOT
BRANCH   1   4
ATOM      2  O   UNL     1      32.650 -12.810 -25.182  0.00  0.00    -0.277 OA
ATOM      3  N   UNL     1      32.738 -11.464 -23.293  0.00  0.00    -0.298 N 
ATOM      4  C   UNL     1      32.880 -12.667 -23.983  0.00  0.00    +0.204 C 
ATOM      5  H   UNL     1      32.945 -11.444 -22.331  0.00  0.00    +0.150 HD
BRANCH   3   6
ATOM      6  C   UNL     1      32.303 -10.255 -23.927  0.00  0.00    +0.176 C 
BRANCH   6   9
ATOM      7  O   UNL     1      34.029  -8.670 -23.346  0.00  0.00    -0.273 OA
ATOM      8  N   UNL     1      31.957  -8.517 -22.306  0.00  0.00    -0.295 N 
ATOM      9  C   UNL     1      32.876  -9.062 -23.193  0.00  0.00    +0.243 C 
ATOM     10  H   UNL     1      31.055  -8.913 -22.266  0.00  0.00    +0.150 HD
BRANCH   8  11
ATOM     11  C   UNL     1      32.252  -7.403 -21.441  0.00  0.00    +0.171 C 
BRANCH  11  12
ATOM     12  C   UNL     1      31.692  -6.066 -21.971  0.00  0.00    +0.029 C 
ATOM     13  C   UNL     1      32.771  -5.262 -22.702  0.00  0.00    +0.002 C 
ATOM     14  C   UNL     1      30.467  -6.240 -22.876  0.00  0.00    +0.002 C 
ENDBRANCH  11  12
BRANCH  11  16
ATOM     15  O   UNL     1      32.022  -6.898 -19.087  0.00  0.00    -0.248 OA
ATOM     16  C   UNL     1      31.791  -7.670 -20.012  0.00  0.00    +0.335 C 
BRANCH  16  17
ATOM     17  O   UNL     1      31.111  -8.845 -19.901  0.00  0.00    -0.443 OA
ATOM     18  C   UNL     1      31.420  -9.637 -18.748  0.00  0.00    +0.256 C 
ENDBRANCH  16  17
ENDBRANCH  11  16
ENDBRANCH   8  11
ENDBRANCH   6   9
ENDBRANCH   3   6
ENDBRANCH   1   4
BRANCH   1  19
ATOM     19  N   UNL     1      34.516 -14.377 -23.719  0.00  0.00    +0.394 N 
ATOM     20  H   UNL     1      35.252 -14.477 -23.021  0.00  0.00    -0.083 HD
ATOM     21  H   UNL     1      34.818 -13.746 -24.462  0.00  0.00    -0.083 HD
BRANCH  19  22
ATOM     22  C   UNL     1      34.226 -15.677 -24.299  0.00  0.00    -0.053 C 
BRANCH  22  23
ATOM     23  C   UNL     1      34.270 -16.774 -23.268  0.00  0.00    -0.044 C 
ATOM     24  C   UNL     1      34.823 -16.527 -22.011  0.00  0.00    -0.006 C 
ATOM     25  C   UNL     1      33.760 -18.037 -23.570  0.00  0.00    -0.006 C 
ATOM     26  C   UNL     1      34.353 -18.805 -21.358  0.00  0.00    -0.000 C 
ATOM     27  C   UNL     1      34.864 -17.542 -21.056  0.00  0.00    -0.000 C 
ATOM     28  C   UNL     1      33.802 -19.052 -22.614  0.00  0.00    -0.000 C 
BRANCH  26  29
ATOM     29  C   UNL     1      34.396 -19.858 -20.367  0.00  0.00    -0.000 C 
ATOM     30  C   UNL     1      33.213 -20.456 -19.933  0.00  0.00    -0.000 C 
ATOM     31  C   UNL     1      35.621 -20.277 -19.847  0.00  0.00    -0.000 C 
ATOM     32  C   UNL     1      33.255 -21.472 -18.977  0.00  0.00    +0.000 C 
ATOM     33  C   UNL     1      35.663 -21.293 -18.892  0.00  0.00    +0.000 C 
ATOM     34  C   UNL     1      34.479 -21.890 -18.458  0.00  0.00    +0.000 C 
ENDBRANCH  26  29
ENDBRANCH  22  23
ENDBRANCH  19  22
ENDBRANCH   1  19
BRANCH   1  35
ATOM     35  C   UNL     1      33.680 -13.355 -21.668  0.00  0.00    +0.041 C 
BRANCH  35  36
ATOM     36  S   UNL     1      32.270 -13.543 -20.531  0.00  0.00    -0.170 S 
ATOM     37  H   UNL     1      31.223 -14.103 -21.196  0.00  0.00    +0.102 HD
ENDBRANCH  35  36
ENDBRANCH   1  35
TORSDOF 13
ENDMDL
MODEL 4
REMARK VINA RESULT:     -10.6      9.215     13.838
REMARK  Name = 4369141
REMARK  13 active torsions:
REMARK  status: ('A' for Active; 'I' for Inactive)
REMARK    1  A    between atoms: C_1  and  C_4
REMARK    2  A    between atoms: C_1  and  N_19
REMARK    3  A    between atoms: C_1  and  C_35
REMARK    4  A    between atoms: N_3  and  C_6
REMARK    5  A    between atoms: C_6  and  C_9
REMARK    6  A    between atoms: N_8  and  C_11
REMARK    7  A    between atoms: C_11  and  C_12
REMARK    8  A    between atoms: C_11  and  C_16
REMARK    9  A    between atoms: C_16  and  O_17
REMARK   10  A    between atoms: N_19  and  C_22
REMARK   11  A    between atoms: C_22  and  C_23
REMARK   12  A    between atoms: C_26  and  C_29
REMARK   13  A    between atoms: C_35  and  S_36
REMARK                            x       y       z     vdW  Elec       q    Type
REMARK                         _______ _______ _______ _____ _____    ______ ____
ROOT
ATOM      1  C   UNL     1      33.381 -14.086 -23.056  0.00  0.00    +0.028 C 
ENDROOT
BRANCH   1   4
ATOM      2  O   UNL     1      32.565 -12.879 -24.993  0.00  0.00    -0.277 OA
ATOM      3  N   UNL     1      33.129 -11.667 -23.095  0.00  0.00    -0.298 N 
ATOM      4  C   UNL     1      32.987 -12.837 -23.839  0.00  0.00    +0.204 C 
ATOM      5  H   UNL     1      33.476 -11.730 -22.176  0.00  0.00    +0.150 HD
BRANCH   3   6
ATOM      6  C   UNL     1      32.789 -10.375 -23.614  0.00  0.00    +0.176 C 
BRANCH   6   9
ATOM      7  O   UNL     1      30.908 -10.367 -22.099  0.00  0.00    -0.273 OA
ATOM      8  N   UNL     1      31.843  -8.342 -22.752  0.00  0.00    -0.295 N 
ATOM      9  C   UNL     1      31.750  -9.728 -22.725  0.00  0.00    +0.243 C 
ATOM     10  H   UNL     1      32.561  -7.933 -23.289  0.00  0.00    +0.150 HD
BRANCH   8  11
ATOM     11  C   UNL     1      30.945  -7.471 -22.036  0.00  0.00    +0.171 C 
BRANCH  11  12
ATOM     12  C   UNL     1      31.568  -6.896 -20.747  0.00  0.00    +0.029 C 
ATOM     13  C   UNL     1      31.483  -7.898 -19.592  0.00  0.00    +0.002 C 
ATOM     14  C   UNL     1      33.018  -6.432 -20.930  0.00  0.00    +0.002 C 
ENDBRANCH  11  12
BRANCH  11  16
ATOM     15  O   UNL     1      30.363  -6.465 -24.157  0.00  0.00    -0.248 OA
ATOM     16  C   UNL     1      30.409  -6.363 -22.936  0.00  0.00    +0.335 C 
BRANCH  16  17
ATOM     17  O   UNL     1      30.001  -5.274 -22.224  0.00  0.00    -0.443 OA
ATOM     18  C   UNL     1      30.463  -4.007 -22.706  0.00  0.00    +0.256 C 
ENDBRANCH  16  17
ENDBRANCH  11  16
ENDBRANCH   8  11
ENDBRANCH   6   9
ENDBRANCH   3   6
ENDBRANCH   1   4
BRANCH   1  19
ATOM     19  N   UNL     1      34.571 -14.612 -23.730  0.00  0.00    +0.394 N 
ATOM     20  H   UNL     1      35.334 -14.679 -23.057  0.00  0.00    -0.083 HD
ATOM     21  H   UNL     1      34.824 -13.980 -24.490  0.00  0.00    -0.083 HD
BRANCH  19  22
ATOM     22  C   UNL     1      34.306 -15.928 -24.285  0.00  0.00    -0.053 C 
BRANCH  22  23
ATOM     23  C   UNL     1      34.317 -16.998 -23.225  0.00  0.00    -0.044 C 
ATOM     24  C   UNL     1      34.950 -16.762 -22.004  0.00  0.00    -0.006 C 
ATOM     25  C   UNL     1      33.695 -18.223 -23.464  0.00  0.00    -0.006 C 
ATOM     26  C   UNL     1      34.339 -18.978 -21.261  0.00  0.00    -0.000 C 
ATOM     27  C   UNL     1      34.960 -17.752 -21.022  0.00  0.00    -0.000 C 
ATOM     28  C   UNL     1      33.706 -19.213 -22.481  0.00  0.00    -0.000 C 
BRANCH  26  29
ATOM     29  C   UNL     1      34.350 -20.004 -20.241  0.00  0.00    -0.000 C 
ATOM     30  C   UNL     1      33.152 -20.576 -19.814  0.00  0.00    -0.000 C 
ATOM     31  C   UNL     1      35.559 -20.424 -19.688  0.00  0.00    -0.000 C 
ATOM     32  C   UNL     1      33.162 -21.567 -18.832  0.00  0.00    +0.000 C 
ATOM     33  C   UNL     1      35.570 -21.415 -18.706  0.00  0.00    +0.000 C 
ATOM     34  C   UNL     1      34.371 -21.986 -18.278  0.00  0.00    +0.000 C 
ENDBRANCH  26  29
ENDBRANCH  22  23
ENDBRANCH  19  22
ENDBRANCH   1  19
BRANCH   1  35
ATOM     35  C   UNL     1      33.727 -13.784 -21.596  0.00  0.00    +0.041 C 
BRANCH  35  36
ATOM     36  S   UNL     1      32.225 -13.556 -20.592  0.00  0.00    -0.170 S 
ATOM     37  H   UNL     1      32.554 -13.576 -19.272  0.00  0.00    +0.102 HD
ENDBRANCH  35  36
ENDBRANCH   1  35
TORSDOF 13
ENDMDL
MODEL 5
REMARK VINA RESULT:     -10.4      2.242      3.669
REMARK  Name = 4369141
REMARK  13 active torsions:
REMARK  status: ('A' for Active; 'I' for Inactive)
REMARK    1  A    between atoms: C_1  and  C_4
REMARK    2  A    between atoms: C_1  and  N_19
REMARK    3  A    between atoms: C_1  and  C_35
REMARK    4  A    between atoms: N_3  and  C_6
REMARK    5  A    between atoms: C_6  and  C_9
REMARK    6  A    between atoms: N_8  and  C_11
REMARK    7  A    between atoms: C_11  and  C_12
REMARK    8  A    between atoms: C_11  and  C_16
REMARK    9  A    between atoms: C_16  and  O_17
REMARK   10  A    between atoms: N_19  and  C_22
REMARK   11  A    between atoms: C_22  and  C_23
REMARK   12  A    between atoms: C_26  and  C_29
REMARK   13  A    between atoms: C_35  and  S_36
REMARK                            x       y       z     vdW  Elec       q    Type
REMARK                         _______ _______ _______ _____ _____    ______ ____
ROOT
ATOM      1  C   UNL     1      35.310 -22.208 -17.358  0.00  0.00    +0.028 C 
ENDROOT
BRANCH   1   4
ATOM      2  O   UNL     1      33.228 -23.430 -17.144  0.00  0.00    -0.277 OA
ATOM      3  N   UNL     1      34.123 -22.437 -15.246  0.00  0.00    -0.298 N 
ATOM      4  C   UNL     1      34.102 -22.756 -16.603  0.00  0.00    +0.204 C 
ATOM      5  H   UNL     1      34.865 -21.891 -14.900  0.00  0.00    +0.150 HD
BRANCH   3   6
ATOM      6  C   UNL     1      33.107 -22.872 -14.334  0.00  0.00    +0.176 C 
BRANCH   6   9
ATOM      7  O   UNL     1      33.078 -24.252 -12.352  0.00  0.00    -0.273 OA
ATOM      8  N   UNL     1      35.102 -23.849 -13.420  0.00  0.00    -0.295 N 
ATOM      9  C   UNL     1      33.726 -23.745 -13.264  0.00  0.00    +0.243 C 
ATOM     10  H   UNL     1      35.519 -23.400 -14.191  0.00  0.00    +0.150 HD
BRANCH   8  11
ATOM     11  C   UNL     1      35.951 -24.579 -12.513  0.00  0.00    +0.171 C 
BRANCH  11  12
ATOM     12  C   UNL     1      36.815 -25.643 -13.223  0.00  0.00    +0.029 C 
ATOM     13  C   UNL     1      36.365 -25.846 -14.673  0.00  0.00    +0.002 C 
ATOM     14  C   UNL     1      38.315 -25.333 -13.180  0.00  0.00    +0.002 C 
ENDBRANCH  11  12
BRANCH  11  16
ATOM     15  O   UNL     1      37.477 -22.734 -12.168  0.00  0.00    -0.248 OA
ATOM     16  C   UNL     1      36.811 -23.638 -11.675  0.00  0.00    +0.335 C 
BRANCH  16  17
ATOM     17  O   UNL     1      36.744 -23.926 -10.344  0.00  0.00    -0.443 OA
ATOM     18  C   UNL     1      35.429 -23.943  -9.777  0.00  0.00    +0.256 C 
ENDBRANCH  16  17
ENDBRANCH  11  16
ENDBRANCH   8  11
ENDBRANCH   6   9
ENDBRANCH   3   6
ENDBRANCH   1   4
BRANCH   1  19
ATOM     19  N   UNL     1      34.758 -21.369 -18.424  0.00  0.00    +0.394 N 
ATOM     20  H   UNL     1      34.431 -20.490 -18.024  0.00  0.00    -0.083 HD
ATOM     21  H   UNL     1      33.983 -21.866 -18.866  0.00  0.00    -0.083 HD
BRANCH  19  22
ATOM     22  C   UNL     1      35.768 -21.090 -19.432  0.00  0.00    -0.053 C 
BRANCH  22  23
ATOM     23  C   UNL     1      35.403 -19.897 -20.276  0.00  0.00    -0.044 C 
ATOM     24  C   UNL     1      34.082 -19.709 -20.683  0.00  0.00    -0.006 C 
ATOM     25  C   UNL     1      36.386 -18.982 -20.652  0.00  0.00    -0.006 C 
ATOM     26  C   UNL     1      34.727 -17.689 -21.841  0.00  0.00    -0.000 C 
ATOM     27  C   UNL     1      33.744 -18.605 -21.465  0.00  0.00    -0.000 C 
ATOM     28  C   UNL     1      36.048 -17.878 -21.435  0.00  0.00    -0.000 C 
BRANCH  26  29
ATOM     29  C   UNL     1      34.376 -16.544 -22.652  0.00  0.00    -0.000 C 
ATOM     30  C   UNL     1      34.306 -15.276 -22.076  0.00  0.00    -0.000 C 
ATOM     31  C   UNL     1      34.110 -16.708 -24.012  0.00  0.00    -0.000 C 
ATOM     32  C   UNL     1      33.969 -14.172 -22.859  0.00  0.00    +0.000 C 
ATOM     33  C   UNL     1      33.773 -15.604 -24.795  0.00  0.00    +0.000 C 
ATOM     34  C   UNL     1      33.702 -14.336 -24.217  0.00  0.00    +0.000 C 
ENDBRANCH  26  29
ENDBRANCH  22  23
ENDBRANCH  19  22
ENDBRANCH   1  19
BRANCH   1  35
ATOM     35  C   UNL     1      36.221 -21.353 -16.473  0.00  0.00    +0.041 C 
BRANCH  35  36
ATOM     36  S   UNL     1      37.580 -22.341 -15.770  0.00  0.00    -0.170 S 
ATOM     37  H   UNL     1      38.713 -21.589 -15.727  0.00  0.00    +0.102 HD
ENDBRANCH  35  36
ENDBRANCH   1  35
TORSDOF 13
ENDMDL
MODEL 6
REMARK VINA RESULT:     -10.4      4.244      6.674
REMARK  Name = 4369141
REMARK  13 active torsions:
REMARK  status: ('A' for Active; 'I' for Inactive)
REMARK    1  A    between atoms: C_1  and  C_4
REMARK    2  A    between atoms: C_1  and  N_19
REMARK    3  A    between atoms: C_1  and  C_35
REMARK    4  A    between atoms: N_3  and  C_6
REMARK    5  A    between atoms: C_6  and  C_9
REMARK    6  A    between atoms: N_8  and  C_11
REMARK    7  A    between atoms: C_11  and  C_12
REMARK    8  A    between atoms: C_11  and  C_16
REMARK    9  A    between atoms: C_16  and  O_17
REMARK   10  A    between atoms: N_19  and  C_22
REMARK   11  A    between atoms: C_22  and  C_23
REMARK   12  A    between atoms: C_26  and  C_29
REMARK   13  A    between atoms: C_35  and  S_36
REMARK                            x       y       z     vdW  Elec       q    Type
REMARK                         _______ _______ _______ _____ _____    ______ ____
ROOT
ATOM      1  C   UNL     1      33.743 -18.886 -21.386  0.00  0.00    +0.028 C 
ENDROOT
BRANCH   1   4
ATOM      2  O   UNL     1      32.337 -20.381 -20.095  0.00  0.00    -0.277 OA
ATOM      3  N   UNL     1      34.636 -20.697 -20.028  0.00  0.00    -0.298 N 
ATOM      4  C   UNL     1      33.471 -20.048 -20.434  0.00  0.00    +0.204 C 
ATOM      5  H   UNL     1      35.503 -20.359 -20.351  0.00  0.00    +0.150 HD
BRANCH   3   6
ATOM      6  C   UNL     1      34.624 -21.836 -19.159  0.00  0.00    +0.176 C 
BRANCH   6   9
ATOM      7  O   UNL     1      36.255 -20.685 -17.800  0.00  0.00    -0.273 OA
ATOM      8  N   UNL     1      34.853 -22.249 -16.804  0.00  0.00    -0.295 N 
ATOM      9  C   UNL     1      35.335 -21.497 -17.867  0.00  0.00    +0.243 C 
ATOM     10  H   UNL     1      34.108 -22.872 -16.973  0.00  0.00    +0.150 HD
BRANCH   8  11
ATOM     11  C   UNL     1      35.383 -22.165 -15.467  0.00  0.00    +0.171 C 
BRANCH  11  12
ATOM     12  C   UNL     1      34.298 -22.312 -14.379  0.00  0.00    +0.029 C 
ATOM     13  C   UNL     1      33.051 -23.009 -14.930  0.00  0.00    +0.002 C 
ATOM     14  C   UNL     1      34.792 -23.040 -13.125  0.00  0.00    +0.002 C 
ENDBRANCH  11  12
BRANCH  11  16
ATOM     15  O   UNL     1      37.659 -22.814 -14.966  0.00  0.00    -0.248 OA
ATOM     16  C   UNL     1      36.519 -23.161 -15.255  0.00  0.00    +0.335 C 
BRANCH  16  17
ATOM     17  O   UNL     1      36.111 -24.450 -15.426  0.00  0.00    -0.443 OA
ATOM     18  C   UNL     1      36.863 -25.440 -14.713  0.00  0.00    +0.256 C 
ENDBRANCH  16  17
ENDBRANCH  11  16
ENDBRANCH   8  11
ENDBRANCH   6   9
ENDBRANCH   3   6
ENDBRANCH   1   4
BRANCH   1  19
ATOM     19  N   UNL     1      34.701 -18.025 -20.688  0.00  0.00    +0.394 N 
ATOM     20  H   UNL     1      35.418 -18.605 -20.253  0.00  0.00    -0.083 HD
ATOM     21  H   UNL     1      34.204 -17.486 -19.980  0.00  0.00    -0.083 HD
BRANCH  19  22
ATOM     22  C   UNL     1      35.333 -17.104 -21.618  0.00  0.00    -0.053 C 
BRANCH  22  23
ATOM     23  C   UNL     1      34.579 -15.805 -21.721  0.00  0.00    -0.044 C 
ATOM     24  C   UNL     1      34.021 -15.231 -20.578  0.00  0.00    -0.006 C 
ATOM     25  C   UNL     1      34.437 -15.176 -22.958  0.00  0.00    -0.006 C 
ATOM     26  C   UNL     1      33.180 -13.399 -21.910  0.00  0.00    -0.000 C 
ATOM     27  C   UNL     1      33.322 -14.028 -20.673  0.00  0.00    -0.000 C 
ATOM     28  C   UNL     1      33.737 -13.972 -23.052  0.00  0.00    -0.000 C 
BRANCH  26  29
ATOM     29  C   UNL     1      32.455 -12.151 -22.007  0.00  0.00    -0.000 C 
ATOM     30  C   UNL     1      32.741 -11.256 -23.038  0.00  0.00    -0.000 C 
ATOM     31  C   UNL     1      31.467 -11.843 -21.071  0.00  0.00    -0.000 C 
ATOM     32  C   UNL     1      32.041 -10.053 -23.132  0.00  0.00    +0.000 C 
ATOM     33  C   UNL     1      30.766 -10.640 -21.166  0.00  0.00    +0.000 C 
ATOM     34  C   UNL     1      31.054  -9.746 -22.196  0.00  0.00    +0.000 C 
ENDBRANCH  26  29
ENDBRANCH  22  23
ENDBRANCH  19  22
ENDBRANCH   1  19
BRANCH   1  35
ATOM     35  C   UNL     1      34.355 -19.341 -22.713  0.00  0.00    +0.041 C 
BRANCH  35  36
ATOM     36  S   UNL     1      33.445 -18.654 -24.133  0.00  0.00    -0.170 S 
ATOM     37  H   UNL     1      32.571 -17.707 -23.696  0.00  0.00    +0.102 HD
ENDBRANCH  35  36
ENDBRANCH   1  35
TORSDOF 13
ENDMDL
MODEL 7
REMARK VINA RESULT:     -10.3      2.608      4.883
REMARK  Name = 4369141
REMARK  13 active torsions:
REMARK  status: ('A' for Active; 'I' for Inactive)
REMARK    1  A    between atoms: C_1  and  C_4
REMARK    2  A    between atoms: C_1  and  N_19
REMARK    3  A    between atoms: C_1  and  C_35
REMARK    4  A    between atoms: N_3  and  C_6
REMARK    5  A    between atoms: C_6  and  C_9
REMARK    6  A    between atoms: N_8  and  C_11
REMARK    7  A    between atoms: C_11  and  C_12
REMARK    8  A    between atoms: C_11  and  C_16
REMARK    9  A    between atoms: C_16  and  O_17
REMARK   10  A    between atoms: N_19  and  C_22
REMARK   11  A    between atoms: C_22  and  C_23
REMARK   12  A    between atoms: C_26  and  C_29
REMARK   13  A    between atoms: C_35  and  S_36
REMARK                            x       y       z     vdW  Elec       q    Type
REMARK                         _______ _______ _______ _____ _____    ______ ____
ROOT
ATOM      1  C   UNL     1      35.337 -20.432 -18.935  0.00  0.00    +0.028 C 
ENDROOT
BRANCH   1   4
ATOM      2  O   UNL     1      37.105 -19.597 -17.503  0.00  0.00    -0.277 OA
ATOM      3  N   UNL     1      36.455 -21.814 -17.273  0.00  0.00    -0.298 N 
ATOM      4  C   UNL     1      36.401 -20.544 -17.846  0.00  0.00    +0.204 C 
ATOM      5  H   UNL     1      35.850 -22.512 -17.613  0.00  0.00    +0.150 HD
BRANCH   3   6
ATOM      6  C   UNL     1      37.356 -22.143 -16.208  0.00  0.00    +0.176 C 
BRANCH   6   9
ATOM      7  O   UNL     1      35.563 -23.570 -15.444  0.00  0.00    -0.273 OA
ATOM      8  N   UNL     1      37.444 -23.301 -14.106  0.00  0.00    -0.295 N 
ATOM      9  C   UNL     1      36.676 -23.092 -15.244  0.00  0.00    +0.243 C 
ATOM     10  H   UNL     1      38.326 -22.866 -14.051  0.00  0.00    +0.150 HD
BRANCH   8  11
ATOM     11  C   UNL     1      37.017 -24.121 -13.000  0.00  0.00    +0.171 C 
BRANCH  11  12
ATOM     12  C   UNL     1      37.718 -25.496 -12.967  0.00  0.00    +0.029 C 
ATOM     13  C   UNL     1      36.923 -26.545 -13.750  0.00  0.00    +0.002 C 
ATOM     14  C   UNL     1      39.164 -25.450 -13.473  0.00  0.00    +0.002 C 
ENDBRANCH  11  12
BRANCH  11  16
ATOM     15  O   UNL     1      37.594 -22.241 -11.593  0.00  0.00    -0.248 OA
ATOM     16  C   UNL     1      37.170 -23.389 -11.671  0.00  0.00    +0.335 C 
BRANCH  16  17
ATOM     17  O   UNL     1      36.785 -24.156 -10.612  0.00  0.00    -0.443 OA
ATOM     18  C   UNL     1      35.498 -23.856 -10.061  0.00  0.00    +0.256 C 
ENDBRANCH  16  17
ENDBRANCH  11  16
ENDBRANCH   8  11
ENDBRANCH   6   9
ENDBRANCH   3   6
ENDBRANCH   1   4
BRANCH   1  19
ATOM     19  N   UNL     1      35.965 -19.670 -20.018  0.00  0.00    +0.394 N 
ATOM     20  H   UNL     1      36.904 -20.032 -20.181  0.00  0.00    -0.083 HD
ATOM     21  H   UNL     1      36.006 -18.687 -19.747  0.00  0.00    -0.083 HD
BRANCH  19  22
ATOM     22  C   UNL     1      35.190 -19.786 -21.242  0.00  0.00    -0.053 C 
BRANCH  22  23
ATOM     23  C   UNL     1      34.800 -18.438 -21.788  0.00  0.00    -0.044 C 
ATOM     24  C   UNL     1      34.885 -17.306 -20.977  0.00  0.00    -0.006 C 
ATOM     25  C   UNL     1      34.354 -18.321 -23.105  0.00  0.00    -0.006 C 
ATOM     26  C   UNL     1      34.078 -15.940 -22.800  0.00  0.00    -0.000 C 
ATOM     27  C   UNL     1      34.524 -16.057 -21.483  0.00  0.00    -0.000 C 
ATOM     28  C   UNL     1      33.993 -17.072 -23.610  0.00  0.00    -0.000 C 
BRANCH  26  29
ATOM     29  C   UNL     1      33.704 -14.645 -23.324  0.00  0.00    -0.000 C 
ATOM     30  C   UNL     1      33.849 -13.505 -22.534  0.00  0.00    -0.000 C 
ATOM     31  C   UNL     1      33.200 -14.536 -24.620  0.00  0.00    -0.000 C 
ATOM     32  C   UNL     1      33.489 -12.255 -23.040  0.00  0.00    +0.000 C 
ATOM     33  C   UNL     1      32.841 -13.286 -25.127  0.00  0.00    +0.000 C 
ATOM     34  C   UNL     1      32.986 -12.147 -24.336  0.00  0.00    +0.000 C 
ENDBRANCH  26  29
ENDBRANCH  22  23
ENDBRANCH  19  22
ENDBRANCH   1  19
BRANCH   1  35
ATOM     35  C   UNL     1      34.899 -21.796 -19.475  0.00  0.00    +0.041 C 
BRANCH  35  36
ATOM     36  S   UNL     1      33.237 -22.242 -18.878  0.00  0.00    -0.170 S 
ATOM     37  H   UNL     1      32.826 -23.384 -19.492  0.00  0.00    +0.102 HD
ENDBRANCH  35  36
ENDBRANCH   1  35
TORSDOF 13
ENDMDL
MODEL 8
REMARK VINA RESULT:     -10.3      8.705     13.303
REMARK  Name = 4369141
REMARK  13 active torsions:
REMARK  status: ('A' for Active; 'I' for Inactive)
REMARK    1  A    between atoms: C_1  and  C_4
REMARK    2  A    between atoms: C_1  and  N_19
REMARK    3  A    between atoms: C_1  and  C_35
REMARK    4  A    between atoms: N_3  and  C_6
REMARK    5  A    between atoms: C_6  and  C_9
REMARK    6  A    between atoms: N_8  and  C_11
REMARK    7  A    between atoms: C_11  and  C_12
REMARK    8  A    between atoms: C_11  and  C_16
REMARK    9  A    between atoms: C_16  and  O_17
REMARK   10  A    between atoms: N_19  and  C_22
REMARK   11  A    between atoms: C_22  and  C_23
REMARK   12  A    between atoms: C_26  and  C_29
REMARK   13  A    between atoms: C_35  and  S_36
REMARK                            x       y       z     vdW  Elec       q    Type
REMARK                         _______ _______ _______ _____ _____    ______ ____
ROOT
ATOM      1  C   UNL     1      33.736 -13.369 -23.673  0.00  0.00    +0.028 C 
ENDROOT
BRANCH   1   4
ATOM      2  O   UNL     1      33.790 -13.569 -21.258  0.00  0.00    -0.277 OA
ATOM      3  N   UNL     1      32.163 -12.218 -22.216  0.00  0.00    -0.298 N 
ATOM      4  C   UNL     1      33.250 -13.090 -22.253  0.00  0.00    +0.204 C 
ATOM      5  H   UNL     1      31.796 -11.884 -23.066  0.00  0.00    +0.150 HD
BRANCH   3   6
ATOM      6  C   UNL     1      31.559 -11.788 -20.990  0.00  0.00    +0.176 C 
BRANCH   6   9
ATOM      7  O   UNL     1      29.684 -10.279 -21.193  0.00  0.00    -0.273 OA
ATOM      8  N   UNL     1      31.839  -9.443 -21.427  0.00  0.00    -0.295 N 
ATOM      9  C   UNL     1      30.901 -10.440 -21.194  0.00  0.00    +0.243 C 
ATOM     10  H   UNL     1      32.794  -9.685 -21.402  0.00  0.00    +0.150 HD
BRANCH   8  11
ATOM     11  C   UNL     1      31.489  -8.072 -21.702  0.00  0.00    +0.171 C 
BRANCH  11  12
ATOM     12  C   UNL     1      31.921  -7.105 -20.579  0.00  0.00    +0.029 C 
ATOM     13  C   UNL     1      31.220  -5.750 -20.712  0.00  0.00    +0.002 C 
ATOM     14  C   UNL     1      31.699  -7.673 -19.173  0.00  0.00    +0.002 C 
ENDBRANCH  11  12
BRANCH  11  16
ATOM     15  O   UNL     1      31.378  -7.730 -24.094  0.00  0.00    -0.248 OA
ATOM     16  C   UNL     1      32.024  -7.622 -23.057  0.00  0.00    +0.335 C 
BRANCH  16  17
ATOM     17  O   UNL     1      33.280  -7.099 -22.968  0.00  0.00    -0.443 OA
ATOM     18  C   UNL     1      34.323  -7.881 -23.561  0.00  0.00    +0.256 C 
ENDBRANCH  16  17
ENDBRANCH  11  16
ENDBRANCH   8  11
ENDBRANCH   6   9
ENDBRANCH   3   6
ENDBRANCH   1   4
BRANCH   1  19
ATOM     19  N   UNL     1      33.153 -14.662 -24.039  0.00  0.00    +0.394 N 
ATOM     20  H   UNL     1      32.561 -14.543 -24.860  0.00  0.00    -0.083 HD
ATOM     21  H   UNL     1      32.602 -15.009 -23.253  0.00  0.00    -0.083 HD
BRANCH  19  22
ATOM     22  C   UNL     1      34.197 -15.628 -24.339  0.00  0.00    -0.053 C 
BRANCH  22  23
ATOM     23  C   UNL     1      34.258 -16.726 -23.309  0.00  0.00    -0.044 C 
ATOM     24  C   UNL     1      34.843 -16.483 -22.066  0.00  0.00    -0.006 C 
ATOM     25  C   UNL     1      33.732 -17.985 -23.600  0.00  0.00    -0.006 C 
ATOM     26  C   UNL     1      34.374 -18.759 -21.403  0.00  0.00    -0.000 C 
ATOM     27  C   UNL     1      34.900 -17.500 -21.113  0.00  0.00    -0.000 C 
ATOM     28  C   UNL     1      33.790 -19.001 -22.646  0.00  0.00    -0.000 C 
BRANCH  26  29
ATOM     29  C   UNL     1      34.433 -19.812 -20.414  0.00  0.00    -0.000 C 
ATOM     30  C   UNL     1      33.262 -20.441 -19.993  0.00  0.00    -0.000 C 
ATOM     31  C   UNL     1      35.663 -20.201 -19.882  0.00  0.00    -0.000 C 
ATOM     32  C   UNL     1      33.319 -21.459 -19.040  0.00  0.00    +0.000 C 
ATOM     33  C   UNL     1      35.721 -21.219 -18.929  0.00  0.00    +0.000 C 
ATOM     34  C   UNL     1      34.549 -21.846 -18.508  0.00  0.00    +0.000 C 
ENDBRANCH  26  29
ENDBRANCH  22  23
ENDBRANCH  19  22
ENDBRANCH   1  19
BRANCH   1  35
ATOM     35  C   UNL     1      33.270 -12.310 -24.675  0.00  0.00    +0.041 C 
BRANCH  35  36
ATOM     36  S   UNL     1      32.685 -13.074 -26.222  0.00  0.00    -0.170 S 
ATOM     37  H   UNL     1      33.417 -14.191 -26.481  0.00  0.00    +0.102 HD
ENDBRANCH  35  36
ENDBRANCH   1  35
TORSDOF 13
ENDMDL
MODEL 9
REMARK VINA RESULT:     -10.2      4.678      7.604
REMARK  Name = 4369141
REMARK  13 active torsions:
REMARK  status: ('A' for Active; 'I' for Inactive)
REMARK    1  A    between atoms: C_1  and  C_4
REMARK    2  A    between atoms: C_1  and  N_19
REMARK    3  A    between atoms: C_1  and  C_35
REMARK    4  A    between atoms: N_3  and  C_6
REMARK    5  A    between atoms: C_6  and  C_9
REMARK    6  A    between atoms: N_8  and  C_11
REMARK    7  A    between atoms: C_11  and  C_12
REMARK    8  A    between atoms: C_11  and  C_16
REMARK    9  A    between atoms: C_16  and  O_17
REMARK   10  A    between atoms: N_19  and  C_22
REMARK   11  A    between atoms: C_22  and  C_23
REMARK   12  A    between atoms: C_26  and  C_29
REMARK   13  A    between atoms: C_35  and  S_36
REMARK                            x       y       z     vdW  Elec       q    Type
REMARK                         _______ _______ _______ _____ _____    ______ ____
ROOT
ATOM      1  C   UNL     1      34.406 -18.671 -21.412  0.00  0.00    +0.028 C 
ENDROOT
BRANCH   1   4
ATOM      2  O   UNL     1      36.435 -19.270 -20.229  0.00  0.00    -0.277 OA
ATOM      3  N   UNL     1      34.540 -20.568 -19.895  0.00  0.00    -0.298 N 
ATOM      4  C   UNL     1      35.255 -19.519 -20.468  0.00  0.00    +0.204 C 
ATOM      5  H   UNL     1      33.596 -20.691 -20.147  0.00  0.00    +0.150 HD
BRANCH   3   6
ATOM      6  C   UNL     1      35.123 -21.477 -18.952  0.00  0.00    +0.176 C 
BRANCH   6   9
ATOM      7  O   UNL     1      33.430 -23.191 -19.125  0.00  0.00    -0.273 OA
ATOM      8  N   UNL     1      33.850 -22.219 -17.056  0.00  0.00    -0.295 N 
ATOM      9  C   UNL     1      34.056 -22.406 -18.416  0.00  0.00    +0.243 C 
ATOM     10  H   UNL     1      34.412 -21.561 -16.585  0.00  0.00    +0.150 HD
BRANCH   8  11
ATOM     11  C   UNL     1      32.857 -22.937 -16.297  0.00  0.00    +0.171 C 
BRANCH  11  12
ATOM     12  C   UNL     1      33.220 -23.065 -14.802  0.00  0.00    +0.029 C 
ATOM     13  C   UNL     1      32.835 -24.440 -14.252  0.00  0.00    +0.002 C 
ATOM     14  C   UNL     1      34.698 -22.780 -14.512  0.00  0.00    +0.002 C 
ENDBRANCH  11  12
BRANCH  11  16
ATOM     15  O   UNL     1      31.070 -21.908 -17.560  0.00  0.00    -0.248 OA
ATOM     16  C   UNL     1      31.469 -22.331 -16.481  0.00  0.00    +0.335 C 
BRANCH  16  17
ATOM     17  O   UNL     1      30.754 -22.320 -15.320  0.00  0.00    -0.443 OA
ATOM     18  C   UNL     1      29.525 -23.055 -15.340  0.00  0.00    +0.256 C 
ENDBRANCH  16  17
ENDBRANCH  11  16
ENDBRANCH   8  11
ENDBRANCH   6   9
ENDBRANCH   3   6
ENDBRANCH   1   4
BRANCH   1  19
ATOM     19  N   UNL     1      34.593 -17.287 -20.970  0.00  0.00    +0.394 N 
ATOM     20  H   UNL     1      35.312 -17.260 -20.248  0.00  0.00    -0.083 HD
ATOM     21  H   UNL     1      33.708 -16.937 -20.602  0.00  0.00    -0.083 HD
BRANCH  19  22
ATOM     22  C   UNL     1      35.001 -16.445 -22.083  0.00  0.00    -0.053 C 
BRANCH  22  23
ATOM     23  C   UNL     1      34.251 -15.139 -22.103  0.00  0.00    -0.044 C 
ATOM     24  C   UNL     1      33.796 -14.579 -20.909  0.00  0.00    -0.006 C 
ATOM     25  C   UNL     1      34.011 -14.491 -23.315  0.00  0.00    -0.006 C 
ATOM     26  C   UNL     1      32.860 -12.722 -22.140  0.00  0.00    -0.000 C 
ATOM     27  C   UNL     1      33.101 -13.370 -20.928  0.00  0.00    -0.000 C 
ATOM     28  C   UNL     1      33.315 -13.282 -23.333  0.00  0.00    -0.000 C 
BRANCH  26  29
ATOM     29  C   UNL     1      32.140 -11.467 -22.158  0.00  0.00    -0.000 C 
ATOM     30  C   UNL     1      31.155 -11.215 -21.204  0.00  0.00    -0.000 C 
ATOM     31  C   UNL     1      32.432 -10.509 -23.129  0.00  0.00    -0.000 C 
ATOM     32  C   UNL     1      30.461 -10.004 -21.220  0.00  0.00    +0.000 C 
ATOM     33  C   UNL     1      31.738  -9.299 -23.146  0.00  0.00    +0.000 C 
ATOM     34  C   UNL     1      30.753  -9.048 -22.192  0.00  0.00    +0.000 C 
ENDBRANCH  26  29
ENDBRANCH  22  23
ENDBRANCH  19  22
ENDBRANCH   1  19
BRANCH   1  35
ATOM     35  C   UNL     1      34.847 -18.792 -22.873  0.00  0.00    +0.041 C 
BRANCH  35  36
ATOM     36  S   UNL     1      33.430 -18.650 -24.008  0.00  0.00    -0.170 S 
ATOM     37  H   UNL     1      32.601 -19.715 -23.833  0.00  0.00    +0.102 HD
ENDBRANCH  35  36
ENDBRANCH   1  35
TORSDOF 13
ENDMDL
