MODEL 1
REMARK VINA RESULT:     -13.9      0.000      0.000
REMARK  Name = 448890
REMARK  6 active torsions:
REMARK  status: ('A' for Active; 'I' for Inactive)
REMARK    1  A    between atoms: C_1  and  C_2
REMARK    2  A    between atoms: C_1  and  C_17
REMARK    3  A    between atoms: C_2  and  C_3
REMARK    4  A    between atoms: C_3  and  N_4
REMARK    5  A    between atoms: C_8  and  C_11
REMARK    6  A    between atoms: C_17  and  N_21
REMARK                            x       y       z     vdW  Elec       q    Type
REMARK                         _______ _______ _______ _____ _____    ______ ____
ROOT
ATOM      1  C   UNL     1      34.040 -19.396 -20.626  0.00  0.00    +0.022 C 
ENDROOT
BRANCH   1   2
ATOM      2  C   UNL     1      34.380 -19.059 -22.082  0.00  0.00    -0.021 C 
BRANCH   2   3
ATOM      3  C   UNL     1      35.609 -18.154 -22.164  0.00  0.00    -0.077 C 
BRANCH   3   4
ATOM      4  N   UNL     1      35.201 -16.753 -22.251  0.00  0.00    +0.390 N 
ATOM      5  C   UNL     1      34.270 -16.543 -23.364  0.00  0.00    -0.072 C 
ATOM      6  C   UNL     1      34.605 -16.305 -20.984  0.00  0.00    -0.051 C 
ATOM      7  C   UNL     1      33.991 -15.041 -23.533  0.00  0.00    +0.003 C 
ATOM      8  C   UNL     1      33.652 -14.353 -22.231  0.00  0.00    -0.031 C 
ATOM      9  C   UNL     1      33.943 -14.955 -21.061  0.00  0.00    -0.053 C 
ATOM     10  H   UNL     1      36.036 -16.194 -22.430  0.00  0.00    -0.079 HD
BRANCH   8  11
ATOM     11  C   UNL     1      33.009 -13.019 -22.286  0.00  0.00    -0.004 C 
ATOM     12  C   UNL     1      33.371 -12.106 -23.279  0.00  0.00    -0.000 C 
ATOM     13  C   UNL     1      32.036 -12.670 -21.346  0.00  0.00    -0.000 C 
ATOM     14  C   UNL     1      32.765 -10.851 -23.331  0.00  0.00    -0.000 C 
ATOM     15  C   UNL     1      31.431 -11.415 -21.398  0.00  0.00    -0.000 C 
ATOM     16  C   UNL     1      31.795 -10.505 -22.391  0.00  0.00    -0.000 C 
ENDBRANCH   8  11
ENDBRANCH   3   4
ENDBRANCH   2   3
ENDBRANCH   1   2
BRANCH   1  17
ATOM     17  C   UNL     1      34.810 -20.607 -20.109  0.00  0.00    +0.110 C 
BRANCH  17  21
ATOM     18  F   UNL     1      34.315 -23.253 -14.589  0.00  0.00    -0.204 F 
ATOM     19  O   UNL     1      32.070 -21.253 -20.112  0.00  0.00    -0.246 OA
ATOM     20  O   UNL     1      32.180 -23.136 -15.944  0.00  0.00    -0.267 OA
ATOM     21  N   UNL     1      34.122 -21.274 -19.007  0.00  0.00    -0.281 N 
ATOM     22  N   UNL     1      32.166 -22.182 -18.034  0.00  0.00    -0.274 N 
ATOM     23  C   UNL     1      34.862 -21.636 -17.838  0.00  0.00    +0.071 A 
ATOM     24  C   UNL     1      32.752 -21.544 -19.125  0.00  0.00    +0.330 A 
ATOM     25  C   UNL     1      34.219 -22.276 -16.772  0.00  0.00    +0.099 A 
ATOM     26  C   UNL     1      36.236 -21.367 -17.714  0.00  0.00    +0.018 C 
ATOM     27  C   UNL     1      32.780 -22.577 -16.857  0.00  0.00    +0.265 A 
ATOM     28  C   UNL     1      34.922 -22.640 -15.615  0.00  0.00    +0.146 C 
ATOM     29  C   UNL     1      36.939 -21.730 -16.562  0.00  0.00    +0.004 C 
ATOM     30  C   UNL     1      36.283 -22.365 -15.513  0.00  0.00    +0.030 C 
ATOM     31  H   UNL     1      31.203 -22.376 -18.108  0.00  0.00    +0.173 HD
ENDBRANCH  17  21
ENDBRANCH   1  17
TORSDOF 6
ENDMDL
MODEL 2
REMARK VINA RESULT:     -13.6      3.283      5.640
REMARK  Name = 448890
REMARK  6 active torsions:
REMARK  status: ('A' for Active; 'I' for Inactive)
REMARK    1  A    between atoms: C_1  and  C_2
REMARK    2  A    between atoms: C_1  and  C_17
REMARK    3  A    between atoms: C_2  and  C_3
REMARK    4  A    between atoms: C_3  and  N_4
REMARK    5  A    between atoms: C_8  and  C_11
REMARK    6  A    between atoms: C_17  and  N_21
REMARK                            x       y       z     vdW  Elec       q    Type
REMARK                         _______ _______ _______ _____ _____    ______ ____
ROOT
ATOM      1  C   UNL     1      33.385 -23.146 -15.950  0.00  0.00    +0.022 C 
ENDROOT
BRANCH   1   2
ATOM      2  C   UNL     1      33.278 -22.422 -17.296  0.00  0.00    -0.021 C 
BRANCH   2   3
ATOM      3  C   UNL     1      34.662 -22.097 -17.857  0.00  0.00    -0.077 C 
BRANCH   3   4
ATOM      4  N   UNL     1      34.597 -20.912 -18.710  0.00  0.00    +0.390 N 
ATOM      5  C   UNL     1      35.748 -20.849 -19.616  0.00  0.00    -0.072 C 
ATOM      6  C   UNL     1      33.338 -20.886 -19.470  0.00  0.00    -0.051 C 
ATOM      7  C   UNL     1      35.739 -19.516 -20.379  0.00  0.00    +0.003 C 
ATOM      8  C   UNL     1      34.391 -19.188 -20.979  0.00  0.00    -0.031 C 
ATOM      9  C   UNL     1      33.291 -19.835 -20.546  0.00  0.00    -0.053 C 
ATOM     10  H   UNL     1      34.626 -20.089 -18.108  0.00  0.00    -0.079 HD
BRANCH   8  11
ATOM     11  C   UNL     1      34.324 -18.148 -22.033  0.00  0.00    -0.004 C 
ATOM     12  C   UNL     1      34.730 -16.842 -21.756  0.00  0.00    -0.000 C 
ATOM     13  C   UNL     1      33.855 -18.472 -23.309  0.00  0.00    -0.000 C 
ATOM     14  C   UNL     1      34.667 -15.863 -22.748  0.00  0.00    -0.000 C 
ATOM     15  C   UNL     1      33.792 -17.493 -24.301  0.00  0.00    -0.000 C 
ATOM     16  C   UNL     1      34.198 -16.188 -24.020  0.00  0.00    -0.000 C 
ENDBRANCH   8  11
ENDBRANCH   3   4
ENDBRANCH   2   3
ENDBRANCH   1   2
BRANCH   1  17
ATOM     17  C   UNL     1      34.213 -22.370 -14.931  0.00  0.00    +0.110 C 
BRANCH  17  21
ATOM     18  F   UNL     1      38.915 -25.553 -12.591  0.00  0.00    -0.204 F 
ATOM     19  O   UNL     1      32.974 -23.494 -12.666  0.00  0.00    -0.246 OA
ATOM     20  O   UNL     1      36.742 -25.698 -11.300  0.00  0.00    -0.267 OA
ATOM     21  N   UNL     1      34.886 -23.248 -13.976  0.00  0.00    -0.281 N 
ATOM     22  N   UNL     1      34.872 -24.577 -12.019  0.00  0.00    -0.274 N 
ATOM     23  C   UNL     1      36.262 -23.575 -14.180  0.00  0.00    +0.071 A 
ATOM     24  C   UNL     1      34.162 -23.747 -12.885  0.00  0.00    +0.330 A 
ATOM     25  C   UNL     1      36.924 -24.415 -13.275  0.00  0.00    +0.099 A 
ATOM     26  C   UNL     1      36.993 -23.077 -15.272  0.00  0.00    +0.018 C 
ATOM     27  C   UNL     1      36.198 -24.960 -12.115  0.00  0.00    +0.265 A 
ATOM     28  C   UNL     1      38.274 -24.750 -13.452  0.00  0.00    +0.146 C 
ATOM     29  C   UNL     1      38.338 -23.411 -15.451  0.00  0.00    +0.004 C 
ATOM     30  C   UNL     1      38.978 -24.247 -14.542  0.00  0.00    +0.030 C 
ATOM     31  H   UNL     1      34.371 -24.932 -11.249  0.00  0.00    +0.173 HD
ENDBRANCH  17  21
ENDBRANCH   1  17
TORSDOF 6
ENDMDL
MODEL 3
REMARK VINA RESULT:     -13.5      3.603     10.061
REMARK  Name = 448890
REMARK  6 active torsions:
REMARK  status: ('A' for Active; 'I' for Inactive)
REMARK    1  A    between atoms: C_1  and  C_2
REMARK    2  A    between atoms: C_1  and  C_17
REMARK    3  A    between atoms: C_2  and  C_3
REMARK    4  A    between atoms: C_3  and  N_4
REMARK    5  A    between atoms: C_8  and  C_11
REMARK    6  A    between atoms: C_17  and  N_21
REMARK                            x       y       z     vdW  Elec       q    Type
REMARK                         _______ _______ _______ _____ _____    ______ ____
ROOT
ATOM      1  C   UNL     1      36.082 -18.008 -21.272  0.00  0.00    +0.022 C 
ENDROOT
BRANCH   1   2
ATOM      2  C   UNL     1      36.278 -19.385 -20.631  0.00  0.00    -0.021 C 
BRANCH   2   3
ATOM      3  C   UNL     1      34.953 -20.139 -20.531  0.00  0.00    -0.077 C 
BRANCH   3   4
ATOM      4  N   UNL     1      34.743 -20.617 -19.166  0.00  0.00    +0.390 N 
ATOM      5  C   UNL     1      33.887 -21.807 -19.148  0.00  0.00    -0.072 C 
ATOM      6  C   UNL     1      36.028 -20.893 -18.507  0.00  0.00    -0.051 C 
ATOM      7  C   UNL     1      33.548 -22.184 -17.698  0.00  0.00    +0.003 C 
ATOM      8  C   UNL     1      34.763 -22.213 -16.797  0.00  0.00    -0.031 C 
ATOM      9  C   UNL     1      35.902 -21.611 -17.191  0.00  0.00    -0.053 C 
ATOM     10  H   UNL     1      34.266 -19.879 -18.646  0.00  0.00    -0.079 HD
BRANCH   8  11
ATOM     11  C   UNL     1      34.654 -22.907 -15.492  0.00  0.00    -0.004 C 
ATOM     12  C   UNL     1      35.778 -23.506 -14.920  0.00  0.00    -0.000 C 
ATOM     13  C   UNL     1      33.426 -22.964 -14.828  0.00  0.00    -0.000 C 
ATOM     14  C   UNL     1      35.676 -24.159 -13.691  0.00  0.00    -0.000 C 
ATOM     15  C   UNL     1      33.323 -23.617 -13.600  0.00  0.00    -0.000 C 
ATOM     16  C   UNL     1      34.448 -24.215 -13.031  0.00  0.00    -0.000 C 
ENDBRANCH   8  11
ENDBRANCH   3   4
ENDBRANCH   2   3
ENDBRANCH   1   2
BRANCH   1  17
ATOM     17  C   UNL     1      34.634 -17.533 -21.212  0.00  0.00    +0.110 C 
BRANCH  17  21
ATOM     18  F   UNL     1      32.953 -12.640 -24.520  0.00  0.00    -0.204 F 
ATOM     19  O   UNL     1      34.333 -18.725 -23.744  0.00  0.00    -0.246 OA
ATOM     20  O   UNL     1      33.119 -14.821 -25.794  0.00  0.00    -0.267 OA
ATOM     21  N   UNL     1      34.233 -16.812 -22.417  0.00  0.00    -0.281 N 
ATOM     22  N   UNL     1      33.732 -16.760 -24.728  0.00  0.00    -0.274 N 
ATOM     23  C   UNL     1      33.970 -15.409 -22.336  0.00  0.00    +0.071 A 
ATOM     24  C   UNL     1      34.118 -17.516 -23.623  0.00  0.00    +0.330 A 
ATOM     25  C   UNL     1      33.585 -14.701 -23.481  0.00  0.00    +0.099 A 
ATOM     26  C   UNL     1      34.085 -14.698 -21.129  0.00  0.00    +0.018 C 
ATOM     27  C   UNL     1      33.452 -15.405 -24.769  0.00  0.00    +0.265 A 
ATOM     28  C   UNL     1      33.322 -13.325 -23.429  0.00  0.00    +0.146 C 
ATOM     29  C   UNL     1      33.822 -13.327 -21.074  0.00  0.00    +0.004 C 
ATOM     30  C   UNL     1      33.441 -12.641 -22.222  0.00  0.00    +0.030 C 
ATOM     31  H   UNL     1      33.648 -17.247 -25.581  0.00  0.00    +0.173 HD
ENDBRANCH  17  21
ENDBRANCH   1  17
TORSDOF 6
ENDMDL
MODEL 4
REMARK VINA RESULT:     -13.4      4.733     10.497
REMARK  Name = 448890
REMARK  6 active torsions:
REMARK  status: ('A' for Active; 'I' for Inactive)
REMARK    1  A    between atoms: C_1  and  C_2
REMARK    2  A    between atoms: C_1  and  C_17
REMARK    3  A    between atoms: C_2  and  C_3
REMARK    4  A    between atoms: C_3  and  N_4
REMARK    5  A    between atoms: C_8  and  C_11
REMARK    6  A    between atoms: C_17  and  N_21
REMARK                            x       y       z     vdW  Elec       q    Type
REMARK                         _______ _______ _______ _____ _____    ______ ____
ROOT
ATOM      1  C   UNL     1      33.447 -13.111 -23.255  0.00  0.00    +0.022 C 
ENDROOT
BRANCH   1   2
ATOM      2  C   UNL     1      33.258 -14.521 -23.824  0.00  0.00    -0.021 C 
BRANCH   2   3
ATOM      3  C   UNL     1      34.604 -15.178 -24.125  0.00  0.00    -0.077 C 
BRANCH   3   4
ATOM      4  N   UNL     1      34.807 -16.337 -23.258  0.00  0.00    +0.390 N 
ATOM      5  C   UNL     1      34.515 -16.008 -21.859  0.00  0.00    -0.072 C 
ATOM      6  C   UNL     1      33.987 -17.473 -23.706  0.00  0.00    -0.051 C 
ATOM      7  C   UNL     1      34.896 -17.190 -20.955  0.00  0.00    +0.003 C 
ATOM      8  C   UNL     1      34.368 -18.514 -21.460  0.00  0.00    -0.031 C 
ATOM      9  C   UNL     1      33.951 -18.624 -22.737  0.00  0.00    -0.053 C 
ATOM     10  H   UNL     1      35.789 -16.606 -23.319  0.00  0.00    -0.079 HD
BRANCH   8  11
ATOM     11  C   UNL     1      34.335 -19.662 -20.524  0.00  0.00    -0.004 C 
ATOM     12  C   UNL     1      35.525 -20.191 -20.020  0.00  0.00    -0.000 C 
ATOM     13  C   UNL     1      33.112 -20.219 -20.140  0.00  0.00    -0.000 C 
ATOM     14  C   UNL     1      35.493 -21.272 -19.138  0.00  0.00    -0.000 C 
ATOM     15  C   UNL     1      33.080 -21.299 -19.258  0.00  0.00    -0.000 C 
ATOM     16  C   UNL     1      34.270 -21.826 -18.757  0.00  0.00    -0.000 C 
ENDBRANCH   8  11
ENDBRANCH   3   4
ENDBRANCH   2   3
ENDBRANCH   1   2
BRANCH   1  17
ATOM     17  C   UNL     1      32.174 -12.274 -23.329  0.00  0.00    +0.110 C 
BRANCH  17  21
ATOM     18  F   UNL     1      31.121  -7.308 -19.872  0.00  0.00    -0.204 F 
ATOM     19  O   UNL     1      31.969 -13.471 -20.789  0.00  0.00    -0.246 OA
ATOM     20  O   UNL     1      31.210  -9.511 -18.628  0.00  0.00    -0.267 OA
ATOM     21  N   UNL     1      31.919 -11.539 -22.092  0.00  0.00    -0.281 N 
ATOM     22  N   UNL     1      31.594 -11.478 -19.750  0.00  0.00    -0.274 N 
ATOM     23  C   UNL     1      31.761 -10.120 -22.143  0.00  0.00    +0.071 A 
ATOM     24  C   UNL     1      31.838 -12.247 -20.885  0.00  0.00    +0.330 A 
ATOM     25  C   UNL     1      31.516  -9.398 -20.968  0.00  0.00    +0.099 A 
ATOM     26  C   UNL     1      31.841  -9.404 -23.351  0.00  0.00    +0.018 C 
ATOM     27  C   UNL     1      31.423 -10.106 -19.679  0.00  0.00    +0.265 A 
ATOM     28  C   UNL     1      31.355  -8.006 -20.992  0.00  0.00    +0.146 C 
ATOM     29  C   UNL     1      31.682  -8.016 -23.377  0.00  0.00    +0.004 C 
ATOM     30  C   UNL     1      31.440  -7.317 -22.199  0.00  0.00    +0.030 C 
ATOM     31  H   UNL     1      31.534 -11.967 -18.897  0.00  0.00    +0.173 HD
ENDBRANCH  17  21
ENDBRANCH   1  17
TORSDOF 6
ENDMDL
MODEL 5
REMARK VINA RESULT:     -13.3      3.359      5.976
REMARK  Name = 448890
REMARK  6 active torsions:
REMARK  status: ('A' for Active; 'I' for Inactive)
REMARK    1  A    between atoms: C_1  and  C_2
REMARK    2  A    between atoms: C_1  and  C_17
REMARK    3  A    between atoms: C_2  and  C_3
REMARK    4  A    between atoms: C_3  and  N_4
REMARK    5  A    between atoms: C_8  and  C_11
REMARK    6  A    between atoms: C_17  and  N_21
REMARK                            x       y       z     vdW  Elec       q    Type
REMARK                         _______ _______ _______ _____ _____    ______ ____
ROOT
ATOM      1  C   UNL     1      33.465 -23.136 -15.256  0.00  0.00    +0.022 C 
ENDROOT
BRANCH   1   2
ATOM      2  C   UNL     1      32.745 -22.539 -16.470  0.00  0.00    -0.021 C 
BRANCH   2   3
ATOM      3  C   UNL     1      33.503 -22.840 -17.762  0.00  0.00    -0.077 C 
BRANCH   3   4
ATOM      4  N   UNL     1      33.728 -21.607 -18.515  0.00  0.00    +0.390 N 
ATOM      5  C   UNL     1      34.865 -21.748 -19.430  0.00  0.00    -0.072 C 
ATOM      6  C   UNL     1      32.515 -21.218 -19.251  0.00  0.00    -0.051 C 
ATOM      7  C   UNL     1      35.180 -20.393 -20.082  0.00  0.00    +0.003 C 
ATOM      8  C   UNL     1      33.952 -19.703 -20.633  0.00  0.00    -0.031 C 
ATOM      9  C   UNL     1      32.728 -20.101 -20.237  0.00  0.00    -0.053 C 
ATOM     10  H   UNL     1      33.951 -20.868 -17.848  0.00  0.00    -0.079 HD
BRANCH   8  11
ATOM     11  C   UNL     1      34.142 -18.593 -21.597  0.00  0.00    -0.004 C 
ATOM     12  C   UNL     1      34.692 -17.382 -21.174  0.00  0.00    -0.000 C 
ATOM     13  C   UNL     1      33.772 -18.757 -22.935  0.00  0.00    -0.000 C 
ATOM     14  C   UNL     1      34.870 -16.338 -22.082  0.00  0.00    -0.000 C 
ATOM     15  C   UNL     1      33.950 -17.713 -23.842  0.00  0.00    -0.000 C 
ATOM     16  C   UNL     1      34.499 -16.503 -23.416  0.00  0.00    -0.000 C 
ENDBRANCH   8  11
ENDBRANCH   3   4
ENDBRANCH   2   3
ENDBRANCH   1   2
BRANCH   1  17
ATOM     17  C   UNL     1      34.498 -22.184 -14.660  0.00  0.00    +0.110 C 
BRANCH  17  21
ATOM     18  F   UNL     1      39.315 -25.560 -12.898  0.00  0.00    -0.204 F 
ATOM     19  O   UNL     1      36.339 -21.515 -16.682  0.00  0.00    -0.246 OA
ATOM     20  O   UNL     1      39.650 -24.182 -14.995  0.00  0.00    -0.267 OA
ATOM     21  N   UNL     1      35.856 -22.715 -14.743  0.00  0.00    -0.281 N 
ATOM     22  N   UNL     1      37.963 -22.855 -15.810  0.00  0.00    -0.274 N 
ATOM     23  C   UNL     1      36.308 -23.635 -13.746  0.00  0.00    +0.071 A 
ATOM     24  C   UNL     1      36.682 -22.306 -15.799  0.00  0.00    +0.330 A 
ATOM     25  C   UNL     1      37.607 -24.154 -13.809  0.00  0.00    +0.099 A 
ATOM     26  C   UNL     1      35.484 -24.048 -12.686  0.00  0.00    +0.018 C 
ATOM     27  C   UNL     1      38.506 -23.749 -14.904  0.00  0.00    +0.265 A 
ATOM     28  C   UNL     1      38.073 -25.058 -12.845  0.00  0.00    +0.146 C 
ATOM     29  C   UNL     1      35.947 -24.949 -11.723  0.00  0.00    +0.004 C 
ATOM     30  C   UNL     1      37.241 -25.454 -11.802  0.00  0.00    +0.030 C 
ATOM     31  H   UNL     1      38.550 -22.574 -16.549  0.00  0.00    +0.173 HD
ENDBRANCH  17  21
ENDBRANCH   1  17
TORSDOF 6
ENDMDL
MODEL 6
REMARK VINA RESULT:     -13.2      3.542     10.404
REMARK  Name = 448890
REMARK  6 active torsions:
REMARK  status: ('A' for Active; 'I' for Inactive)
REMARK    1  A    between atoms: C_1  and  C_2
REMARK    2  A    between atoms: C_1  and  C_17
REMARK    3  A    between atoms: C_2  and  C_3
REMARK    4  A    between atoms: C_3  and  N_4
REMARK    5  A    between atoms: C_8  and  C_11
REMARK    6  A    between atoms: C_17  and  N_21
REMARK                            x       y       z     vdW  Elec       q    Type
REMARK                         _______ _______ _______ _____ _____    ______ ____
ROOT
ATOM      1  C   UNL     1      34.095 -19.294 -20.775  0.00  0.00    +0.022 C 
ENDROOT
BRANCH   1   2
ATOM      2  C   UNL     1      34.905 -20.362 -20.033  0.00  0.00    -0.021 C 
BRANCH   2   3
ATOM      3  C   UNL     1      33.989 -21.303 -19.251  0.00  0.00    -0.077 C 
BRANCH   3   4
ATOM      4  N   UNL     1      34.734 -21.959 -18.178  0.00  0.00    +0.390 N 
ATOM      5  C   UNL     1      35.828 -21.109 -17.698  0.00  0.00    -0.072 C 
ATOM      6  C   UNL     1      33.838 -22.325 -17.070  0.00  0.00    -0.051 C 
ATOM      7  C   UNL     1      36.691 -21.888 -16.693  0.00  0.00    +0.003 C 
ATOM      8  C   UNL     1      35.873 -22.595 -15.636  0.00  0.00    -0.031 C 
ATOM      9  C   UNL     1      34.553 -22.786 -15.829  0.00  0.00    -0.053 C 
ATOM     10  H   UNL     1      35.143 -22.813 -18.557  0.00  0.00    -0.079 HD
BRANCH   8  11
ATOM     11  C   UNL     1      36.562 -23.065 -14.411  0.00  0.00    -0.004 C 
ATOM     12  C   UNL     1      37.618 -23.973 -14.505  0.00  0.00    -0.000 C 
ATOM     13  C   UNL     1      36.158 -22.600 -13.157  0.00  0.00    -0.000 C 
ATOM     14  C   UNL     1      38.267 -24.416 -13.352  0.00  0.00    -0.000 C 
ATOM     15  C   UNL     1      36.806 -23.042 -12.004  0.00  0.00    -0.000 C 
ATOM     16  C   UNL     1      37.861 -23.950 -12.101  0.00  0.00    -0.000 C 
ENDBRANCH   8  11
ENDBRANCH   3   4
ENDBRANCH   2   3
ENDBRANCH   1   2
BRANCH   1  17
ATOM     17  C   UNL     1      34.899 -18.024 -21.035  0.00  0.00    +0.110 C 
BRANCH  17  21
ATOM     18  F   UNL     1      32.945 -13.180 -24.265  0.00  0.00    -0.204 F 
ATOM     19  O   UNL     1      34.592 -19.208 -23.570  0.00  0.00    -0.246 OA
ATOM     20  O   UNL     1      33.172 -15.342 -25.561  0.00  0.00    -0.267 OA
ATOM     21  N   UNL     1      34.443 -17.311 -22.226  0.00  0.00    -0.281 N 
ATOM     22  N   UNL     1      33.888 -17.263 -24.525  0.00  0.00    -0.274 N 
ATOM     23  C   UNL     1      34.123 -15.921 -22.127  0.00  0.00    +0.071 A 
ATOM     24  C   UNL     1      34.329 -18.010 -23.435  0.00  0.00    +0.330 A 
ATOM     25  C   UNL     1      33.685 -15.221 -23.258  0.00  0.00    +0.099 A 
ATOM     26  C   UNL     1      34.235 -15.215 -20.917  0.00  0.00    +0.018 C 
ATOM     27  C   UNL     1      33.552 -15.920 -24.548  0.00  0.00    +0.265 A 
ATOM     28  C   UNL     1      33.366 -13.858 -23.188  0.00  0.00    +0.146 C 
ATOM     29  C   UNL     1      33.918 -13.856 -20.845  0.00  0.00    +0.004 C 
ATOM     30  C   UNL     1      33.483 -13.177 -21.979  0.00  0.00    +0.030 C 
ATOM     31  H   UNL     1      33.806 -17.746 -25.379  0.00  0.00    +0.173 HD
ENDBRANCH  17  21
ENDBRANCH   1  17
TORSDOF 6
ENDMDL
MODEL 7
REMARK VINA RESULT:     -13.1      6.237     12.058
REMARK  Name = 448890
REMARK  6 active torsions:
REMARK  status: ('A' for Active; 'I' for Inactive)
REMARK    1  A    between atoms: C_1  and  C_2
REMARK    2  A    between atoms: C_1  and  C_17
REMARK    3  A    between atoms: C_2  and  C_3
REMARK    4  A    between atoms: C_3  and  N_4
REMARK    5  A    between atoms: C_8  and  C_11
REMARK    6  A    between atoms: C_17  and  N_21
REMARK                            x       y       z     vdW  Elec       q    Type
REMARK                         _______ _______ _______ _____ _____    ______ ____
ROOT
ATOM      1  C   UNL     1      31.891 -10.641 -22.873  0.00  0.00    +0.022 C 
ENDROOT
BRANCH   1   2
ATOM      2  C   UNL     1      32.322 -12.050 -22.454  0.00  0.00    -0.021 C 
BRANCH   2   3
ATOM      3  C   UNL     1      33.410 -12.590 -23.381  0.00  0.00    -0.077 C 
BRANCH   3   4
ATOM      4  N   UNL     1      34.017 -13.789 -22.805  0.00  0.00    +0.390 N 
ATOM      5  C   UNL     1      33.362 -14.160 -21.547  0.00  0.00    -0.072 C 
ATOM      6  C   UNL     1      33.974 -14.905 -23.761  0.00  0.00    -0.051 C 
ATOM      7  C   UNL     1      34.124 -15.318 -20.884  0.00  0.00    +0.003 C 
ATOM      8  C   UNL     1      34.434 -16.446 -21.841  0.00  0.00    -0.031 C 
ATOM      9  C   UNL     1      34.357 -16.235 -23.170  0.00  0.00    -0.053 C 
ATOM     10  H   UNL     1      34.994 -13.578 -22.600  0.00  0.00    -0.079 HD
BRANCH   8  11
ATOM     11  C   UNL     1      34.823 -17.761 -21.278  0.00  0.00    -0.004 C 
ATOM     12  C   UNL     1      36.167 -18.049 -21.034  0.00  0.00    -0.000 C 
ATOM     13  C   UNL     1      33.845 -18.716 -20.987  0.00  0.00    -0.000 C 
ATOM     14  C   UNL     1      36.533 -19.286 -20.504  0.00  0.00    -0.000 C 
ATOM     15  C   UNL     1      34.211 -19.953 -20.456  0.00  0.00    -0.000 C 
ATOM     16  C   UNL     1      35.555 -20.238 -20.215  0.00  0.00    -0.000 C 
ENDBRANCH   8  11
ENDBRANCH   3   4
ENDBRANCH   2   3
ENDBRANCH   1   2
BRANCH   1  17
ATOM     17  C   UNL     1      30.779 -10.081 -21.990  0.00  0.00    +0.110 C 
BRANCH  17  21
ATOM     18  F   UNL     1      32.091  -4.150 -21.084  0.00  0.00    -0.204 F 
ATOM     19  O   UNL     1      31.565 -10.153 -19.287  0.00  0.00    -0.246 OA
ATOM     20  O   UNL     1      32.416  -5.663 -19.081  0.00  0.00    -0.267 OA
ATOM     21  N   UNL     1      31.210  -8.912 -21.227  0.00  0.00    -0.281 N 
ATOM     22  N   UNL     1      31.978  -7.913 -19.225  0.00  0.00    -0.274 N 
ATOM     23  C   UNL     1      31.247  -7.635 -21.869  0.00  0.00    +0.071 A 
ATOM     24  C   UNL     1      31.578  -9.073 -19.885  0.00  0.00    +0.330 A 
ATOM     25  C   UNL     1      31.656  -6.503 -21.155  0.00  0.00    +0.099 A 
ATOM     26  C   UNL     1      30.878  -7.467 -23.215  0.00  0.00    +0.018 C 
ATOM     27  C   UNL     1      32.051  -6.631 -19.741  0.00  0.00    +0.265 A 
ATOM     28  C   UNL     1      31.699  -5.239 -21.761  0.00  0.00    +0.146 C 
ATOM     29  C   UNL     1      30.921  -6.209 -23.822  0.00  0.00    +0.004 C 
ATOM     30  C   UNL     1      31.331  -5.096 -23.096  0.00  0.00    +0.030 C 
ATOM     31  H   UNL     1      32.238  -8.017 -18.281  0.00  0.00    +0.173 HD
ENDBRANCH  17  21
ENDBRANCH   1  17
TORSDOF 6
ENDMDL
MODEL 8
REMARK VINA RESULT:     -12.7      2.850      4.965
REMARK  Name = 448890
REMARK  6 active torsions:
REMARK  status: ('A' for Active; 'I' for Inactive)
REMARK    1  A    between atoms: C_1  and  C_2
REMARK    2  A    between atoms: C_1  and  C_17
REMARK    3  A    between atoms: C_2  and  C_3
REMARK    4  A    between atoms: C_3  and  N_4
REMARK    5  A    between atoms: C_8  and  C_11
REMARK    6  A    between atoms: C_17  and  N_21
REMARK                            x       y       z     vdW  Elec       q    Type
REMARK                         _______ _______ _______ _____ _____    ______ ____
ROOT
ATOM      1  C   UNL     1      36.126 -21.424 -16.274  0.00  0.00    +0.022 C 
ENDROOT
BRANCH   1   2
ATOM      2  C   UNL     1      36.365 -21.015 -17.732  0.00  0.00    -0.021 C 
BRANCH   2   3
ATOM      3  C   UNL     1      35.308 -21.622 -18.654  0.00  0.00    -0.077 C 
BRANCH   3   4
ATOM      4  N   UNL     1      35.102 -20.766 -19.820  0.00  0.00    +0.390 N 
ATOM      5  C   UNL     1      33.751 -20.197 -19.827  0.00  0.00    -0.072 C 
ATOM      6  C   UNL     1      36.114 -19.700 -19.869  0.00  0.00    -0.051 C 
ATOM      7  C   UNL     1      33.510 -19.442 -21.143  0.00  0.00    +0.003 C 
ATOM      8  C   UNL     1      34.639 -18.501 -21.500  0.00  0.00    -0.031 C 
ATOM      9  C   UNL     1      35.836 -18.636 -20.897  0.00  0.00    -0.053 C 
ATOM     10  H   UNL     1      35.204 -21.344 -20.655  0.00  0.00    -0.079 HD
BRANCH   8  11
ATOM     11  C   UNL     1      34.387 -17.454 -22.518  0.00  0.00    -0.004 C 
ATOM     12  C   UNL     1      34.660 -16.116 -22.229  0.00  0.00    -0.000 C 
ATOM     13  C   UNL     1      33.877 -17.803 -23.771  0.00  0.00    -0.000 C 
ATOM     14  C   UNL     1      34.424 -15.130 -23.188  0.00  0.00    -0.000 C 
ATOM     15  C   UNL     1      33.641 -16.817 -24.729  0.00  0.00    -0.000 C 
ATOM     16  C   UNL     1      33.914 -15.481 -24.438  0.00  0.00    -0.000 C 
ENDBRANCH   8  11
ENDBRANCH   3   4
ENDBRANCH   2   3
ENDBRANCH   1   2
BRANCH   1  17
ATOM     17  C   UNL     1      35.134 -22.576 -16.144  0.00  0.00    +0.110 C 
BRANCH  17  21
ATOM     18  F   UNL     1      37.314 -25.315 -11.098  0.00  0.00    -0.204 F 
ATOM     19  O   UNL     1      32.841 -22.510 -14.512  0.00  0.00    -0.246 OA
ATOM     20  O   UNL     1      34.892 -24.589 -10.991  0.00  0.00    -0.267 OA
ATOM     21  N   UNL     1      35.076 -23.109 -14.785  0.00  0.00    -0.281 N 
ATOM     22  N   UNL     1      33.898 -23.548 -12.781  0.00  0.00    -0.274 N 
ATOM     23  C   UNL     1      36.244 -23.710 -14.221  0.00  0.00    +0.071 A 
ATOM     24  C   UNL     1      33.875 -23.018 -14.069  0.00  0.00    +0.330 A 
ATOM     25  C   UNL     1      36.209 -24.225 -12.920  0.00  0.00    +0.099 A 
ATOM     26  C   UNL     1      37.452 -23.803 -14.933  0.00  0.00    +0.018 C 
ATOM     27  C   UNL     1      34.964 -24.149 -12.135  0.00  0.00    +0.265 A 
ATOM     28  C   UNL     1      37.340 -24.818 -12.343  0.00  0.00    +0.146 C 
ATOM     29  C   UNL     1      38.582 -24.394 -14.361  0.00  0.00    +0.004 C 
ATOM     30  C   UNL     1      38.526 -24.901 -13.067  0.00  0.00    +0.030 C 
ATOM     31  H   UNL     1      33.058 -23.488 -12.271  0.00  0.00    +0.173 HD
ENDBRANCH  17  21
ENDBRANCH   1  17
TORSDOF 6
ENDMDL
MODEL 9
REMARK VINA RESULT:     -12.6      3.060      4.866
REMARK  Name = 448890
REMARK  6 active torsions:
REMARK  status: ('A' for Active; 'I' for Inactive)
REMARK    1  A    between atoms: C_1  and  C_2
REMARK    2  A    between atoms: C_1  and  C_17
REMARK    3  A    between atoms: C_2  and  C_3
REMARK    4  A    between atoms: C_3  and  N_4
REMARK    5  A    between atoms: C_8  and  C_11
REMARK    6  A    between atoms: C_17  and  N_21
REMARK                            x       y       z     vdW  Elec       q    Type
REMARK                         _______ _______ _______ _____ _____    ______ ____
ROOT
ATOM      1  C   UNL     1      36.704 -20.917 -16.332  0.00  0.00    +0.022 C 
ENDROOT
BRANCH   1   2
ATOM      2  C   UNL     1      36.667 -20.256 -17.715  0.00  0.00    -0.021 C 
BRANCH   2   3
ATOM      3  C   UNL     1      35.916 -21.127 -18.721  0.00  0.00    -0.077 C 
BRANCH   3   4
ATOM      4  N   UNL     1      35.588 -20.352 -19.916  0.00  0.00    +0.390 N 
ATOM      5  C   UNL     1      34.162 -20.017 -19.954  0.00  0.00    -0.072 C 
ATOM      6  C   UNL     1      36.410 -19.134 -19.988  0.00  0.00    -0.051 C 
ATOM      7  C   UNL     1      33.818 -19.352 -21.296  0.00  0.00    +0.003 C 
ATOM      8  C   UNL     1      34.781 -18.248 -21.671  0.00  0.00    -0.031 C 
ATOM      9  C   UNL     1      35.975 -18.163 -21.053  0.00  0.00    -0.053 C 
ATOM     10  H   UNL     1      35.797 -20.930 -20.731  0.00  0.00    -0.079 HD
BRANCH   8  11
ATOM     11  C   UNL     1      34.374 -17.287 -22.724  0.00  0.00    -0.004 C 
ATOM     12  C   UNL     1      33.818 -17.750 -23.919  0.00  0.00    -0.000 C 
ATOM     13  C   UNL     1      34.545 -15.915 -22.526  0.00  0.00    -0.000 C 
ATOM     14  C   UNL     1      33.435 -16.847 -24.910  0.00  0.00    -0.000 C 
ATOM     15  C   UNL     1      34.162 -15.011 -23.517  0.00  0.00    -0.000 C 
ATOM     16  C   UNL     1      33.607 -15.477 -24.709  0.00  0.00    -0.000 C 
ENDBRANCH   8  11
ENDBRANCH   3   4
ENDBRANCH   2   3
ENDBRANCH   1   2
BRANCH   1  17
ATOM     17  C   UNL     1      36.348 -22.400 -16.382  0.00  0.00    +0.110 C 
BRANCH  17  21
ATOM     18  F   UNL     1      31.506 -23.972 -12.948  0.00  0.00    -0.204 F 
ATOM     19  O   UNL     1      37.638 -23.016 -13.956  0.00  0.00    -0.246 OA
ATOM     20  O   UNL     1      33.755 -24.095 -11.793  0.00  0.00    -0.267 OA
ATOM     21  N   UNL     1      35.658 -22.846 -15.174  0.00  0.00    -0.281 N 
ATOM     22  N   UNL     1      35.682 -23.544 -12.914  0.00  0.00    -0.274 N 
ATOM     23  C   UNL     1      34.236 -22.988 -15.195  0.00  0.00    +0.071 A 
ATOM     24  C   UNL     1      36.411 -23.124 -14.025  0.00  0.00    +0.330 A 
ATOM     25  C   UNL     1      33.557 -23.416 -14.048  0.00  0.00    +0.099 A 
ATOM     26  C   UNL     1      33.477 -22.712 -16.345  0.00  0.00    +0.018 C 
ATOM     27  C   UNL     1      34.312 -23.717 -12.819  0.00  0.00    +0.265 A 
ATOM     28  C   UNL     1      32.163 -23.564 -14.043  0.00  0.00    +0.146 C 
ATOM     29  C   UNL     1      32.087 -22.858 -16.343  0.00  0.00    +0.004 C 
ATOM     30  C   UNL     1      31.430 -23.284 -15.193  0.00  0.00    +0.030 C 
ATOM     31  H   UNL     1      36.202 -23.742 -12.101  0.00  0.00    +0.173 HD
ENDBRANCH  17  21
ENDBRANCH   1  17
TORSDOF 6
ENDMDL
