MODEL 1
REMARK VINA RESULT:     -12.3      0.000      0.000
REMARK  Name = 11687907
REMARK  4 active torsions:
REMARK  status: ('A' for Active; 'I' for Inactive)
REMARK    1  A    between atoms: C_1  and  C_7
REMARK    2  A    between atoms: C_2  and  C_16
REMARK    3  A    between atoms: C_7  and  N_8
REMARK    4  A    between atoms: C_16  and  N_17
REMARK                            x       y       z     vdW  Elec       q    Type
REMARK                         _______ _______ _______ _____ _____    ______ ____
ROOT
ATOM      1  C   UNL     1      33.704 -21.447 -18.863  0.00  0.00    -0.002 C 
ATOM      2  C   UNL     1      34.974 -19.598 -20.523  0.00  0.00    -0.002 C 
ATOM      3  C   UNL     1      32.948 -20.622 -19.694  0.00  0.00    -0.003 C 
ATOM      4  C   UNL     1      33.582 -19.697 -20.524  0.00  0.00    -0.003 C 
ATOM      5  C   UNL     1      35.096 -21.349 -18.862  0.00  0.00    -0.003 C 
ATOM      6  C   UNL     1      35.731 -20.425 -19.691  0.00  0.00    -0.003 C 
ENDROOT
BRANCH   1   7
ATOM      7  C   UNL     1      33.025 -22.436 -17.978  0.00  0.00    +0.123 C 
BRANCH   7   8
ATOM      8  N   UNL     1      31.608 -22.127 -17.779  0.00  0.00    -0.273 N 
ATOM      9  N   UNL     1      31.608 -23.094 -15.640  0.00  0.00    -0.181 NA
ATOM     10  N   UNL     1      29.606 -22.114 -16.556  0.00  0.00    -0.203 NA
ATOM     11  C   UNL     1      30.924 -22.453 -16.631  0.00  0.00    +0.087 C 
ATOM     12  C   UNL     1      30.906 -23.398 -14.529  0.00  0.00    +0.108 C 
ATOM     13  C   UNL     1      28.966 -22.448 -15.416  0.00  0.00    +0.165 C 
ATOM     14  C   UNL     1      29.571 -23.097 -14.359  0.00  0.00    +0.022 C 
ATOM     15  H   UNL     1      31.123 -21.665 -18.499  0.00  0.00    +0.159 HD
ENDBRANCH   7   8
ENDBRANCH   1   7
BRANCH   2  16
ATOM     16  C   UNL     1      35.654 -18.610 -21.409  0.00  0.00    +0.123 C 
BRANCH  16  17
ATOM     17  N   UNL     1      35.232 -17.235 -21.136  0.00  0.00    -0.273 N 
ATOM     18  N   UNL     1      34.487 -16.935 -23.341  0.00  0.00    -0.181 NA
ATOM     19  N   UNL     1      34.307 -15.160 -21.721  0.00  0.00    -0.203 NA
ATOM     20  C   UNL     1      34.662 -16.424 -22.089  0.00  0.00    +0.087 C 
ATOM     21  C   UNL     1      33.924 -16.112 -24.250  0.00  0.00    +0.108 C 
ATOM     22  C   UNL     1      33.749 -14.392 -22.680  0.00  0.00    +0.165 C 
ATOM     23  C   UNL     1      33.533 -14.818 -23.975  0.00  0.00    +0.022 C 
ATOM     24  H   UNL     1      35.363 -16.875 -20.230  0.00  0.00    +0.159 HD
ENDBRANCH  16  17
ENDBRANCH   2  16
TORSDOF 4
ENDMDL
MODEL 2
REMARK VINA RESULT:     -12.3      0.081      8.811
REMARK  Name = 11687907
REMARK  4 active torsions:
REMARK  status: ('A' for Active; 'I' for Inactive)
REMARK    1  A    between atoms: C_1  and  C_7
REMARK    2  A    between atoms: C_2  and  C_16
REMARK    3  A    between atoms: C_7  and  N_8
REMARK    4  A    between atoms: C_16  and  N_17
REMARK                            x       y       z     vdW  Elec       q    Type
REMARK                         _______ _______ _______ _____ _____    ______ ____
ROOT
ATOM      1  C   UNL     1      34.934 -19.542 -20.566  0.00  0.00    -0.002 C 
ATOM      2  C   UNL     1      33.702 -21.407 -18.896  0.00  0.00    -0.002 C 
ATOM      3  C   UNL     1      33.545 -19.661 -20.558  0.00  0.00    -0.003 C 
ATOM      4  C   UNL     1      32.929 -20.593 -19.724  0.00  0.00    -0.003 C 
ATOM      5  C   UNL     1      35.708 -20.357 -19.738  0.00  0.00    -0.003 C 
ATOM      6  C   UNL     1      35.093 -21.289 -18.904  0.00  0.00    -0.003 C 
ENDROOT
BRANCH   1   7
ATOM      7  C   UNL     1      35.592 -18.545 -21.458  0.00  0.00    +0.123 C 
BRANCH   7   8
ATOM      8  N   UNL     1      35.176 -17.172 -21.163  0.00  0.00    -0.273 N 
ATOM      9  N   UNL     1      34.452 -16.826 -23.368  0.00  0.00    -0.181 NA
ATOM     10  N   UNL     1      34.268 -15.081 -21.716  0.00  0.00    -0.203 NA
ATOM     11  C   UNL     1      34.619 -16.340 -22.105  0.00  0.00    +0.087 C 
ATOM     12  C   UNL     1      33.903 -15.983 -24.266  0.00  0.00    +0.108 C 
ATOM     13  C   UNL     1      33.724 -14.292 -22.665  0.00  0.00    +0.165 C 
ATOM     14  C   UNL     1      33.516 -14.692 -23.970  0.00  0.00    +0.022 C 
ATOM     15  H   UNL     1      35.301 -16.830 -20.249  0.00  0.00    +0.159 HD
ENDBRANCH   7   8
ENDBRANCH   1   7
BRANCH   2  16
ATOM     16  C   UNL     1      33.045 -22.405 -18.003  0.00  0.00    +0.123 C 
BRANCH  16  17
ATOM     17  N   UNL     1      31.623 -22.118 -17.800  0.00  0.00    -0.273 N 
ATOM     18  N   UNL     1      31.639 -23.110 -15.673  0.00  0.00    -0.181 NA
ATOM     19  N   UNL     1      29.622 -22.150 -16.576  0.00  0.00    -0.203 NA
ATOM     20  C   UNL     1      30.945 -22.468 -16.656  0.00  0.00    +0.087 C 
ATOM     21  C   UNL     1      30.943 -23.438 -14.565  0.00  0.00    +0.108 C 
ATOM     22  C   UNL     1      28.988 -22.506 -15.440  0.00  0.00    +0.165 C 
ATOM     23  C   UNL     1      29.603 -23.160 -14.391  0.00  0.00    +0.022 C 
ATOM     24  H   UNL     1      31.131 -21.655 -18.515  0.00  0.00    +0.159 HD
ENDBRANCH  16  17
ENDBRANCH   2  16
TORSDOF 4
ENDMDL
MODEL 3
REMARK VINA RESULT:     -12.1      0.662      8.867
REMARK  Name = 11687907
REMARK  4 active torsions:
REMARK  status: ('A' for Active; 'I' for Inactive)
REMARK    1  A    between atoms: C_1  and  C_7
REMARK    2  A    between atoms: C_2  and  C_16
REMARK    3  A    between atoms: C_7  and  N_8
REMARK    4  A    between atoms: C_16  and  N_17
REMARK                            x       y       z     vdW  Elec       q    Type
REMARK                         _______ _______ _______ _____ _____    ______ ____
ROOT
ATOM      1  C   UNL     1      35.010 -19.426 -20.662  0.00  0.00    -0.002 C 
ATOM      2  C   UNL     1      33.790 -21.322 -19.018  0.00  0.00    -0.002 C 
ATOM      3  C   UNL     1      35.789 -20.250 -19.851  0.00  0.00    -0.003 C 
ATOM      4  C   UNL     1      35.179 -21.197 -19.028  0.00  0.00    -0.003 C 
ATOM      5  C   UNL     1      33.620 -19.550 -20.652  0.00  0.00    -0.003 C 
ATOM      6  C   UNL     1      33.010 -20.497 -19.830  0.00  0.00    -0.003 C 
ENDROOT
BRANCH   1   7
ATOM      7  C   UNL     1      35.663 -18.414 -21.542  0.00  0.00    +0.123 C 
BRANCH   7   8
ATOM      8  N   UNL     1      34.933 -18.211 -22.795  0.00  0.00    -0.273 N 
ATOM      9  N   UNL     1      34.657 -15.920 -22.363  0.00  0.00    -0.181 NA
ATOM     10  N   UNL     1      33.781 -16.915 -24.376  0.00  0.00    -0.203 NA
ATOM     11  C   UNL     1      34.445 -16.986 -23.187  0.00  0.00    +0.087 C 
ATOM     12  C   UNL     1      34.166 -14.735 -22.779  0.00  0.00    +0.108 C 
ATOM     13  C   UNL     1      33.317 -15.698 -24.730  0.00  0.00    +0.165 C 
ATOM     14  C   UNL     1      33.481 -14.562 -23.964  0.00  0.00    +0.022 C 
ATOM     15  H   UNL     1      34.784 -18.986 -23.383  0.00  0.00    +0.159 HD
ENDBRANCH   7   8
ENDBRANCH   1   7
BRANCH   2  16
ATOM     16  C   UNL     1      33.137 -22.334 -18.139  0.00  0.00    +0.123 C 
BRANCH  16  17
ATOM     17  N   UNL     1      31.718 -22.049 -17.920  0.00  0.00    -0.273 N 
ATOM     18  N   UNL     1      31.755 -23.051 -15.798  0.00  0.00    -0.181 NA
ATOM     19  N   UNL     1      29.728 -22.086 -16.676  0.00  0.00    -0.203 NA
ATOM     20  C   UNL     1      31.051 -22.404 -16.771  0.00  0.00    +0.087 C 
ATOM     21  C   UNL     1      31.070 -23.384 -14.685  0.00  0.00    +0.108 C 
ATOM     22  C   UNL     1      29.106 -22.448 -15.535  0.00  0.00    +0.165 C 
ATOM     23  C   UNL     1      29.732 -23.106 -14.496  0.00  0.00    +0.022 C 
ATOM     24  H   UNL     1      31.218 -21.582 -18.628  0.00  0.00    +0.159 HD
ENDBRANCH  16  17
ENDBRANCH   2  16
TORSDOF 4
ENDMDL
MODEL 4
REMARK VINA RESULT:     -11.6      1.989      9.003
REMARK  Name = 11687907
REMARK  4 active torsions:
REMARK  status: ('A' for Active; 'I' for Inactive)
REMARK    1  A    between atoms: C_1  and  C_7
REMARK    2  A    between atoms: C_2  and  C_16
REMARK    3  A    between atoms: C_7  and  N_8
REMARK    4  A    between atoms: C_16  and  N_17
REMARK                            x       y       z     vdW  Elec       q    Type
REMARK                         _______ _______ _______ _____ _____    ______ ____
ROOT
ATOM      1  C   UNL     1      34.769 -19.849 -20.287  0.00  0.00    -0.002 C 
ATOM      2  C   UNL     1      33.663 -21.841 -18.675  0.00  0.00    -0.002 C 
ATOM      3  C   UNL     1      35.599 -20.663 -19.517  0.00  0.00    -0.003 C 
ATOM      4  C   UNL     1      35.046 -21.659 -18.711  0.00  0.00    -0.003 C 
ATOM      5  C   UNL     1      33.385 -20.031 -20.252  0.00  0.00    -0.003 C 
ATOM      6  C   UNL     1      32.833 -21.026 -19.446  0.00  0.00    -0.003 C 
ENDROOT
BRANCH   1   7
ATOM      7  C   UNL     1      35.360 -18.786 -21.149  0.00  0.00    +0.123 C 
BRANCH   7   8
ATOM      8  N   UNL     1      34.995 -17.440 -20.704  0.00  0.00    -0.273 N 
ATOM      9  N   UNL     1      34.538 -16.744 -22.898  0.00  0.00    -0.181 NA
ATOM     10  N   UNL     1      34.277 -15.232 -21.040  0.00  0.00    -0.203 NA
ATOM     11  C   UNL     1      34.594 -16.448 -21.568  0.00  0.00    +0.087 C 
ATOM     12  C   UNL     1      34.141 -15.748 -23.717  0.00  0.00    +0.108 C 
ATOM     13  C   UNL     1      33.887 -14.282 -21.917  0.00  0.00    +0.165 C 
ATOM     14  C   UNL     1      33.800 -14.485 -23.279  0.00  0.00    +0.022 C 
ATOM     15  H   UNL     1      35.038 -17.235 -19.742  0.00  0.00    +0.159 HD
ENDBRANCH   7   8
ENDBRANCH   1   7
BRANCH   2  16
ATOM     16  C   UNL     1      33.072 -22.905 -17.814  0.00  0.00    +0.123 C 
BRANCH  16  17
ATOM     17  N   UNL     1      33.021 -22.516 -16.403  0.00  0.00    -0.273 N 
ATOM     18  N   UNL     1      34.625 -24.125 -15.813  0.00  0.00    -0.181 NA
ATOM     19  N   UNL     1      33.657 -22.674 -14.150  0.00  0.00    -0.203 NA
ATOM     20  C   UNL     1      33.785 -23.119 -15.433  0.00  0.00    +0.087 C 
ATOM     21  C   UNL     1      35.360 -24.693 -14.836  0.00  0.00    +0.108 C 
ATOM     22  C   UNL     1      34.422 -23.287 -13.224  0.00  0.00    +0.165 C 
ATOM     23  C   UNL     1      35.299 -24.313 -13.511  0.00  0.00    +0.022 C 
ATOM     24  H   UNL     1      32.412 -21.790 -16.138  0.00  0.00    +0.159 HD
ENDBRANCH  16  17
ENDBRANCH   2  16
TORSDOF 4
ENDMDL
MODEL 5
REMARK VINA RESULT:     -11.6      3.232      4.116
REMARK  Name = 11687907
REMARK  4 active torsions:
REMARK  status: ('A' for Active; 'I' for Inactive)
REMARK    1  A    between atoms: C_1  and  C_7
REMARK    2  A    between atoms: C_2  and  C_16
REMARK    3  A    between atoms: C_7  and  N_8
REMARK    4  A    between atoms: C_16  and  N_17
REMARK                            x       y       z     vdW  Elec       q    Type
REMARK                         _______ _______ _______ _____ _____    ______ ____
ROOT
ATOM      1  C   UNL     1      34.542 -21.823 -17.762  0.00  0.00    -0.002 C 
ATOM      2  C   UNL     1      34.692 -20.269 -20.075  0.00  0.00    -0.002 C 
ATOM      3  C   UNL     1      35.770 -21.316 -18.183  0.00  0.00    -0.003 C 
ATOM      4  C   UNL     1      35.846 -20.540 -19.340  0.00  0.00    -0.003 C 
ATOM      5  C   UNL     1      33.386 -21.552 -18.498  0.00  0.00    -0.003 C 
ATOM      6  C   UNL     1      33.462 -20.776 -19.654  0.00  0.00    -0.003 C 
ENDROOT
BRANCH   1   7
ATOM      7  C   UNL     1      34.461 -22.651 -16.525  0.00  0.00    +0.123 C 
BRANCH   7   8
ATOM      8  N   UNL     1      35.620 -22.464 -15.651  0.00  0.00    -0.273 N 
ATOM      9  N   UNL     1      35.820 -24.772 -15.277  0.00  0.00    -0.181 NA
ATOM     10  N   UNL     1      37.348 -23.215 -14.252  0.00  0.00    -0.203 NA
ATOM     11  C   UNL     1      36.278 -23.508 -15.046  0.00  0.00    +0.087 C 
ATOM     12  C   UNL     1      36.489 -25.772 -14.667  0.00  0.00    +0.108 C 
ATOM     13  C   UNL     1      37.970 -24.263 -13.675  0.00  0.00    +0.165 C 
ATOM     14  C   UNL     1      37.581 -25.576 -13.847  0.00  0.00    +0.022 C 
ATOM     15  H   UNL     1      35.943 -21.548 -15.490  0.00  0.00    +0.159 HD
ENDBRANCH   7   8
ENDBRANCH   1   7
BRANCH   2  16
ATOM     16  C   UNL     1      34.772 -19.440 -21.312  0.00  0.00    +0.123 C 
BRANCH  16  17
ATOM     17  N   UNL     1      34.741 -18.005 -21.023  0.00  0.00    -0.273 N 
ATOM     18  N   UNL     1      34.255 -17.477 -23.258  0.00  0.00    -0.181 NA
ATOM     19  N   UNL     1      34.483 -15.745 -21.598  0.00  0.00    -0.203 NA
ATOM     20  C   UNL     1      34.487 -17.053 -21.982  0.00  0.00    +0.087 C 
ATOM     21  C   UNL     1      34.009 -16.517 -24.172  0.00  0.00    +0.108 C 
ATOM     22  C   UNL     1      34.229 -14.838 -22.564  0.00  0.00    +0.165 C 
ATOM     23  C   UNL     1      33.984 -15.169 -23.882  0.00  0.00    +0.022 C 
ATOM     24  H   UNL     1      34.910 -17.708 -20.100  0.00  0.00    +0.159 HD
ENDBRANCH  16  17
ENDBRANCH   2  16
TORSDOF 4
ENDMDL
MODEL 6
REMARK VINA RESULT:     -11.5      3.107      9.299
REMARK  Name = 11687907
REMARK  4 active torsions:
REMARK  status: ('A' for Active; 'I' for Inactive)
REMARK    1  A    between atoms: C_1  and  C_7
REMARK    2  A    between atoms: C_2  and  C_16
REMARK    3  A    between atoms: C_7  and  N_8
REMARK    4  A    between atoms: C_16  and  N_17
REMARK                            x       y       z     vdW  Elec       q    Type
REMARK                         _______ _______ _______ _____ _____    ______ ____
ROOT
ATOM      1  C   UNL     1      34.704 -20.158 -20.227  0.00  0.00    -0.002 C 
ATOM      2  C   UNL     1      34.472 -21.750 -17.947  0.00  0.00    -0.002 C 
ATOM      3  C   UNL     1      35.840 -20.486 -19.487  0.00  0.00    -0.003 C 
ATOM      4  C   UNL     1      35.724 -21.282 -18.347  0.00  0.00    -0.003 C 
ATOM      5  C   UNL     1      33.451 -20.626 -19.827  0.00  0.00    -0.003 C 
ATOM      6  C   UNL     1      33.336 -21.421 -18.688  0.00  0.00    -0.003 C 
ENDROOT
BRANCH   1   7
ATOM      7  C   UNL     1      34.829 -19.309 -21.446  0.00  0.00    +0.123 C 
BRANCH   7   8
ATOM      8  N   UNL     1      34.765 -17.879 -21.139  0.00  0.00    -0.273 N 
ATOM      9  N   UNL     1      34.260 -17.335 -23.366  0.00  0.00    -0.181 NA
ATOM     10  N   UNL     1      34.451 -15.619 -21.685  0.00  0.00    -0.203 NA
ATOM     11  C   UNL     1      34.486 -16.921 -22.086  0.00  0.00    +0.087 C 
ATOM     12  C   UNL     1      33.990 -16.369 -24.268  0.00  0.00    +0.108 C 
ATOM     13  C   UNL     1      34.173 -14.706 -22.639  0.00  0.00    +0.165 C 
ATOM     14  C   UNL     1      33.932 -15.026 -23.960  0.00  0.00    +0.022 C 
ATOM     15  H   UNL     1      34.929 -17.590 -20.213  0.00  0.00    +0.159 HD
ENDBRANCH   7   8
ENDBRANCH   1   7
BRANCH   2  16
ATOM     16  C   UNL     1      34.347 -22.600 -16.728  0.00  0.00    +0.123 C 
BRANCH  16  17
ATOM     17  N   UNL     1      35.416 -22.347 -15.761  0.00  0.00    -0.273 N 
ATOM     18  N   UNL     1      35.655 -24.635 -15.297  0.00  0.00    -0.181 NA
ATOM     19  N   UNL     1      37.033 -22.998 -14.190  0.00  0.00    -0.203 NA
ATOM     20  C   UNL     1      36.049 -23.351 -15.066  0.00  0.00    +0.087 C 
ATOM     21  C   UNL     1      36.298 -25.594 -14.600  0.00  0.00    +0.108 C 
ATOM     22  C   UNL     1      37.634 -24.007 -13.526  0.00  0.00    +0.165 C 
ATOM     23  C   UNL     1      37.304 -25.337 -13.691  0.00  0.00    +0.022 C 
ATOM     24  H   UNL     1      35.694 -21.417 -15.600  0.00  0.00    +0.159 HD
ENDBRANCH  16  17
ENDBRANCH   2  16
TORSDOF 4
ENDMDL
MODEL 7
REMARK VINA RESULT:     -11.4      3.116      9.486
REMARK  Name = 11687907
REMARK  4 active torsions:
REMARK  status: ('A' for Active; 'I' for Inactive)
REMARK    1  A    between atoms: C_1  and  C_7
REMARK    2  A    between atoms: C_2  and  C_16
REMARK    3  A    between atoms: C_7  and  N_8
REMARK    4  A    between atoms: C_16  and  N_17
REMARK                            x       y       z     vdW  Elec       q    Type
REMARK                         _______ _______ _______ _____ _____    ______ ____
ROOT
ATOM      1  C   UNL     1      33.909 -14.546 -22.804  0.00  0.00    -0.002 C 
ATOM      2  C   UNL     1      34.666 -17.180 -22.280  0.00  0.00    -0.002 C 
ATOM      3  C   UNL     1      34.064 -15.449 -23.855  0.00  0.00    -0.003 C 
ATOM      4  C   UNL     1      34.443 -16.766 -23.594  0.00  0.00    -0.003 C 
ATOM      5  C   UNL     1      34.132 -14.960 -21.490  0.00  0.00    -0.003 C 
ATOM      6  C   UNL     1      34.511 -16.276 -21.229  0.00  0.00    -0.003 C 
ENDROOT
BRANCH   1   7
ATOM      7  C   UNL     1      33.503 -13.139 -23.084  0.00  0.00    +0.123 C 
BRANCH   7   8
ATOM      8  N   UNL     1      32.408 -12.692 -22.220  0.00  0.00    -0.273 N 
ATOM      9  N   UNL     1      32.490 -10.516 -23.096  0.00  0.00    -0.181 NA
ATOM     10  N   UNL     1      30.896 -11.103 -21.386  0.00  0.00    -0.203 NA
ATOM     11  C   UNL     1      31.920 -11.406 -22.234  0.00  0.00    +0.087 C 
ATOM     12  C   UNL     1      31.987  -9.265 -23.084  0.00  0.00    +0.108 C 
ATOM     13  C   UNL     1      30.442  -9.833 -21.427  0.00  0.00    +0.165 C 
ATOM     14  C   UNL     1      30.954  -8.861 -22.263  0.00  0.00    +0.022 C 
ATOM     15  H   UNL     1      32.003 -13.341 -21.602  0.00  0.00    +0.159 HD
ENDBRANCH   7   8
ENDBRANCH   1   7
BRANCH   2  16
ATOM     16  C   UNL     1      35.071 -18.587 -22.000  0.00  0.00    +0.123 C 
BRANCH  16  17
ATOM     17  N   UNL     1      34.016 -19.347 -21.326  0.00  0.00    -0.273 N 
ATOM     18  N   UNL     1      35.537 -20.263 -19.791  0.00  0.00    -0.181 NA
ATOM     19  N   UNL     1      33.195 -20.823 -19.698  0.00  0.00    -0.203 NA
ATOM     20  C   UNL     1      34.255 -20.164 -20.246  0.00  0.00    +0.087 C 
ATOM     21  C   UNL     1      35.735 -21.072 -18.730  0.00  0.00    +0.108 C 
ATOM     22  C   UNL     1      33.465 -21.615 -18.639  0.00  0.00    +0.165 C 
ATOM     23  C   UNL     1      34.728 -21.780 -18.107  0.00  0.00    +0.022 C 
ATOM     24  H   UNL     1      33.095 -19.270 -21.662  0.00  0.00    +0.159 HD
ENDBRANCH  16  17
ENDBRANCH   2  16
TORSDOF 4
ENDMDL
MODEL 8
REMARK VINA RESULT:     -11.4      3.122      5.950
REMARK  Name = 11687907
REMARK  4 active torsions:
REMARK  status: ('A' for Active; 'I' for Inactive)
REMARK    1  A    between atoms: C_1  and  C_7
REMARK    2  A    between atoms: C_2  and  C_16
REMARK    3  A    between atoms: C_7  and  N_8
REMARK    4  A    between atoms: C_16  and  N_17
REMARK                            x       y       z     vdW  Elec       q    Type
REMARK                         _______ _______ _______ _____ _____    ______ ____
ROOT
ATOM      1  C   UNL     1      34.634 -17.174 -22.360  0.00  0.00    -0.002 C 
ATOM      2  C   UNL     1      33.925 -14.515 -22.819  0.00  0.00    -0.002 C 
ATOM      3  C   UNL     1      34.413 -16.727 -23.662  0.00  0.00    -0.003 C 
ATOM      4  C   UNL     1      34.058 -15.397 -23.891  0.00  0.00    -0.003 C 
ATOM      5  C   UNL     1      34.502 -16.292 -21.286  0.00  0.00    -0.003 C 
ATOM      6  C   UNL     1      34.147 -14.963 -21.516  0.00  0.00    -0.003 C 
ENDROOT
BRANCH   1   7
ATOM      7  C   UNL     1      35.014 -18.595 -22.115  0.00  0.00    +0.123 C 
BRANCH   7   8
ATOM      8  N   UNL     1      33.962 -19.344 -21.425  0.00  0.00    -0.273 N 
ATOM      9  N   UNL     1      35.488 -20.237 -19.882  0.00  0.00    -0.181 NA
ATOM     10  N   UNL     1      33.146 -20.793 -19.771  0.00  0.00    -0.203 NA
ATOM     11  C   UNL     1      34.205 -20.144 -20.334  0.00  0.00    +0.087 C 
ATOM     12  C   UNL     1      35.690 -21.030 -18.810  0.00  0.00    +0.108 C 
ATOM     13  C   UNL     1      33.420 -21.569 -18.701  0.00  0.00    +0.165 C 
ATOM     14  C   UNL     1      34.685 -21.727 -18.172  0.00  0.00    +0.022 C 
ATOM     15  H   UNL     1      33.039 -19.270 -21.758  0.00  0.00    +0.159 HD
ENDBRANCH   7   8
ENDBRANCH   1   7
BRANCH   2  16
ATOM     16  C   UNL     1      33.546 -13.094 -23.063  0.00  0.00    +0.123 C 
BRANCH  16  17
ATOM     17  N   UNL     1      32.420 -12.667 -22.230  0.00  0.00    -0.273 N 
ATOM     18  N   UNL     1      32.515 -10.478 -23.072  0.00  0.00    -0.181 NA
ATOM     19  N   UNL     1      30.870 -11.100 -21.424  0.00  0.00    -0.203 NA
ATOM     20  C   UNL     1      31.923 -11.384 -22.242  0.00  0.00    +0.087 C 
ATOM     21  C   UNL     1      32.002  -9.231 -23.059  0.00  0.00    +0.108 C 
ATOM     22  C   UNL     1      30.407  -9.833 -21.463  0.00  0.00    +0.165 C 
ATOM     23  C   UNL     1      30.940  -8.846 -22.267  0.00  0.00    +0.022 C 
ATOM     24  H   UNL     1      32.000 -13.327 -21.634  0.00  0.00    +0.159 HD
ENDBRANCH  16  17
ENDBRANCH   2  16
TORSDOF 4
ENDMDL
MODEL 9
REMARK VINA RESULT:     -11.3      1.370      2.211
REMARK  Name = 11687907
REMARK  4 active torsions:
REMARK  status: ('A' for Active; 'I' for Inactive)
REMARK    1  A    between atoms: C_1  and  C_7
REMARK    2  A    between atoms: C_2  and  C_16
REMARK    3  A    between atoms: C_7  and  N_8
REMARK    4  A    between atoms: C_16  and  N_17
REMARK                            x       y       z     vdW  Elec       q    Type
REMARK                         _______ _______ _______ _____ _____    ______ ____
ROOT
ATOM      1  C   UNL     1      34.041 -21.069 -19.397  0.00  0.00    -0.002 C 
ATOM      2  C   UNL     1      35.231 -19.033 -20.888  0.00  0.00    -0.002 C 
ATOM      3  C   UNL     1      33.260 -20.260 -20.221  0.00  0.00    -0.003 C 
ATOM      4  C   UNL     1      33.854 -19.242 -20.966  0.00  0.00    -0.003 C 
ATOM      5  C   UNL     1      35.419 -20.860 -19.319  0.00  0.00    -0.003 C 
ATOM      6  C   UNL     1      36.013 -19.842 -20.063  0.00  0.00    -0.003 C 
ENDROOT
BRANCH   1   7
ATOM      7  C   UNL     1      33.405 -22.158 -18.602  0.00  0.00    +0.123 C 
BRANCH   7   8
ATOM      8  N   UNL     1      34.157 -22.472 -17.385  0.00  0.00    -0.273 N 
ATOM      9  N   UNL     1      32.189 -22.845 -16.162  0.00  0.00    -0.181 NA
ATOM     10  N   UNL     1      34.353 -23.081 -15.128  0.00  0.00    -0.203 NA
ATOM     11  C   UNL     1      33.552 -22.807 -16.197  0.00  0.00    +0.087 C 
ATOM     12  C   UNL     1      31.629 -23.177 -14.980  0.00  0.00    +0.108 C 
ATOM     13  C   UNL     1      33.726 -23.407 -13.978  0.00  0.00    +0.165 C 
ATOM     14  C   UNL     1      32.354 -23.471 -13.844  0.00  0.00    +0.022 C 
ATOM     15  H   UNL     1      35.140 -22.443 -17.420  0.00  0.00    +0.159 HD
ENDBRANCH   7   8
ENDBRANCH   1   7
BRANCH   2  16
ATOM     16  C   UNL     1      35.868 -17.944 -21.683  0.00  0.00    +0.123 C 
BRANCH  16  17
ATOM     17  N   UNL     1      35.185 -17.714 -22.958  0.00  0.00    -0.273 N 
ATOM     18  N   UNL     1      34.568 -15.537 -22.333  0.00  0.00    -0.181 NA
ATOM     19  N   UNL     1      33.949 -16.430 -24.484  0.00  0.00    -0.203 NA
ATOM     20  C   UNL     1      34.552 -16.532 -23.265  0.00  0.00    +0.087 C 
ATOM     21  C   UNL     1      33.939 -14.392 -22.668  0.00  0.00    +0.108 C 
ATOM     22  C   UNL     1      33.340 -15.257 -24.754  0.00  0.00    +0.165 C 
ATOM     23  C   UNL     1      33.301 -14.193 -23.875  0.00  0.00    +0.022 C 
ATOM     24  H   UNL     1      35.179 -18.437 -23.625  0.00  0.00    +0.159 HD
ENDBRANCH  16  17
ENDBRANCH   2  16
TORSDOF 4
ENDMDL
