MODEL 1
REMARK VINA RESULT:     -12.2      0.000      0.000
REMARK  Name = 449026
REMARK  9 active torsions:
REMARK  status: ('A' for Active; 'I' for Inactive)
REMARK    1  A    between atoms: C_1  and  C_2
REMARK    2  A    between atoms: C_1  and  C_16
REMARK    3  A    between atoms: C_2  and  C_6
REMARK    4  A    between atoms: C_16  and  C_17
REMARK    5  A    between atoms: C_17  and  O_18
REMARK    6  A    between atoms: O_18  and  C_19
REMARK    7  A    between atoms: C_24  and  C_26
REMARK    8  A    between atoms: C_26  and  O_27
REMARK    9  A    between atoms: O_27  and  C_28
REMARK                            x       y       z     vdW  Elec       q    Type
REMARK                         _______ _______ _______ _____ _____    ______ ____
ROOT
ATOM      1  C   UNL     1      33.823 -19.552 -20.629  0.00  0.00    +0.004 C 
ENDROOT
BRANCH   1   2
ATOM      2  C   UNL     1      34.298 -20.949 -20.236  0.00  0.00    +0.000 C 
BRANCH   2   6
ATOM      3  N   UNL     1      35.594 -22.400 -16.393  0.00  0.00    -0.292 N 
ATOM      4  N   UNL     1      36.853 -22.271 -14.387  0.00  0.00    -0.133 NA
ATOM      5  N   UNL     1      37.331 -22.854 -13.255  0.00  0.00    -0.151 NA
ATOM      6  C   UNL     1      34.596 -21.031 -18.741  0.00  0.00    +0.003 C 
ATOM      7  C   UNL     1      36.097 -21.215 -18.493  0.00  0.00    +0.022 C 
ATOM      8  C   UNL     1      33.827 -22.188 -18.095  0.00  0.00    +0.022 C 
ATOM      9  C   UNL     1      36.407 -21.338 -17.002  0.00  0.00    +0.092 C 
ATOM     10  C   UNL     1      34.146 -22.314 -16.605  0.00  0.00    +0.092 C 
ATOM     11  C   UNL     1      36.085 -22.999 -15.226  0.00  0.00    +0.153 C 
ATOM     12  C   UNL     1      35.756 -24.319 -14.990  0.00  0.00    +0.037 C 
ATOM     13  C   UNL     1      36.242 -24.911 -13.837  0.00  0.00    +0.019 C 
ATOM     14  C   UNL     1      37.024 -24.144 -12.998  0.00  0.00    +0.081 C 
ATOM     15  C   UNL     1      37.572 -24.733 -11.744  0.00  0.00    +0.054 C 
ENDBRANCH   2   6
ENDBRANCH   1   2
BRANCH   1  16
ATOM     16  C   UNL     1      34.578 -19.037 -21.852  0.00  0.00    +0.047 C 
BRANCH  16  17
ATOM     17  C   UNL     1      35.584 -17.958 -21.478  0.00  0.00    +0.205 C 
BRANCH  17  18
ATOM     18  O   UNL     1      34.959 -17.031 -20.601  0.00  0.00    -0.475 OA
BRANCH  18  19
ATOM     19  C   UNL     1      34.462 -15.885 -21.166  0.00  0.00    +0.139 C 
ATOM     20  C   UNL     1      34.590 -15.672 -22.539  0.00  0.00    +0.037 C 
ATOM     21  C   UNL     1      33.832 -14.930 -20.368  0.00  0.00    +0.037 C 
ATOM     22  C   UNL     1      34.088 -14.504 -23.113  0.00  0.00    +0.010 C 
ATOM     23  C   UNL     1      33.330 -13.763 -20.942  0.00  0.00    +0.010 C 
ATOM     24  C   UNL     1      33.458 -13.549 -22.315  0.00  0.00    +0.076 C 
BRANCH  24  26
ATOM     25  O   UNL     1      33.510 -11.681 -23.795  0.00  0.00    -0.245 OA
ATOM     26  C   UNL     1      32.934 -12.332 -22.914  0.00  0.00    +0.341 C 
BRANCH  26  27
ATOM     27  O   UNL     1      31.720 -11.992 -22.382  0.00  0.00    -0.445 OA
BRANCH  27  28
ATOM     28  C   UNL     1      31.537 -10.621 -22.013  0.00  0.00    +0.209 C 
ATOM     29  C   UNL     1      31.089 -10.554 -20.569  0.00  0.00    +0.051 C 
ENDBRANCH  27  28
ENDBRANCH  26  27
ENDBRANCH  24  26
ENDBRANCH  18  19
ENDBRANCH  17  18
ENDBRANCH  16  17
ENDBRANCH   1  16
TORSDOF 9
ENDMDL
MODEL 2
REMARK VINA RESULT:     -12.1      5.552     12.354
REMARK  Name = 449026
REMARK  9 active torsions:
REMARK  status: ('A' for Active; 'I' for Inactive)
REMARK    1  A    between atoms: C_1  and  C_2
REMARK    2  A    between atoms: C_1  and  C_16
REMARK    3  A    between atoms: C_2  and  C_6
REMARK    4  A    between atoms: C_16  and  C_17
REMARK    5  A    between atoms: C_17  and  O_18
REMARK    6  A    between atoms: O_18  and  C_19
REMARK    7  A    between atoms: C_24  and  C_26
REMARK    8  A    between atoms: C_26  and  O_27
REMARK    9  A    between atoms: O_27  and  C_28
REMARK                            x       y       z     vdW  Elec       q    Type
REMARK                         _______ _______ _______ _____ _____    ______ ____
ROOT
ATOM      1  C   UNL     1      34.565 -15.293 -22.831  0.00  0.00    +0.004 C 
ENDROOT
BRANCH   1   2
ATOM      2  C   UNL     1      33.832 -14.702 -21.629  0.00  0.00    +0.000 C 
BRANCH   2   6
ATOM      3  N   UNL     1      32.086 -10.792 -22.087  0.00  0.00    -0.292 N 
ATOM      4  N   UNL     1      31.280  -8.959 -23.361  0.00  0.00    -0.133 NA
ATOM      5  N   UNL     1      30.864  -7.667 -23.435  0.00  0.00    -0.151 NA
ATOM      6  C   UNL     1      32.899 -13.569 -22.051  0.00  0.00    +0.003 C 
ATOM      7  C   UNL     1      33.653 -12.521 -22.875  0.00  0.00    +0.022 C 
ATOM      8  C   UNL     1      32.267 -12.899 -20.827  0.00  0.00    +0.022 C 
ATOM      9  C   UNL     1      32.741 -11.361 -23.273  0.00  0.00    +0.092 C 
ATOM     10  C   UNL     1      31.363 -11.734 -21.227  0.00  0.00    +0.092 C 
ATOM     11  C   UNL     1      31.656  -9.461 -22.165  0.00  0.00    +0.153 C 
ATOM     12  C   UNL     1      31.641  -8.718 -21.001  0.00  0.00    +0.037 C 
ATOM     13  C   UNL     1      31.217  -7.403 -21.077  0.00  0.00    +0.019 C 
ATOM     14  C   UNL     1      30.838  -6.917 -22.313  0.00  0.00    +0.081 C 
ATOM     15  C   UNL     1      30.374  -5.508 -22.450  0.00  0.00    +0.054 C 
ENDBRANCH   2   6
ENDBRANCH   1   2
BRANCH   1  16
ATOM     16  C   UNL     1      34.515 -16.818 -22.811  0.00  0.00    +0.047 C 
BRANCH  16  17
ATOM     17  C   UNL     1      34.984 -17.378 -21.476  0.00  0.00    +0.205 C 
BRANCH  17  18
ATOM     18  O   UNL     1      35.244 -18.767 -21.626  0.00  0.00    -0.475 OA
BRANCH  18  19
ATOM     19  C   UNL     1      34.649 -19.608 -20.721  0.00  0.00    +0.139 C 
ATOM     20  C   UNL     1      35.434 -20.423 -19.906  0.00  0.00    +0.037 C 
ATOM     21  C   UNL     1      33.259 -19.651 -20.620  0.00  0.00    +0.037 C 
ATOM     22  C   UNL     1      34.828 -21.282 -18.988  0.00  0.00    +0.010 C 
ATOM     23  C   UNL     1      32.653 -20.509 -19.702  0.00  0.00    +0.010 C 
ATOM     24  C   UNL     1      33.437 -21.325 -18.887  0.00  0.00    +0.076 C 
BRANCH  24  26
ATOM     25  O   UNL     1      31.592 -22.241 -17.686  0.00  0.00    -0.245 OA
ATOM     26  C   UNL     1      32.806 -22.220 -17.929  0.00  0.00    +0.341 C 
BRANCH  26  27
ATOM     27  O   UNL     1      33.722 -23.038 -17.326  0.00  0.00    -0.445 OA
BRANCH  27  28
ATOM     28  C   UNL     1      33.765 -23.017 -15.896  0.00  0.00    +0.209 C 
ATOM     29  C   UNL     1      35.103 -22.468 -15.450  0.00  0.00    +0.051 C 
ENDBRANCH  27  28
ENDBRANCH  26  27
ENDBRANCH  24  26
ENDBRANCH  18  19
ENDBRANCH  17  18
ENDBRANCH  16  17
ENDBRANCH   1  16
TORSDOF 9
ENDMDL
MODEL 3
REMARK VINA RESULT:     -11.7      1.374      2.156
REMARK  Name = 449026
REMARK  9 active torsions:
REMARK  status: ('A' for Active; 'I' for Inactive)
REMARK    1  A    between atoms: C_1  and  C_2
REMARK    2  A    between atoms: C_1  and  C_16
REMARK    3  A    between atoms: C_2  and  C_6
REMARK    4  A    between atoms: C_16  and  C_17
REMARK    5  A    between atoms: C_17  and  O_18
REMARK    6  A    between atoms: O_18  and  C_19
REMARK    7  A    between atoms: C_24  and  C_26
REMARK    8  A    between atoms: C_26  and  O_27
REMARK    9  A    between atoms: O_27  and  C_28
REMARK                            x       y       z     vdW  Elec       q    Type
REMARK                         _______ _______ _______ _____ _____    ______ ____
ROOT
ATOM      1  C   UNL     1      34.548 -18.760 -21.101  0.00  0.00    +0.004 C 
ENDROOT
BRANCH   1   2
ATOM      2  C   UNL     1      33.393 -19.701 -20.763  0.00  0.00    +0.000 C 
BRANCH   2   6
ATOM      3  N   UNL     1      34.582 -22.017 -17.332  0.00  0.00    -0.292 N 
ATOM      4  N   UNL     1      34.423 -23.872 -15.860  0.00  0.00    -0.133 NA
ATOM      5  N   UNL     1      34.747 -24.477 -14.686  0.00  0.00    -0.151 NA
ATOM      6  C   UNL     1      33.862 -20.859 -19.884  0.00  0.00    +0.003 C 
ATOM      7  C   UNL     1      32.804 -21.207 -18.832  0.00  0.00    +0.022 C 
ATOM      8  C   UNL     1      35.182 -20.516 -19.188  0.00  0.00    +0.022 C 
ATOM      9  C   UNL     1      33.275 -22.340 -17.920  0.00  0.00    +0.092 C 
ATOM     10  C   UNL     1      35.645 -21.647 -18.271  0.00  0.00    +0.092 C 
ATOM     11  C   UNL     1      34.916 -22.643 -16.124  0.00  0.00    +0.153 C 
ATOM     12  C   UNL     1      35.743 -21.962 -15.252  0.00  0.00    +0.037 C 
ATOM     13  C   UNL     1      36.073 -22.579 -14.058  0.00  0.00    +0.019 C 
ATOM     14  C   UNL     1      35.554 -23.835 -13.815  0.00  0.00    +0.081 C 
ATOM     15  C   UNL     1      35.879 -24.543 -12.544  0.00  0.00    +0.054 C 
ENDBRANCH   2   6
ENDBRANCH   1   2
BRANCH   1  16
ATOM     16  C   UNL     1      34.740 -18.646 -22.611  0.00  0.00    +0.047 C 
BRANCH  16  17
ATOM     17  C   UNL     1      34.687 -17.197 -23.076  0.00  0.00    +0.205 C 
BRANCH  17  18
ATOM     18  O   UNL     1      34.853 -16.347 -21.949  0.00  0.00    -0.475 OA
BRANCH  18  19
ATOM     19  C   UNL     1      34.162 -15.163 -21.962  0.00  0.00    +0.139 C 
ATOM     20  C   UNL     1      33.823 -14.540 -20.761  0.00  0.00    +0.037 C 
ATOM     21  C   UNL     1      33.796 -14.583 -23.176  0.00  0.00    +0.037 C 
ATOM     22  C   UNL     1      33.117 -13.337 -20.774  0.00  0.00    +0.010 C 
ATOM     23  C   UNL     1      33.091 -13.380 -23.189  0.00  0.00    +0.010 C 
ATOM     24  C   UNL     1      32.751 -12.757 -21.989  0.00  0.00    +0.076 C 
BRANCH  24  26
ATOM     25  O   UNL     1      31.998 -10.711 -22.954  0.00  0.00    -0.245 OA
ATOM     26  C   UNL     1      32.016 -11.502 -22.002  0.00  0.00    +0.341 C 
BRANCH  26  27
ATOM     27  O   UNL     1      31.344 -11.300 -20.828  0.00  0.00    -0.445 OA
BRANCH  27  28
ATOM     28  C   UNL     1      31.055  -9.944 -20.472  0.00  0.00    +0.209 C 
ATOM     29  C   UNL     1      31.254  -9.772 -18.981  0.00  0.00    +0.051 C 
ENDBRANCH  27  28
ENDBRANCH  26  27
ENDBRANCH  24  26
ENDBRANCH  18  19
ENDBRANCH  17  18
ENDBRANCH  16  17
ENDBRANCH   1  16
TORSDOF 9
ENDMDL
MODEL 4
REMARK VINA RESULT:     -11.5      5.718     12.453
REMARK  Name = 449026
REMARK  9 active torsions:
REMARK  status: ('A' for Active; 'I' for Inactive)
REMARK    1  A    between atoms: C_1  and  C_2
REMARK    2  A    between atoms: C_1  and  C_16
REMARK    3  A    between atoms: C_2  and  C_6
REMARK    4  A    between atoms: C_16  and  C_17
REMARK    5  A    between atoms: C_17  and  O_18
REMARK    6  A    between atoms: O_18  and  C_19
REMARK    7  A    between atoms: C_24  and  C_26
REMARK    8  A    between atoms: C_26  and  O_27
REMARK    9  A    between atoms: O_27  and  C_28
REMARK                            x       y       z     vdW  Elec       q    Type
REMARK                         _______ _______ _______ _____ _____    ______ ____
ROOT
ATOM      1  C   UNL     1      33.161 -14.586 -24.249  0.00  0.00    +0.004 C 
ENDROOT
BRANCH   1   2
ATOM      2  C   UNL     1      33.175 -13.952 -22.860  0.00  0.00    +0.000 C 
BRANCH   2   6
ATOM      3  N   UNL     1      31.807  -9.960 -21.997  0.00  0.00    -0.292 N 
ATOM      4  N   UNL     1      31.041  -7.798 -22.604  0.00  0.00    -0.133 NA
ATOM      5  N   UNL     1      30.758  -6.511 -22.270  0.00  0.00    -0.151 NA
ATOM      6  C   UNL     1      32.320 -12.687 -22.820  0.00  0.00    +0.003 C 
ATOM      7  C   UNL     1      33.067 -11.504 -23.444  0.00  0.00    +0.022 C 
ATOM      8  C   UNL     1      31.927 -12.341 -21.381  0.00  0.00    +0.022 C 
ATOM      9  C   UNL     1      32.239 -10.222 -23.377  0.00  0.00    +0.092 C 
ATOM     10  C   UNL     1      31.106 -11.053 -21.316  0.00  0.00    +0.092 C 
ATOM     11  C   UNL     1      31.514  -8.634 -21.654  0.00  0.00    +0.153 C 
ATOM     12  C   UNL     1      31.728  -8.243 -20.348  0.00  0.00    +0.037 C 
ATOM     13  C   UNL     1      31.439  -6.933 -20.009  0.00  0.00    +0.019 C 
ATOM     14  C   UNL     1      30.956  -6.101 -20.999  0.00  0.00    +0.081 C 
ATOM     15  C   UNL     1      30.630  -4.680 -20.686  0.00  0.00    +0.054 C 
ENDBRANCH   2   6
ENDBRANCH   1   2
BRANCH   1  16
ATOM     16  C   UNL     1      34.215 -15.685 -24.363  0.00  0.00    +0.047 C 
BRANCH  16  17
ATOM     17  C   UNL     1      33.990 -16.787 -23.337  0.00  0.00    +0.205 C 
BRANCH  17  18
ATOM     18  O   UNL     1      35.251 -17.219 -22.844  0.00  0.00    -0.475 OA
BRANCH  18  19
ATOM     19  C   UNL     1      35.237 -18.212 -21.899  0.00  0.00    +0.139 C 
ATOM     20  C   UNL     1      34.100 -19.002 -21.734  0.00  0.00    +0.037 C 
ATOM     21  C   UNL     1      36.360 -18.430 -21.100  0.00  0.00    +0.037 C 
ATOM     22  C   UNL     1      34.085 -20.010 -20.770  0.00  0.00    +0.010 C 
ATOM     23  C   UNL     1      36.345 -19.438 -20.137  0.00  0.00    +0.010 C 
ATOM     24  C   UNL     1      35.208 -20.228 -19.971  0.00  0.00    +0.076 C 
BRANCH  24  26
ATOM     25  O   UNL     1      34.396 -22.229 -18.960  0.00  0.00    -0.245 OA
ATOM     26  C   UNL     1      35.192 -21.280 -18.967  0.00  0.00    +0.341 C 
BRANCH  26  27
ATOM     27  O   UNL     1      36.167 -21.092 -18.027  0.00  0.00    -0.445 OA
BRANCH  27  28
ATOM     28  C   UNL     1      35.931 -21.650 -16.730  0.00  0.00    +0.209 C 
ATOM     29  C   UNL     1      37.255 -22.058 -16.120  0.00  0.00    +0.051 C 
ENDBRANCH  27  28
ENDBRANCH  26  27
ENDBRANCH  24  26
ENDBRANCH  18  19
ENDBRANCH  17  18
ENDBRANCH  16  17
ENDBRANCH   1  16
TORSDOF 9
ENDMDL
MODEL 5
REMARK VINA RESULT:     -11.4      1.657      2.779
REMARK  Name = 449026
REMARK  9 active torsions:
REMARK  status: ('A' for Active; 'I' for Inactive)
REMARK    1  A    between atoms: C_1  and  C_2
REMARK    2  A    between atoms: C_1  and  C_16
REMARK    3  A    between atoms: C_2  and  C_6
REMARK    4  A    between atoms: C_16  and  C_17
REMARK    5  A    between atoms: C_17  and  O_18
REMARK    6  A    between atoms: O_18  and  C_19
REMARK    7  A    between atoms: C_24  and  C_26
REMARK    8  A    between atoms: C_26  and  O_27
REMARK    9  A    between atoms: O_27  and  C_28
REMARK                            x       y       z     vdW  Elec       q    Type
REMARK                         _______ _______ _______ _____ _____    ______ ____
ROOT
ATOM      1  C   UNL     1      34.667 -18.963 -22.614  0.00  0.00    +0.004 C 
ENDROOT
BRANCH   1   2
ATOM      2  C   UNL     1      33.691 -19.064 -21.444  0.00  0.00    +0.000 C 
BRANCH   2   6
ATOM      3  N   UNL     1      34.568 -21.571 -18.053  0.00  0.00    -0.292 N 
ATOM      4  N   UNL     1      34.142 -23.384 -16.584  0.00  0.00    -0.133 NA
ATOM      5  N   UNL     1      34.392 -24.044 -15.421  0.00  0.00    -0.151 NA
ATOM      6  C   UNL     1      33.983 -20.290 -20.582  0.00  0.00    +0.003 C 
ATOM      7  C   UNL     1      32.911 -20.466 -19.502  0.00  0.00    +0.022 C 
ATOM      8  C   UNL     1      35.360 -20.176 -19.920  0.00  0.00    +0.022 C 
ATOM      9  C   UNL     1      33.211 -21.668 -18.607  0.00  0.00    +0.092 C 
ATOM     10  C   UNL     1      35.653 -21.375 -19.020  0.00  0.00    +0.092 C 
ATOM     11  C   UNL     1      34.826 -22.252 -16.857  0.00  0.00    +0.153 C 
ATOM     12  C   UNL     1      35.776 -21.724 -16.006  0.00  0.00    +0.037 C 
ATOM     13  C   UNL     1      36.031 -22.397 -14.823  0.00  0.00    +0.019 C 
ATOM     14  C   UNL     1      35.317 -23.551 -14.570  0.00  0.00    +0.081 C 
ATOM     15  C   UNL     1      35.553 -24.312 -13.311  0.00  0.00    +0.054 C 
ENDBRANCH   2   6
ENDBRANCH   1   2
BRANCH   1  16
ATOM     16  C   UNL     1      34.643 -17.567 -23.231  0.00  0.00    +0.047 C 
BRANCH  16  17
ATOM     17  C   UNL     1      34.639 -16.481 -22.165  0.00  0.00    +0.205 C 
BRANCH  17  18
ATOM     18  O   UNL     1      34.793 -15.217 -22.796  0.00  0.00    -0.475 OA
BRANCH  18  19
ATOM     19  C   UNL     1      33.966 -14.210 -22.372  0.00  0.00    +0.139 C 
ATOM     20  C   UNL     1      33.536 -14.173 -21.046  0.00  0.00    +0.037 C 
ATOM     21  C   UNL     1      33.553 -13.224 -23.268  0.00  0.00    +0.037 C 
ATOM     22  C   UNL     1      32.691 -13.149 -20.616  0.00  0.00    +0.010 C 
ATOM     23  C   UNL     1      32.709 -12.201 -22.837  0.00  0.00    +0.010 C 
ATOM     24  C   UNL     1      32.277 -12.163 -21.512  0.00  0.00    +0.076 C 
BRANCH  24  26
ATOM     25  O   UNL     1      31.288 -10.728 -19.885  0.00  0.00    -0.245 OA
ATOM     26  C   UNL     1      31.397 -11.096 -21.062  0.00  0.00    +0.341 C 
BRANCH  26  27
ATOM     27  O   UNL     1      30.702 -10.545 -22.103  0.00  0.00    -0.445 OA
BRANCH  27  28
ATOM     28  C   UNL     1      30.681  -9.116 -22.184  0.00  0.00    +0.209 C 
ATOM     29  C   UNL     1      32.060  -8.623 -22.568  0.00  0.00    +0.051 C 
ENDBRANCH  27  28
ENDBRANCH  26  27
ENDBRANCH  24  26
ENDBRANCH  18  19
ENDBRANCH  17  18
ENDBRANCH  16  17
ENDBRANCH   1  16
TORSDOF 9
ENDMDL
MODEL 6
REMARK VINA RESULT:     -11.4      6.306     12.832
REMARK  Name = 449026
REMARK  9 active torsions:
REMARK  status: ('A' for Active; 'I' for Inactive)
REMARK    1  A    between atoms: C_1  and  C_2
REMARK    2  A    between atoms: C_1  and  C_16
REMARK    3  A    between atoms: C_2  and  C_6
REMARK    4  A    between atoms: C_16  and  C_17
REMARK    5  A    between atoms: C_17  and  O_18
REMARK    6  A    between atoms: O_18  and  C_19
REMARK    7  A    between atoms: C_24  and  C_26
REMARK    8  A    between atoms: C_26  and  O_27
REMARK    9  A    between atoms: O_27  and  C_28
REMARK                            x       y       z     vdW  Elec       q    Type
REMARK                         _______ _______ _______ _____ _____    ______ ____
ROOT
ATOM      1  C   UNL     1      33.615 -13.152 -22.633  0.00  0.00    +0.004 C 
ENDROOT
BRANCH   1   2
ATOM      2  C   UNL     1      32.564 -12.955 -21.543  0.00  0.00    +0.000 C 
BRANCH   2   6
ATOM      3  N   UNL     1      31.349  -8.827 -21.738  0.00  0.00    -0.292 N 
ATOM      4  N   UNL     1      30.565  -6.893 -22.867  0.00  0.00    -0.133 NA
ATOM      5  N   UNL     1      30.336  -5.553 -22.891  0.00  0.00    -0.151 NA
ATOM      6  C   UNL     1      31.738 -11.695 -21.792  0.00  0.00    +0.003 C 
ATOM      7  C   UNL     1      32.442 -10.769 -22.789  0.00  0.00    +0.022 C 
ATOM      8  C   UNL     1      31.487 -10.940 -20.483  0.00  0.00    +0.022 C 
ATOM      9  C   UNL     1      31.645  -9.485 -23.018  0.00  0.00    +0.092 C 
ATOM     10  C   UNL     1      30.697  -9.653 -20.718  0.00  0.00    +0.092 C 
ATOM     11  C   UNL     1      31.111  -7.447 -21.764  0.00  0.00    +0.153 C 
ATOM     12  C   UNL     1      31.453  -6.713 -20.645  0.00  0.00    +0.037 C 
ATOM     13  C   UNL     1      31.219  -5.349 -20.670  0.00  0.00    +0.019 C 
ATOM     14  C   UNL     1      30.659  -4.810 -21.811  0.00  0.00    +0.081 C 
ATOM     15  C   UNL     1      30.387  -3.347 -21.889  0.00  0.00    +0.054 C 
ENDBRANCH   2   6
ENDBRANCH   1   2
BRANCH   1  16
ATOM     16  C   UNL     1      33.129 -14.137 -23.694  0.00  0.00    +0.047 C 
BRANCH  16  17
ATOM     17  C   UNL     1      34.272 -14.979 -24.244  0.00  0.00    +0.205 C 
BRANCH  17  18
ATOM     18  O   UNL     1      33.838 -16.327 -24.355  0.00  0.00    -0.475 OA
BRANCH  18  19
ATOM     19  C   UNL     1      34.217 -17.183 -23.354  0.00  0.00    +0.139 C 
ATOM     20  C   UNL     1      33.927 -18.543 -23.452  0.00  0.00    +0.037 C 
ATOM     21  C   UNL     1      34.890 -16.692 -22.235  0.00  0.00    +0.037 C 
ATOM     22  C   UNL     1      34.310 -19.413 -22.430  0.00  0.00    +0.010 C 
ATOM     23  C   UNL     1      35.273 -17.562 -21.215  0.00  0.00    +0.010 C 
ATOM     24  C   UNL     1      34.983 -18.922 -21.312  0.00  0.00    +0.076 C 
BRANCH  24  26
ATOM     25  O   UNL     1      36.304 -19.610 -19.450  0.00  0.00    -0.245 OA
ATOM     26  C   UNL     1      35.383 -19.830 -20.248  0.00  0.00    +0.341 C 
BRANCH  26  27
ATOM     27  O   UNL     1      34.615 -20.962 -20.237  0.00  0.00    -0.445 OA
BRANCH  27  28
ATOM     28  C   UNL     1      33.719 -21.125 -19.133  0.00  0.00    +0.209 C 
ATOM     29  C   UNL     1      32.359 -20.583 -19.516  0.00  0.00    +0.051 C 
ENDBRANCH  27  28
ENDBRANCH  26  27
ENDBRANCH  24  26
ENDBRANCH  18  19
ENDBRANCH  17  18
ENDBRANCH  16  17
ENDBRANCH   1  16
TORSDOF 9
ENDMDL
MODEL 7
REMARK VINA RESULT:     -11.3      5.910     12.617
REMARK  Name = 449026
REMARK  9 active torsions:
REMARK  status: ('A' for Active; 'I' for Inactive)
REMARK    1  A    between atoms: C_1  and  C_2
REMARK    2  A    between atoms: C_1  and  C_16
REMARK    3  A    between atoms: C_2  and  C_6
REMARK    4  A    between atoms: C_16  and  C_17
REMARK    5  A    between atoms: C_17  and  O_18
REMARK    6  A    between atoms: O_18  and  C_19
REMARK    7  A    between atoms: C_24  and  C_26
REMARK    8  A    between atoms: C_26  and  O_27
REMARK    9  A    between atoms: O_27  and  C_28
REMARK                            x       y       z     vdW  Elec       q    Type
REMARK                         _______ _______ _______ _____ _____    ______ ____
ROOT
ATOM      1  C   UNL     1      34.197 -15.134 -21.886  0.00  0.00    +0.004 C 
ENDROOT
BRANCH   1   2
ATOM      2  C   UNL     1      33.294 -14.317 -22.808  0.00  0.00    +0.000 C 
BRANCH   2   6
ATOM      3  N   UNL     1      32.122 -10.190 -22.426  0.00  0.00    -0.292 N 
ATOM      4  N   UNL     1      31.533  -8.253 -21.188  0.00  0.00    -0.133 NA
ATOM      5  N   UNL     1      31.024  -6.993 -21.141  0.00  0.00    -0.151 NA
ATOM      6  C   UNL     1      33.274 -12.845 -22.401  0.00  0.00    +0.003 C 
ATOM      7  C   UNL     1      32.001 -12.513 -21.617  0.00  0.00    +0.022 C 
ATOM      8  C   UNL     1      33.367 -11.938 -23.632  0.00  0.00    +0.022 C 
ATOM      9  C   UNL     1      31.948 -11.034 -21.236  0.00  0.00    +0.092 C 
ATOM     10  C   UNL     1      33.305 -10.460 -23.248  0.00  0.00    +0.092 C 
ATOM     11  C   UNL     1      31.599  -8.891 -22.376  0.00  0.00    +0.153 C 
ATOM     12  C   UNL     1      31.171  -8.323 -23.559  0.00  0.00    +0.037 C 
ATOM     13  C   UNL     1      30.654  -7.040 -23.510  0.00  0.00    +0.019 C 
ATOM     14  C   UNL     1      30.598  -6.412 -22.282  0.00  0.00    +0.081 C 
ATOM     15  C   UNL     1      30.049  -5.030 -22.175  0.00  0.00    +0.054 C 
ENDBRANCH   2   6
ENDBRANCH   1   2
BRANCH   1  16
ATOM     16  C   UNL     1      34.818 -16.314 -22.629  0.00  0.00    +0.047 C 
BRANCH  16  17
ATOM     17  C   UNL     1      35.136 -17.467 -21.688  0.00  0.00    +0.205 C 
BRANCH  17  18
ATOM     18  O   UNL     1      34.316 -18.577 -22.028  0.00  0.00    -0.475 OA
BRANCH  18  19
ATOM     19  C   UNL     1      34.031 -19.466 -21.024  0.00  0.00    +0.139 C 
ATOM     20  C   UNL     1      35.068 -20.085 -20.327  0.00  0.00    +0.037 C 
ATOM     21  C   UNL     1      32.705 -19.753 -20.704  0.00  0.00    +0.037 C 
ATOM     22  C   UNL     1      34.777 -20.992 -19.307  0.00  0.00    +0.010 C 
ATOM     23  C   UNL     1      32.415 -20.659 -19.684  0.00  0.00    +0.010 C 
ATOM     24  C   UNL     1      33.451 -21.279 -18.986  0.00  0.00    +0.076 C 
BRANCH  24  26
ATOM     25  O   UNL     1      33.996 -22.902 -17.327  0.00  0.00    -0.245 OA
ATOM     26  C   UNL     1      33.148 -22.224 -17.923  0.00  0.00    +0.341 C 
BRANCH  26  27
ATOM     27  O   UNL     1      31.807 -22.274 -17.660  0.00  0.00    -0.445 OA
BRANCH  27  28
ATOM     28  C   UNL     1      31.422 -22.591 -16.318  0.00  0.00    +0.209 C 
ATOM     29  C   UNL     1      29.914 -22.520 -16.208  0.00  0.00    +0.051 C 
ENDBRANCH  27  28
ENDBRANCH  26  27
ENDBRANCH  24  26
ENDBRANCH  18  19
ENDBRANCH  17  18
ENDBRANCH  16  17
ENDBRANCH   1  16
TORSDOF 9
ENDMDL
MODEL 8
REMARK VINA RESULT:     -11.0      2.596      3.278
REMARK  Name = 449026
REMARK  9 active torsions:
REMARK  status: ('A' for Active; 'I' for Inactive)
REMARK    1  A    between atoms: C_1  and  C_2
REMARK    2  A    between atoms: C_1  and  C_16
REMARK    3  A    between atoms: C_2  and  C_6
REMARK    4  A    between atoms: C_16  and  C_17
REMARK    5  A    between atoms: C_17  and  O_18
REMARK    6  A    between atoms: O_18  and  C_19
REMARK    7  A    between atoms: C_24  and  C_26
REMARK    8  A    between atoms: C_26  and  O_27
REMARK    9  A    between atoms: O_27  and  C_28
REMARK                            x       y       z     vdW  Elec       q    Type
REMARK                         _______ _______ _______ _____ _____    ______ ____
ROOT
ATOM      1  C   UNL     1      34.674 -19.376 -21.644  0.00  0.00    +0.004 C 
ENDROOT
BRANCH   1   2
ATOM      2  C   UNL     1      35.390 -19.862 -20.386  0.00  0.00    +0.000 C 
BRANCH   2   6
ATOM      3  N   UNL     1      33.105 -22.045 -17.459  0.00  0.00    -0.292 N 
ATOM      4  N   UNL     1      31.214 -23.275 -16.724  0.00  0.00    -0.133 NA
ATOM      5  N   UNL     1      30.482 -23.824 -15.718  0.00  0.00    -0.151 NA
ATOM      6  C   UNL     1      34.600 -20.970 -19.692  0.00  0.00    +0.003 C 
ATOM      7  C   UNL     1      33.171 -20.510 -19.384  0.00  0.00    +0.022 C 
ATOM      8  C   UNL     1      35.289 -21.400 -18.393  0.00  0.00    +0.022 C 
ATOM      9  C   UNL     1      32.380 -21.595 -18.655  0.00  0.00    +0.092 C 
ATOM     10  C   UNL     1      34.491 -22.479 -17.663  0.00  0.00    +0.092 C 
ATOM     11  C   UNL     1      32.351 -22.612 -16.424  0.00  0.00    +0.153 C 
ATOM     12  C   UNL     1      32.814 -22.462 -15.132  0.00  0.00    +0.037 C 
ATOM     13  C   UNL     1      32.069 -23.022 -14.108  0.00  0.00    +0.019 C 
ATOM     14  C   UNL     1      30.911 -23.693 -14.445  0.00  0.00    +0.081 C 
ATOM     15  C   UNL     1      30.072 -24.313 -13.380  0.00  0.00    +0.054 C 
ENDBRANCH   2   6
ENDBRANCH   1   2
BRANCH   1  16
ATOM     16  C   UNL     1      35.508 -18.333 -22.384  0.00  0.00    +0.047 C 
BRANCH  16  17
ATOM     17  C   UNL     1      34.684 -17.104 -22.738  0.00  0.00    +0.205 C 
BRANCH  17  18
ATOM     18  O   UNL     1      34.760 -16.175 -21.666  0.00  0.00    -0.475 OA
BRANCH  18  19
ATOM     19  C   UNL     1      34.094 -14.988 -21.828  0.00  0.00    +0.139 C 
ATOM     20  C   UNL     1      33.928 -14.450 -23.104  0.00  0.00    +0.037 C 
ATOM     21  C   UNL     1      33.584 -14.317 -20.716  0.00  0.00    +0.037 C 
ATOM     22  C   UNL     1      33.253 -13.240 -23.268  0.00  0.00    +0.010 C 
ATOM     23  C   UNL     1      32.909 -13.108 -20.881  0.00  0.00    +0.010 C 
ATOM     24  C   UNL     1      32.744 -12.569 -22.157  0.00  0.00    +0.076 C 
BRANCH  24  26
ATOM     25  O   UNL     1      32.433 -10.378 -23.045  0.00  0.00    -0.245 OA
ATOM     26  C   UNL     1      32.039 -11.308 -22.329  0.00  0.00    +0.341 C 
BRANCH  26  27
ATOM     27  O   UNL     1      30.883 -11.274 -21.598  0.00  0.00    -0.445 OA
BRANCH  27  28
ATOM     28  C   UNL     1      30.512 -10.013 -21.032  0.00  0.00    +0.209 C 
ATOM     29  C   UNL     1      31.171  -9.867 -19.677  0.00  0.00    +0.051 C 
ENDBRANCH  27  28
ENDBRANCH  26  27
ENDBRANCH  24  26
ENDBRANCH  18  19
ENDBRANCH  17  18
ENDBRANCH  16  17
ENDBRANCH   1  16
TORSDOF 9
ENDMDL
MODEL 9
REMARK VINA RESULT:     -10.9      3.770      5.889
REMARK  Name = 449026
REMARK  9 active torsions:
REMARK  status: ('A' for Active; 'I' for Inactive)
REMARK    1  A    between atoms: C_1  and  C_2
REMARK    2  A    between atoms: C_1  and  C_16
REMARK    3  A    between atoms: C_2  and  C_6
REMARK    4  A    between atoms: C_16  and  C_17
REMARK    5  A    between atoms: C_17  and  O_18
REMARK    6  A    between atoms: O_18  and  C_19
REMARK    7  A    between atoms: C_24  and  C_26
REMARK    8  A    between atoms: C_26  and  O_27
REMARK    9  A    between atoms: O_27  and  C_28
REMARK                            x       y       z     vdW  Elec       q    Type
REMARK                         _______ _______ _______ _____ _____    ______ ____
ROOT
ATOM      1  C   UNL     1      30.473 -22.445 -15.017  0.00  0.00    +0.004 C 
ENDROOT
BRANCH   1   2
ATOM      2  C   UNL     1      31.703 -22.224 -14.138  0.00  0.00    +0.000 C 
BRANCH   2   6
ATOM      3  N   UNL     1      35.571 -24.107 -14.339  0.00  0.00    -0.292 N 
ATOM      4  N   UNL     1      37.018 -25.983 -14.463  0.00  0.00    -0.133 NA
ATOM      5  N   UNL     1      38.265 -26.519 -14.376  0.00  0.00    -0.151 NA
ATOM      6  C   UNL     1      32.878 -23.080 -14.604  0.00  0.00    +0.003 C 
ATOM      7  C   UNL     1      33.238 -24.132 -13.550  0.00  0.00    +0.022 C 
ATOM      8  C   UNL     1      34.104 -22.210 -14.898  0.00  0.00    +0.022 C 
ATOM      9  C   UNL     1      34.437 -24.972 -13.985  0.00  0.00    +0.092 C 
ATOM     10  C   UNL     1      35.304 -23.055 -15.324  0.00  0.00    +0.092 C 
ATOM     11  C   UNL     1      36.855 -24.659 -14.251  0.00  0.00    +0.153 C 
ATOM     12  C   UNL     1      37.903 -23.813 -13.948  0.00  0.00    +0.037 C 
ATOM     13  C   UNL     1      39.172 -24.358 -13.861  0.00  0.00    +0.019 C 
ATOM     14  C   UNL     1      39.308 -25.714 -14.082  0.00  0.00    +0.081 C 
ATOM     15  C   UNL     1      40.653 -26.351 -13.999  0.00  0.00    +0.054 C 
ENDBRANCH   2   6
ENDBRANCH   1   2
BRANCH   1  16
ATOM     16  C   UNL     1      30.861 -23.051 -16.363  0.00  0.00    +0.047 C 
BRANCH  16  17
ATOM     17  C   UNL     1      31.350 -21.989 -17.338  0.00  0.00    +0.205 C 
BRANCH  17  18
ATOM     18  O   UNL     1      32.458 -22.505 -18.063  0.00  0.00    -0.475 OA
BRANCH  18  19
ATOM     19  C   UNL     1      33.171 -21.613 -18.820  0.00  0.00    +0.139 C 
ATOM     20  C   UNL     1      32.502 -20.688 -19.622  0.00  0.00    +0.037 C 
ATOM     21  C   UNL     1      34.565 -21.632 -18.792  0.00  0.00    +0.037 C 
ATOM     22  C   UNL     1      33.228 -19.782 -20.396  0.00  0.00    +0.010 C 
ATOM     23  C   UNL     1      35.290 -20.726 -19.565  0.00  0.00    +0.010 C 
ATOM     24  C   UNL     1      34.622 -19.801 -20.367  0.00  0.00    +0.076 C 
BRANCH  24  26
ATOM     25  O   UNL     1      36.205 -18.053 -20.719  0.00  0.00    -0.245 OA
ATOM     26  C   UNL     1      35.378 -18.856 -21.173  0.00  0.00    +0.341 C 
BRANCH  26  27
ATOM     27  O   UNL     1      35.064 -18.961 -22.500  0.00  0.00    -0.445 OA
BRANCH  27  28
ATOM     28  C   UNL     1      34.537 -17.791 -23.135  0.00  0.00    +0.209 C 
ATOM     29  C   UNL     1      33.495 -18.208 -24.151  0.00  0.00    +0.051 C 
ENDBRANCH  27  28
ENDBRANCH  26  27
ENDBRANCH  24  26
ENDBRANCH  18  19
ENDBRANCH  17  18
ENDBRANCH  16  17
ENDBRANCH   1  16
TORSDOF 9
ENDMDL
