MODEL 1
REMARK VINA RESULT:     -12.2      0.000      0.000
REMARK  Name = 59215954
REMARK  3 active torsions:
REMARK  status: ('A' for Active; 'I' for Inactive)
REMARK    1  A    between atoms: C_2  and  C_24
REMARK    2  A    between atoms: C_5  and  C_12
REMARK    3  A    between atoms: N_23  and  C_29
REMARK                            x       y       z     vdW  Elec       q    Type
REMARK                         _______ _______ _______ _____ _____    ______ ____
ROOT
ATOM      1  N   UNL     1      33.928 -12.274 -22.998  0.00  0.00    -0.357 N 
ATOM      2  C   UNL     1      32.302 -11.037 -22.127  0.00  0.00    +0.062 A 
ATOM      3  C   UNL     1      32.377 -12.256 -21.408  0.00  0.00    -0.001 A 
ATOM      4  C   UNL     1      33.271 -11.075 -23.103  0.00  0.00    +0.038 A 
ATOM      5  C   UNL     1      33.391 -13.001 -21.967  0.00  0.00    +0.053 A 
ATOM      6  C   UNL     1      31.525 -12.654 -20.267  0.00  0.00    +0.033 C 
ATOM      7  C   UNL     1      33.650 -10.091 -24.137  0.00  0.00    +0.050 C 
ATOM      8  H   UNL     1      34.670 -12.567 -23.574  0.00  0.00    +0.166 HD
ENDROOT
BRANCH   5  12
ATOM      9  F   UNL     1      36.224 -19.157 -20.250  0.00  0.00    -0.204 F 
ATOM     10  O   UNL     1      32.873 -14.437 -24.494  0.00  0.00    -0.270 OA
ATOM     11  N   UNL     1      33.681 -16.654 -24.404  0.00  0.00    -0.280 N 
ATOM     12  C   UNL     1      33.938 -14.268 -21.703  0.00  0.00    +0.021 C 
ATOM     13  C   UNL     1      33.984 -15.365 -22.537  0.00  0.00    +0.056 C 
ATOM     14  C   UNL     1      34.549 -16.684 -22.274  0.00  0.00    +0.020 C 
ATOM     15  C   UNL     1      34.338 -17.426 -23.439  0.00  0.00    +0.051 C 
ATOM     16  C   UNL     1      33.423 -15.365 -23.929  0.00  0.00    +0.250 C 
ATOM     17  C   UNL     1      35.183 -17.247 -21.183  0.00  0.00    +0.031 C 
ATOM     18  C   UNL     1      34.746 -18.740 -23.562  0.00  0.00    +0.017 C 
ATOM     19  C   UNL     1      35.605 -18.577 -21.287  0.00  0.00    +0.140 C 
ATOM     20  C   UNL     1      35.388 -19.317 -22.465  0.00  0.00    +0.031 C 
ATOM     21  H   UNL     1      33.433 -16.977 -25.300  0.00  0.00    +0.155 HD
ENDBRANCH   5  12
BRANCH   2  24
ATOM     22  O   UNL     1      30.165 -10.072 -22.078  0.00  0.00    -0.270 OA
ATOM     23  N   UNL     1      31.949  -8.714 -21.486  0.00  0.00    -0.301 N 
ATOM     24  C   UNL     1      31.369  -9.902 -21.906  0.00  0.00    +0.247 C 
ATOM     25  H   UNL     1      32.926  -8.677 -21.376  0.00  0.00    +0.150 HD
BRANCH  23  29
ATOM     26  O   UNL     1      30.597  -4.930 -24.512  0.00  0.00    -0.252 OA
ATOM     27  N   UNL     1      31.795  -5.908 -22.827  0.00  0.00    -0.262 N 
ATOM     28  N   UNL     1      32.844  -4.449 -24.414  0.00  0.00    -0.261 N 
ATOM     29  C   UNL     1      31.173  -7.530 -21.205  0.00  0.00    +0.093 C 
ATOM     30  C   UNL     1      32.019  -6.450 -20.535  0.00  0.00    +0.043 C 
ATOM     31  C   UNL     1      30.719  -6.839 -22.487  0.00  0.00    +0.114 C 
ATOM     32  C   UNL     1      32.735  -5.793 -21.711  0.00  0.00    +0.097 C 
ATOM     33  C   UNL     1      31.690  -5.095 -23.953  0.00  0.00    +0.307 C 
ATOM     34  C   UNL     1      34.201  -4.973 -24.298  0.00  0.00    +0.117 C 
ATOM     35  C   UNL     1      32.704  -3.257 -25.242  0.00  0.00    +0.117 C 
ENDBRANCH  23  29
ENDBRANCH   2  24
TORSDOF 3
ENDMDL
MODEL 2
REMARK VINA RESULT:     -10.9      1.874      2.268
REMARK  Name = 59215954
REMARK  3 active torsions:
REMARK  status: ('A' for Active; 'I' for Inactive)
REMARK    1  A    between atoms: C_2  and  C_24
REMARK    2  A    between atoms: C_5  and  C_12
REMARK    3  A    between atoms: N_23  and  C_29
REMARK                            x       y       z     vdW  Elec       q    Type
REMARK                         _______ _______ _______ _____ _____    ______ ____
ROOT
ATOM      1  N   UNL     1      33.779 -10.986 -23.646  0.00  0.00    -0.357 N 
ATOM      2  C   UNL     1      32.353  -9.854 -22.374  0.00  0.00    +0.062 A 
ATOM      3  C   UNL     1      32.021 -11.231 -22.308  0.00  0.00    -0.001 A 
ATOM      4  C   UNL     1      33.442  -9.732 -23.207  0.00  0.00    +0.038 A 
ATOM      5  C   UNL     1      32.920 -11.908 -23.103  0.00  0.00    +0.053 A 
ATOM      6  C   UNL     1      30.917 -11.830 -21.529  0.00  0.00    +0.033 C 
ATOM      7  C   UNL     1      34.208  -8.546 -23.639  0.00  0.00    +0.050 C 
ATOM      8  H   UNL     1      34.522 -11.194 -24.256  0.00  0.00    +0.166 HD
ENDROOT
BRANCH   5  12
ATOM      9  F   UNL     1      33.708 -18.537 -25.177  0.00  0.00    -0.204 F 
ATOM     10  O   UNL     1      33.962 -13.030 -20.579  0.00  0.00    -0.270 OA
ATOM     11  N   UNL     1      34.401 -15.342 -20.784  0.00  0.00    -0.280 N 
ATOM     12  C   UNL     1      33.108 -13.258 -23.438  0.00  0.00    +0.021 C 
ATOM     13  C   UNL     1      33.583 -14.275 -22.637  0.00  0.00    +0.056 C 
ATOM     14  C   UNL     1      33.782 -15.680 -22.973  0.00  0.00    +0.020 C 
ATOM     15  C   UNL     1      34.280 -16.282 -21.814  0.00  0.00    +0.051 C 
ATOM     16  C   UNL     1      33.992 -14.073 -21.206  0.00  0.00    +0.250 C 
ATOM     17  C   UNL     1      33.581 -16.422 -24.122  0.00  0.00    +0.031 C 
ATOM     18  C   UNL     1      34.592 -17.626 -21.753  0.00  0.00    +0.017 C 
ATOM     19  C   UNL     1      33.890 -17.786 -24.083  0.00  0.00    +0.140 C 
ATOM     20  C   UNL     1      34.391 -18.382 -22.909  0.00  0.00    +0.031 C 
ATOM     21  H   UNL     1      34.730 -15.547 -19.880  0.00  0.00    +0.155 HD
ENDBRANCH   5  12
BRANCH   2  24
ATOM     22  O   UNL     1      31.396  -8.820 -20.500  0.00  0.00    -0.270 OA
ATOM     23  N   UNL     1      31.444  -7.596 -22.469  0.00  0.00    -0.301 N 
ATOM     24  C   UNL     1      31.680  -8.719 -21.690  0.00  0.00    +0.247 C 
ATOM     25  H   UNL     1      31.709  -7.612 -23.417  0.00  0.00    +0.150 HD
BRANCH  23  29
ATOM     26  O   UNL     1      29.997  -3.387 -24.812  0.00  0.00    -0.252 OA
ATOM     27  N   UNL     1      31.339  -4.643 -23.452  0.00  0.00    -0.262 N 
ATOM     28  N   UNL     1      32.267  -3.076 -25.011  0.00  0.00    -0.261 N 
ATOM     29  C   UNL     1      30.823  -6.404 -21.942  0.00  0.00    +0.093 C 
ATOM     30  C   UNL     1      31.847  -5.475 -21.297  0.00  0.00    +0.043 C 
ATOM     31  C   UNL     1      30.248  -5.533 -23.054  0.00  0.00    +0.114 C 
ATOM     32  C   UNL     1      32.439  -4.730 -22.489  0.00  0.00    +0.097 C 
ATOM     33  C   UNL     1      31.142  -3.693 -24.451  0.00  0.00    +0.307 C 
ATOM     34  C   UNL     1      33.576  -3.702 -25.165  0.00  0.00    +0.117 C 
ATOM     35  C   UNL     1      32.111  -1.786 -25.670  0.00  0.00    +0.117 C 
ENDBRANCH  23  29
ENDBRANCH   2  24
TORSDOF 3
ENDMDL
MODEL 3
REMARK VINA RESULT:     -10.6      3.568     10.753
REMARK  Name = 59215954
REMARK  3 active torsions:
REMARK  status: ('A' for Active; 'I' for Inactive)
REMARK    1  A    between atoms: C_2  and  C_24
REMARK    2  A    between atoms: C_5  and  C_12
REMARK    3  A    between atoms: N_23  and  C_29
REMARK                            x       y       z     vdW  Elec       q    Type
REMARK                         _______ _______ _______ _____ _____    ______ ____
ROOT
ATOM      1  N   UNL     1      33.777 -12.679 -22.164  0.00  0.00    -0.357 N 
ATOM      2  C   UNL     1      33.416 -14.391 -23.531  0.00  0.00    +0.062 A 
ATOM      3  C   UNL     1      33.187 -13.188 -24.245  0.00  0.00    -0.001 A 
ATOM      4  C   UNL     1      33.779 -14.047 -22.249  0.00  0.00    +0.038 A 
ATOM      5  C   UNL     1      33.418 -12.145 -23.375  0.00  0.00    +0.053 A 
ATOM      6  C   UNL     1      32.777 -13.073 -25.660  0.00  0.00    +0.033 C 
ATOM      7  C   UNL     1      34.132 -14.879 -21.081  0.00  0.00    +0.050 C 
ATOM      8  H   UNL     1      33.999 -12.160 -21.358  0.00  0.00    +0.166 HD
ENDROOT
BRANCH   5  12
ATOM      9  F   UNL     1      33.496  -5.200 -24.172  0.00  0.00    -0.204 F 
ATOM     10  O   UNL     1      31.021 -11.499 -21.778  0.00  0.00    -0.270 OA
ATOM     11  N   UNL     1      30.614  -9.173 -21.743  0.00  0.00    -0.280 N 
ATOM     12  C   UNL     1      33.361 -10.746 -23.485  0.00  0.00    +0.021 C 
ATOM     13  C   UNL     1      32.434  -9.887 -22.933  0.00  0.00    +0.056 C 
ATOM     14  C   UNL     1      32.364  -8.434 -23.039  0.00  0.00    +0.020 C 
ATOM     15  C   UNL     1      31.241  -8.053 -22.299  0.00  0.00    +0.051 C 
ATOM     16  C   UNL     1      31.285 -10.351 -22.085  0.00  0.00    +0.250 C 
ATOM     17  C   UNL     1      33.141  -7.489 -23.681  0.00  0.00    +0.031 C 
ATOM     18  C   UNL     1      30.854  -6.733 -22.171  0.00  0.00    +0.017 C 
ATOM     19  C   UNL     1      32.767  -6.146 -23.564  0.00  0.00    +0.140 C 
ATOM     20  C   UNL     1      31.634  -5.772 -22.816  0.00  0.00    +0.031 C 
ATOM     21  H   UNL     1      29.805  -9.136 -21.183  0.00  0.00    +0.155 HD
ENDBRANCH   5  12
BRANCH   2  24
ATOM     22  O   UNL     1      32.854 -15.984 -25.158  0.00  0.00    -0.270 OA
ATOM     23  N   UNL     1      33.737 -16.779 -23.167  0.00  0.00    -0.301 N 
ATOM     24  C   UNL     1      33.298 -15.786 -24.031  0.00  0.00    +0.247 C 
ATOM     25  H   UNL     1      34.078 -16.518 -22.281  0.00  0.00    +0.150 HD
BRANCH  23  29
ATOM     26  O   UNL     1      33.416 -20.851 -20.232  0.00  0.00    -0.252 OA
ATOM     27  N   UNL     1      34.482 -19.371 -21.612  0.00  0.00    -0.262 N 
ATOM     28  N   UNL     1      35.546 -20.221 -19.639  0.00  0.00    -0.261 N 
ATOM     29  C   UNL     1      33.711 -18.178 -23.517  0.00  0.00    +0.093 C 
ATOM     30  C   UNL     1      35.114 -18.714 -23.795  0.00  0.00    +0.043 C 
ATOM     31  C   UNL     1      33.259 -19.042 -22.345  0.00  0.00    +0.114 C 
ATOM     32  C   UNL     1      35.659 -18.997 -22.399  0.00  0.00    +0.097 C 
ATOM     33  C   UNL     1      34.425 -20.175 -20.476  0.00  0.00    +0.307 C 
ATOM     34  C   UNL     1      36.479 -19.119 -19.428  0.00  0.00    +0.117 C 
ATOM     35  C   UNL     1      35.722 -21.365 -18.754  0.00  0.00    +0.117 C 
ENDBRANCH  23  29
ENDBRANCH   2  24
TORSDOF 3
ENDMDL
MODEL 4
REMARK VINA RESULT:      -9.8      6.013     12.654
REMARK  Name = 59215954
REMARK  3 active torsions:
REMARK  status: ('A' for Active; 'I' for Inactive)
REMARK    1  A    between atoms: C_2  and  C_24
REMARK    2  A    between atoms: C_5  and  C_12
REMARK    3  A    between atoms: N_23  and  C_29
REMARK                            x       y       z     vdW  Elec       q    Type
REMARK                         _______ _______ _______ _____ _____    ______ ____
ROOT
ATOM      1  N   UNL     1      33.204 -19.018 -21.185  0.00  0.00    -0.357 N 
ATOM      2  C   UNL     1      35.010 -19.948 -20.287  0.00  0.00    +0.062 A 
ATOM      3  C   UNL     1      35.423 -18.910 -21.158  0.00  0.00    -0.001 A 
ATOM      4  C   UNL     1      33.635 -19.993 -20.322  0.00  0.00    +0.038 A 
ATOM      5  C   UNL     1      34.287 -18.352 -21.700  0.00  0.00    +0.053 A 
ATOM      6  C   UNL     1      36.816 -18.501 -21.435  0.00  0.00    +0.033 C 
ATOM      7  C   UNL     1      32.671 -20.866 -19.623  0.00  0.00    +0.050 C 
ATOM      8  H   UNL     1      32.263 -18.827 -21.401  0.00  0.00    +0.166 HD
ENDROOT
BRANCH   5  12
ATOM      9  F   UNL     1      33.063 -13.467 -26.548  0.00  0.00    -0.204 F 
ATOM     10  O   UNL     1      34.300 -15.981 -19.939  0.00  0.00    -0.270 OA
ATOM     11  N   UNL     1      33.913 -13.999 -21.165  0.00  0.00    -0.280 N 
ATOM     12  C   UNL     1      34.044 -17.309 -22.609  0.00  0.00    +0.021 C 
ATOM     13  C   UNL     1      33.942 -15.959 -22.348  0.00  0.00    +0.056 C 
ATOM     14  C   UNL     1      33.691 -14.868 -23.283  0.00  0.00    +0.020 C 
ATOM     15  C   UNL     1      33.683 -13.702 -22.513  0.00  0.00    +0.051 C 
ATOM     16  C   UNL     1      34.084 -15.374 -20.972  0.00  0.00    +0.250 C 
ATOM     17  C   UNL     1      33.483 -14.814 -24.648  0.00  0.00    +0.031 C 
ATOM     18  C   UNL     1      33.472 -12.453 -23.064  0.00  0.00    +0.017 C 
ATOM     19  C   UNL     1      33.268 -13.559 -25.228  0.00  0.00    +0.140 C 
ATOM     20  C   UNL     1      33.263 -12.390 -24.443  0.00  0.00    +0.031 C 
ATOM     21  H   UNL     1      33.950 -13.329 -20.446  0.00  0.00    +0.155 HD
ENDBRANCH   5  12
BRANCH   2  24
ATOM     22  O   UNL     1      36.554 -21.695 -20.027  0.00  0.00    -0.270 OA
ATOM     23  N   UNL     1      35.830 -20.632 -18.097  0.00  0.00    -0.301 N 
ATOM     24  C   UNL     1      35.864 -20.847 -19.467  0.00  0.00    +0.247 C 
ATOM     25  H   UNL     1      35.244 -19.925 -17.743  0.00  0.00    +0.150 HD
BRANCH  23  29
ATOM     26  O   UNL     1      34.683 -24.821 -15.561  0.00  0.00    -0.252 OA
ATOM     27  N   UNL     1      35.093 -22.582 -15.785  0.00  0.00    -0.262 N 
ATOM     28  N   UNL     1      33.298 -23.387 -14.415  0.00  0.00    -0.261 N 
ATOM     29  C   UNL     1      36.623 -21.405 -17.171  0.00  0.00    +0.093 C 
ATOM     30  C   UNL     1      36.627 -20.782 -15.778  0.00  0.00    +0.043 C 
ATOM     31  C   UNL     1      36.005 -22.775 -16.913  0.00  0.00    +0.114 C 
ATOM     32  C   UNL     1      35.313 -21.269 -15.177  0.00  0.00    +0.097 C 
ATOM     33  C   UNL     1      34.368 -23.657 -15.276  0.00  0.00    +0.307 C 
ATOM     34  C   UNL     1      32.457 -22.196 -14.472  0.00  0.00    +0.117 C 
ATOM     35  C   UNL     1      32.841 -24.431 -13.506  0.00  0.00    +0.117 C 
ENDBRANCH  23  29
ENDBRANCH   2  24
TORSDOF 3
ENDMDL
MODEL 5
REMARK VINA RESULT:      -9.5      2.201      3.249
REMARK  Name = 59215954
REMARK  3 active torsions:
REMARK  status: ('A' for Active; 'I' for Inactive)
REMARK    1  A    between atoms: C_2  and  C_24
REMARK    2  A    between atoms: C_5  and  C_12
REMARK    3  A    between atoms: N_23  and  C_29
REMARK                            x       y       z     vdW  Elec       q    Type
REMARK                         _______ _______ _______ _____ _____    ______ ____
ROOT
ATOM      1  N   UNL     1      31.275 -11.219 -21.352  0.00  0.00    -0.357 N 
ATOM      2  C   UNL     1      31.745  -9.092 -21.780  0.00  0.00    +0.062 A 
ATOM      3  C   UNL     1      32.475  -9.905 -22.682  0.00  0.00    -0.001 A 
ATOM      4  C   UNL     1      31.013  -9.930 -20.969  0.00  0.00    +0.038 A 
ATOM      5  C   UNL     1      32.165 -11.216 -22.396  0.00  0.00    +0.053 A 
ATOM      6  C   UNL     1      33.397  -9.435 -23.737  0.00  0.00    +0.033 C 
ATOM      7  C   UNL     1      30.082  -9.642 -19.860  0.00  0.00    +0.050 C 
ATOM      8  H   UNL     1      30.886 -12.024 -20.940  0.00  0.00    +0.166 HD
ENDROOT
BRANCH   5  12
ATOM      9  F   UNL     1      33.951 -17.253 -25.434  0.00  0.00    -0.204 F 
ATOM     10  O   UNL     1      33.387 -12.535 -20.054  0.00  0.00    -0.270 OA
ATOM     11  N   UNL     1      34.175 -14.694 -20.598  0.00  0.00    -0.280 N 
ATOM     12  C   UNL     1      32.557 -12.455 -22.928  0.00  0.00    +0.021 C 
ATOM     13  C   UNL     1      33.189 -13.497 -22.282  0.00  0.00    +0.056 C 
ATOM     14  C   UNL     1      33.600 -14.787 -22.823  0.00  0.00    +0.020 C 
ATOM     15  C   UNL     1      34.193 -15.474 -21.760  0.00  0.00    +0.051 C 
ATOM     16  C   UNL     1      33.572 -13.454 -20.831  0.00  0.00    +0.250 C 
ATOM     17  C   UNL     1      33.507 -15.368 -24.074  0.00  0.00    +0.031 C 
ATOM     18  C   UNL     1      34.709 -16.747 -21.898  0.00  0.00    +0.017 C 
ATOM     19  C   UNL     1      34.023 -16.658 -24.236  0.00  0.00    +0.140 C 
ATOM     20  C   UNL     1      34.618 -17.342 -23.158  0.00  0.00    +0.031 C 
ATOM     21  H   UNL     1      34.540 -14.981 -19.730  0.00  0.00    +0.155 HD
ENDBRANCH   5  12
BRANCH   2  24
ATOM     22  O   UNL     1      32.227  -7.067 -20.699  0.00  0.00    -0.270 OA
ATOM     23  N   UNL     1      31.189  -6.936 -22.769  0.00  0.00    -0.301 N 
ATOM     24  C   UNL     1      31.739  -7.609 -21.687  0.00  0.00    +0.247 C 
ATOM     25  H   UNL     1      30.823  -7.461 -23.516  0.00  0.00    +0.150 HD
BRANCH  23  29
ATOM     26  O   UNL     1      31.722  -3.857 -26.711  0.00  0.00    -0.252 OA
ATOM     27  N   UNL     1      32.376  -4.858 -24.761  0.00  0.00    -0.262 N 
ATOM     28  N   UNL     1      33.907  -4.561 -26.581  0.00  0.00    -0.261 N 
ATOM     29  C   UNL     1      31.133  -5.495 -22.838  0.00  0.00    +0.093 C 
ATOM     30  C   UNL     1      32.449  -4.860 -22.397  0.00  0.00    +0.043 C 
ATOM     31  C   UNL     1      31.003  -5.008 -24.278  0.00  0.00    +0.114 C 
ATOM     32  C   UNL     1      33.319  -4.962 -23.646  0.00  0.00    +0.097 C 
ATOM     33  C   UNL     1      32.619  -4.406 -26.056  0.00  0.00    +0.307 C 
ATOM     34  C   UNL     1      34.822  -5.649 -26.250  0.00  0.00    +0.117 C 
ATOM     35  C   UNL     1      34.330  -3.705 -27.683  0.00  0.00    +0.117 C 
ENDBRANCH  23  29
ENDBRANCH   2  24
TORSDOF 3
ENDMDL
