MODEL 1
REMARK VINA RESULT:     -11.7      0.000      0.000
REMARK  Name = 10452732
REMARK  9 active torsions:
REMARK  status: ('A' for Active; 'I' for Inactive)
REMARK    1  A    between atoms: C_1  and  C_21
REMARK    2  A    between atoms: C_4  and  O_7
REMARK    3  A    between atoms: C_6  and  O_9
REMARK    4  A    between atoms: O_9  and  C_12
REMARK    5  A    between atoms: C_15  and  C_18
REMARK    6  A    between atoms: C_21  and  N_22
REMARK    7  A    between atoms: N_22  and  C_25
REMARK    8  A    between atoms: C_25  and  C_26
REMARK    9  A    between atoms: C_26  and  C_28
REMARK                            x       y       z     vdW  Elec       q    Type
REMARK                         _______ _______ _______ _____ _____    ______ ____
ROOT
ATOM      1  C   UNL     1      33.850 -21.256 -18.882  0.00  0.00    -0.041 C 
ATOM      2  C   UNL     1      32.777 -21.895 -18.261  0.00  0.00    +0.034 C 
ATOM      3  C   UNL     1      35.122 -21.315 -18.312  0.00  0.00    -0.003 C 
ATOM      4  C   UNL     1      32.976 -22.593 -17.069  0.00  0.00    +0.173 C 
ATOM      5  C   UNL     1      35.321 -22.012 -17.121  0.00  0.00    +0.040 C 
ATOM      6  C   UNL     1      34.248 -22.652 -16.499  0.00  0.00    +0.181 C 
ENDROOT
BRANCH   4   7
ATOM      7  O   UNL     1      31.921 -23.214 -16.473  0.00  0.00    -0.468 OA
ATOM      8  C   UNL     1      30.701 -22.479 -16.387  0.00  0.00    +0.253 C 
ENDBRANCH   4   7
BRANCH   6   9
ATOM      9  O   UNL     1      34.455 -23.331 -15.337  0.00  0.00    -0.435 OA
BRANCH   9  12
ATOM     10  N   UNL     1      36.025 -25.044 -15.075  0.00  0.00    -0.233 NA
ATOM     11  N   UNL     1      37.979 -23.132 -14.449  0.00  0.00    -0.258 NA
ATOM     12  C   UNL     1      35.749 -23.725 -15.046  0.00  0.00    +0.227 C 
ATOM     13  C   UNL     1      36.709 -22.786 -14.738  0.00  0.00    +0.210 C 
ATOM     14  C   UNL     1      37.295 -25.391 -14.785  0.00  0.00    +0.178 C 
ATOM     15  C   UNL     1      38.255 -24.452 -14.478  0.00  0.00    +0.132 C 
BRANCH  15  18
ATOM     16  O   UNL     1      40.528 -23.992 -14.071  0.00  0.00    -0.269 OA
ATOM     17  N   UNL     1      39.882 -26.190 -13.960  0.00  0.00    -0.324 N 
ATOM     18  C   UNL     1      39.618 -24.837 -14.168  0.00  0.00    +0.258 C 
ATOM     19  H   UNL     1      40.797 -26.485 -13.749  0.00  0.00    +0.145 HD
ATOM     20  H   UNL     1      39.154 -26.849 -14.027  0.00  0.00    +0.145 HD
ENDBRANCH  15  18
ENDBRANCH   9  12
ENDBRANCH   6   9
BRANCH   1  21
ATOM     21  C   UNL     1      33.636 -20.503 -20.168  0.00  0.00    -0.054 C 
BRANCH  21  22
ATOM     22  N   UNL     1      34.849 -19.830 -20.611  0.00  0.00    +0.386 N 
ATOM     23  H   UNL     1      35.295 -19.383 -19.808  0.00  0.00    -0.084 HD
ATOM     24  H   UNL     1      35.473 -20.521 -21.026  0.00  0.00    -0.084 HD
BRANCH  22  25
ATOM     25  C   UNL     1      34.545 -18.815 -21.612  0.00  0.00    -0.081 C 
BRANCH  25  26
ATOM     26  C   UNL     1      35.133 -17.471 -21.194  0.00  0.00    -0.023 C 
BRANCH  26  28
ATOM     27  O   UNL     1      33.188 -14.875 -23.966  0.00  0.00    -0.354 OA
ATOM     28  C   UNL     1      34.951 -16.425 -22.290  0.00  0.00    +0.003 C 
ATOM     29  C   UNL     1      34.234 -17.019 -23.508  0.00  0.00    +0.032 C 
ATOM     30  C   UNL     1      34.175 -15.209 -21.771  0.00  0.00    +0.032 C 
ATOM     31  C   UNL     1      33.944 -15.939 -24.542  0.00  0.00    +0.142 C 
ATOM     32  C   UNL     1      33.890 -14.230 -22.904  0.00  0.00    +0.142 C 
ENDBRANCH  26  28
ENDBRANCH  25  26
ENDBRANCH  22  25
ENDBRANCH  21  22
ENDBRANCH   1  21
TORSDOF 9
ENDMDL
MODEL 2
REMARK VINA RESULT:     -11.6      1.510      1.685
REMARK  Name = 10452732
REMARK  9 active torsions:
REMARK  status: ('A' for Active; 'I' for Inactive)
REMARK    1  A    between atoms: C_1  and  C_21
REMARK    2  A    between atoms: C_4  and  O_7
REMARK    3  A    between atoms: C_6  and  O_9
REMARK    4  A    between atoms: O_9  and  C_12
REMARK    5  A    between atoms: C_15  and  C_18
REMARK    6  A    between atoms: C_21  and  N_22
REMARK    7  A    between atoms: N_22  and  C_25
REMARK    8  A    between atoms: C_25  and  C_26
REMARK    9  A    between atoms: C_26  and  C_28
REMARK                            x       y       z     vdW  Elec       q    Type
REMARK                         _______ _______ _______ _____ _____    ______ ____
ROOT
ATOM      1  C   UNL     1      35.181 -21.029 -19.069  0.00  0.00    -0.041 C 
ATOM      2  C   UNL     1      33.916 -21.612 -18.995  0.00  0.00    +0.034 C 
ATOM      3  C   UNL     1      36.052 -21.114 -17.983  0.00  0.00    -0.003 C 
ATOM      4  C   UNL     1      33.522 -22.280 -17.835  0.00  0.00    +0.173 C 
ATOM      5  C   UNL     1      35.659 -21.782 -16.824  0.00  0.00    +0.040 C 
ATOM      6  C   UNL     1      34.394 -22.365 -16.749  0.00  0.00    +0.181 C 
ENDROOT
BRANCH   4   7
ATOM      7  O   UNL     1      32.285 -22.846 -17.775  0.00  0.00    -0.468 OA
ATOM      8  C   UNL     1      31.286 -22.143 -17.039  0.00  0.00    +0.253 C 
ENDBRANCH   4   7
BRANCH   6   9
ATOM      9  O   UNL     1      34.022 -23.015 -15.612  0.00  0.00    -0.435 OA
BRANCH   9  12
ATOM     10  N   UNL     1      35.368 -24.902 -15.304  0.00  0.00    -0.233 NA
ATOM     11  N   UNL     1      36.552 -23.673 -13.079  0.00  0.00    -0.258 NA
ATOM     12  C   UNL     1      35.008 -23.670 -14.895  0.00  0.00    +0.227 C 
ATOM     13  C   UNL     1      35.590 -23.065 -13.802  0.00  0.00    +0.210 C 
ATOM     14  C   UNL     1      36.330 -25.510 -14.581  0.00  0.00    +0.178 C 
ATOM     15  C   UNL     1      36.912 -24.906 -13.488  0.00  0.00    +0.132 C 
BRANCH  15  18
ATOM     16  O   UNL     1      37.736 -25.981 -11.562  0.00  0.00    -0.269 OA
ATOM     17  N   UNL     1      39.189 -25.754 -13.321  0.00  0.00    -0.324 N 
ATOM     18  C   UNL     1      37.946 -25.569 -12.719  0.00  0.00    +0.258 C 
ATOM     19  H   UNL     1      39.914 -26.200 -12.826  0.00  0.00    +0.145 HD
ATOM     20  H   UNL     1      39.343 -25.437 -14.240  0.00  0.00    +0.145 HD
ENDBRANCH  15  18
ENDBRANCH   9  12
ENDBRANCH   6   9
BRANCH   1  21
ATOM     21  C   UNL     1      35.606 -20.309 -20.320  0.00  0.00    -0.054 C 
BRANCH  21  22
ATOM     22  N   UNL     1      36.378 -19.111 -20.021  0.00  0.00    +0.386 N 
ATOM     23  H   UNL     1      35.902 -18.581 -19.290  0.00  0.00    -0.084 HD
ATOM     24  H   UNL     1      37.307 -19.391 -19.710  0.00  0.00    -0.084 HD
BRANCH  22  25
ATOM     25  C   UNL     1      36.516 -18.271 -21.205  0.00  0.00    -0.081 C 
BRANCH  25  26
ATOM     26  C   UNL     1      35.268 -17.413 -21.389  0.00  0.00    -0.023 C 
BRANCH  26  28
ATOM     27  O   UNL     1      32.817 -16.906 -24.844  0.00  0.00    -0.354 OA
ATOM     28  C   UNL     1      34.864 -17.336 -22.858  0.00  0.00    +0.003 C 
ATOM     29  C   UNL     1      33.807 -18.393 -23.197  0.00  0.00    +0.032 C 
ATOM     30  C   UNL     1      34.338 -15.940 -23.214  0.00  0.00    +0.032 C 
ATOM     31  C   UNL     1      33.318 -18.225 -24.630  0.00  0.00    +0.142 C 
ATOM     32  C   UNL     1      33.820 -15.911 -24.648  0.00  0.00    +0.142 C 
ENDBRANCH  26  28
ENDBRANCH  25  26
ENDBRANCH  22  25
ENDBRANCH  21  22
ENDBRANCH   1  21
TORSDOF 9
ENDMDL
MODEL 3
REMARK VINA RESULT:     -11.4      3.233      5.087
REMARK  Name = 10452732
REMARK  9 active torsions:
REMARK  status: ('A' for Active; 'I' for Inactive)
REMARK    1  A    between atoms: C_1  and  C_21
REMARK    2  A    between atoms: C_4  and  O_7
REMARK    3  A    between atoms: C_6  and  O_9
REMARK    4  A    between atoms: O_9  and  C_12
REMARK    5  A    between atoms: C_15  and  C_18
REMARK    6  A    between atoms: C_21  and  N_22
REMARK    7  A    between atoms: N_22  and  C_25
REMARK    8  A    between atoms: C_25  and  C_26
REMARK    9  A    between atoms: C_26  and  C_28
REMARK                            x       y       z     vdW  Elec       q    Type
REMARK                         _______ _______ _______ _____ _____    ______ ____
ROOT
ATOM      1  C   UNL     1      34.915 -19.197 -20.487  0.00  0.00    -0.041 C 
ATOM      2  C   UNL     1      35.764 -19.957 -19.683  0.00  0.00    +0.034 C 
ATOM      3  C   UNL     1      33.614 -19.633 -20.736  0.00  0.00    -0.003 C 
ATOM      4  C   UNL     1      35.311 -21.156 -19.129  0.00  0.00    +0.173 C 
ATOM      5  C   UNL     1      33.162 -20.830 -20.183  0.00  0.00    +0.040 C 
ATOM      6  C   UNL     1      34.011 -21.592 -19.379  0.00  0.00    +0.181 C 
ENDROOT
BRANCH   4   7
ATOM      7  O   UNL     1      36.149 -21.889 -18.346  0.00  0.00    -0.468 OA
ATOM      8  C   UNL     1      36.614 -21.279 -17.144  0.00  0.00    +0.253 C 
ENDBRANCH   4   7
BRANCH   6   9
ATOM      9  O   UNL     1      33.557 -22.759 -18.844  0.00  0.00    -0.435 OA
BRANCH   9  12
ATOM     10  N   UNL     1      31.580 -22.319 -17.675  0.00  0.00    -0.233 NA
ATOM     11  N   UNL     1      32.882 -22.947 -15.272  0.00  0.00    -0.258 NA
ATOM     12  C   UNL     1      32.874 -22.692 -17.642  0.00  0.00    +0.227 C 
ATOM     13  C   UNL     1      33.514 -23.001 -16.462  0.00  0.00    +0.210 C 
ATOM     14  C   UNL     1      30.948 -22.264 -16.485  0.00  0.00    +0.178 C 
ATOM     15  C   UNL     1      31.588 -22.573 -15.305  0.00  0.00    +0.132 C 
BRANCH  15  18
ATOM     16  O   UNL     1      29.664 -22.670 -13.950  0.00  0.00    -0.269 OA
ATOM     17  N   UNL     1      31.659 -22.285 -12.887  0.00  0.00    -0.324 N 
ATOM     18  C   UNL     1      30.897 -22.510 -14.032  0.00  0.00    +0.258 C 
ATOM     19  H   UNL     1      31.222 -22.236 -12.006  0.00  0.00    +0.145 HD
ATOM     20  H   UNL     1      32.634 -22.173 -12.959  0.00  0.00    +0.145 HD
ENDBRANCH  15  18
ENDBRANCH   9  12
ENDBRANCH   6   9
BRANCH   1  21
ATOM     21  C   UNL     1      35.402 -17.903 -21.084  0.00  0.00    -0.054 C 
BRANCH  21  22
ATOM     22  N   UNL     1      34.573 -17.475 -22.201  0.00  0.00    +0.386 N 
ATOM     23  H   UNL     1      34.939 -17.880 -23.063  0.00  0.00    -0.084 HD
ATOM     24  H   UNL     1      33.617 -17.791 -22.038  0.00  0.00    -0.084 HD
BRANCH  22  25
ATOM     25  C   UNL     1      34.569 -16.022 -22.321  0.00  0.00    -0.081 C 
BRANCH  25  26
ATOM     26  C   UNL     1      34.157 -15.388 -20.996  0.00  0.00    -0.023 C 
BRANCH  26  28
ATOM     27  O   UNL     1      31.868 -12.029 -22.295  0.00  0.00    -0.354 OA
ATOM     28  C   UNL     1      33.729 -13.936 -21.191  0.00  0.00    +0.003 C 
ATOM     29  C   UNL     1      33.718 -13.557 -22.677  0.00  0.00    +0.032 C 
ATOM     30  C   UNL     1      32.348 -13.679 -20.578  0.00  0.00    +0.032 C 
ATOM     31  C   UNL     1      33.169 -12.149 -22.869  0.00  0.00    +0.142 C 
ATOM     32  C   UNL     1      31.877 -12.263 -20.888  0.00  0.00    +0.142 C 
ENDBRANCH  26  28
ENDBRANCH  25  26
ENDBRANCH  22  25
ENDBRANCH  21  22
ENDBRANCH   1  21
TORSDOF 9
ENDMDL
MODEL 4
REMARK VINA RESULT:     -11.4      5.542     12.891
REMARK  Name = 10452732
REMARK  9 active torsions:
REMARK  status: ('A' for Active; 'I' for Inactive)
REMARK    1  A    between atoms: C_1  and  C_21
REMARK    2  A    between atoms: C_4  and  O_7
REMARK    3  A    between atoms: C_6  and  O_9
REMARK    4  A    between atoms: O_9  and  C_12
REMARK    5  A    between atoms: C_15  and  C_18
REMARK    6  A    between atoms: C_21  and  N_22
REMARK    7  A    between atoms: N_22  and  C_25
REMARK    8  A    between atoms: C_25  and  C_26
REMARK    9  A    between atoms: C_26  and  C_28
REMARK                            x       y       z     vdW  Elec       q    Type
REMARK                         _______ _______ _______ _____ _____    ______ ____
ROOT
ATOM      1  C   UNL     1      33.630 -14.542 -21.598  0.00  0.00    -0.041 C 
ATOM      2  C   UNL     1      33.616 -14.013 -22.889  0.00  0.00    +0.034 C 
ATOM      3  C   UNL     1      32.783 -14.018 -20.621  0.00  0.00    -0.003 C 
ATOM      4  C   UNL     1      32.756 -12.959 -23.202  0.00  0.00    +0.173 C 
ATOM      5  C   UNL     1      31.925 -12.965 -20.933  0.00  0.00    +0.040 C 
ATOM      6  C   UNL     1      31.911 -12.435 -22.224  0.00  0.00    +0.181 C 
ENDROOT
BRANCH   4   7
ATOM      7  O   UNL     1      32.752 -12.451 -24.465  0.00  0.00    -0.468 OA
ATOM      8  C   UNL     1      32.732 -13.387 -25.540  0.00  0.00    +0.253 C 
ENDBRANCH   4   7
BRANCH   6   9
ATOM      9  O   UNL     1      31.067 -11.407 -22.517  0.00  0.00    -0.435 OA
BRANCH   9  12
ATOM     10  N   UNL     1      30.971  -9.846 -20.777  0.00  0.00    -0.233 NA
ATOM     11  N   UNL     1      32.431  -8.036 -22.345  0.00  0.00    -0.258 NA
ATOM     12  C   UNL     1      31.385 -10.154 -22.022  0.00  0.00    +0.227 C 
ATOM     13  C   UNL     1      32.103  -9.265 -22.793  0.00  0.00    +0.210 C 
ATOM     14  C   UNL     1      31.299  -8.617 -20.330  0.00  0.00    +0.178 C 
ATOM     15  C   UNL     1      32.016  -7.729 -21.100  0.00  0.00    +0.132 C 
BRANCH  15  18
ATOM     16  O   UNL     1      32.344  -5.410 -21.351  0.00  0.00    -0.269 OA
ATOM     17  N   UNL     1      32.701  -6.284 -19.262  0.00  0.00    -0.324 N 
ATOM     18  C   UNL     1      32.362  -6.410 -20.608  0.00  0.00    +0.258 C 
ATOM     19  H   UNL     1      32.942  -5.403 -18.895  0.00  0.00    +0.145 HD
ATOM     20  H   UNL     1      32.701  -7.077 -18.678  0.00  0.00    +0.145 HD
ENDBRANCH  15  18
ENDBRANCH   9  12
ENDBRANCH   6   9
BRANCH   1  21
ATOM     21  C   UNL     1      34.556 -15.679 -21.261  0.00  0.00    -0.054 C 
BRANCH  21  22
ATOM     22  N   UNL     1      34.948 -16.429 -22.446  0.00  0.00    +0.386 N 
ATOM     23  H   UNL     1      34.145 -16.510 -23.070  0.00  0.00    -0.084 HD
ATOM     24  H   UNL     1      35.710 -15.933 -22.909  0.00  0.00    -0.084 HD
BRANCH  22  25
ATOM     25  C   UNL     1      35.411 -17.764 -22.088  0.00  0.00    -0.081 C 
BRANCH  25  26
ATOM     26  C   UNL     1      34.228 -18.725 -22.004  0.00  0.00    -0.023 C 
BRANCH  26  28
ATOM     27  O   UNL     1      33.959 -21.777 -19.034  0.00  0.00    -0.354 OA
ATOM     28  C   UNL     1      34.148 -19.380 -20.628  0.00  0.00    +0.003 C 
ATOM     29  C   UNL     1      32.840 -20.162 -20.464  0.00  0.00    +0.032 C 
ATOM     30  C   UNL     1      35.344 -20.309 -20.388  0.00  0.00    +0.032 C 
ATOM     31  C   UNL     1      32.826 -20.916 -19.140  0.00  0.00    +0.142 C 
ATOM     32  C   UNL     1      35.189 -21.054 -19.067  0.00  0.00    +0.142 C 
ENDBRANCH  26  28
ENDBRANCH  25  26
ENDBRANCH  22  25
ENDBRANCH  21  22
ENDBRANCH   1  21
TORSDOF 9
ENDMDL
MODEL 5
REMARK VINA RESULT:     -11.4      1.341      1.574
REMARK  Name = 10452732
REMARK  9 active torsions:
REMARK  status: ('A' for Active; 'I' for Inactive)
REMARK    1  A    between atoms: C_1  and  C_21
REMARK    2  A    between atoms: C_4  and  O_7
REMARK    3  A    between atoms: C_6  and  O_9
REMARK    4  A    between atoms: O_9  and  C_12
REMARK    5  A    between atoms: C_15  and  C_18
REMARK    6  A    between atoms: C_21  and  N_22
REMARK    7  A    between atoms: N_22  and  C_25
REMARK    8  A    between atoms: C_25  and  C_26
REMARK    9  A    between atoms: C_26  and  C_28
REMARK                            x       y       z     vdW  Elec       q    Type
REMARK                         _______ _______ _______ _____ _____    ______ ____
ROOT
ATOM      1  C   UNL     1      34.955 -21.108 -19.018  0.00  0.00    -0.041 C 
ATOM      2  C   UNL     1      33.702 -21.708 -18.884  0.00  0.00    +0.034 C 
ATOM      3  C   UNL     1      35.871 -21.165 -17.968  0.00  0.00    -0.003 C 
ATOM      4  C   UNL     1      33.366 -22.362 -17.698  0.00  0.00    +0.173 C 
ATOM      5  C   UNL     1      35.535 -21.819 -16.783  0.00  0.00    +0.040 C 
ATOM      6  C   UNL     1      34.282 -22.418 -16.648  0.00  0.00    +0.181 C 
ENDROOT
BRANCH   4   7
ATOM      7  O   UNL     1      32.140 -22.943 -17.579  0.00  0.00    -0.468 OA
ATOM      8  C   UNL     1      31.189 -22.286 -16.744  0.00  0.00    +0.253 C 
ENDBRANCH   4   7
BRANCH   6   9
ATOM      9  O   UNL     1      33.966 -23.054 -15.486  0.00  0.00    -0.435 OA
BRANCH   9  12
ATOM     10  N   UNL     1      35.680 -22.908 -13.902  0.00  0.00    -0.233 NA
ATOM     11  N   UNL     1      36.285 -25.612 -14.334  0.00  0.00    -0.258 NA
ATOM     12  C   UNL     1      34.994 -23.660 -14.785  0.00  0.00    +0.227 C 
ATOM     13  C   UNL     1      35.291 -24.989 -14.997  0.00  0.00    +0.210 C 
ATOM     14  C   UNL     1      36.675 -23.531 -13.239  0.00  0.00    +0.178 C 
ATOM     15  C   UNL     1      36.972 -24.859 -13.451  0.00  0.00    +0.132 C 
BRANCH  15  18
ATOM     16  O   UNL     1      37.899 -25.905 -11.556  0.00  0.00    -0.269 OA
ATOM     17  N   UNL     1      39.247 -25.730 -13.403  0.00  0.00    -0.324 N 
ATOM     18  C   UNL     1      38.044 -25.519 -12.731  0.00  0.00    +0.258 C 
ATOM     19  H   UNL     1      39.995 -26.174 -12.943  0.00  0.00    +0.145 HD
ATOM     20  H   UNL     1      39.348 -25.434 -14.336  0.00  0.00    +0.145 HD
ENDBRANCH  15  18
ENDBRANCH   9  12
ENDBRANCH   6   9
BRANCH   1  21
ATOM     21  C   UNL     1      35.318 -20.403 -20.297  0.00  0.00    -0.054 C 
BRANCH  21  22
ATOM     22  N   UNL     1      36.222 -19.285 -20.062  0.00  0.00    +0.386 N 
ATOM     23  H   UNL     1      35.942 -18.804 -19.206  0.00  0.00    -0.084 HD
ATOM     24  H   UNL     1      37.171 -19.646 -19.973  0.00  0.00    -0.084 HD
BRANCH  22  25
ATOM     25  C   UNL     1      36.183 -18.342 -21.172  0.00  0.00    -0.081 C 
BRANCH  25  26
ATOM     26  C   UNL     1      34.961 -17.437 -21.052  0.00  0.00    -0.023 C 
BRANCH  26  28
ATOM     27  O   UNL     1      33.281 -14.912 -24.053  0.00  0.00    -0.354 OA
ATOM     28  C   UNL     1      34.884 -16.457 -22.218  0.00  0.00    +0.003 C 
ATOM     29  C   UNL     1      34.168 -17.084 -23.421  0.00  0.00    +0.032 C 
ATOM     30  C   UNL     1      34.173 -15.162 -21.807  0.00  0.00    +0.032 C 
ATOM     31  C   UNL     1      33.983 -16.058 -24.532  0.00  0.00    +0.142 C 
ATOM     32  C   UNL     1      33.989 -14.244 -23.010  0.00  0.00    +0.142 C 
ENDBRANCH  26  28
ENDBRANCH  25  26
ENDBRANCH  22  25
ENDBRANCH  21  22
ENDBRANCH   1  21
TORSDOF 9
ENDMDL
MODEL 6
REMARK VINA RESULT:     -11.3      4.543      9.037
REMARK  Name = 10452732
REMARK  9 active torsions:
REMARK  status: ('A' for Active; 'I' for Inactive)
REMARK    1  A    between atoms: C_1  and  C_21
REMARK    2  A    between atoms: C_4  and  O_7
REMARK    3  A    between atoms: C_6  and  O_9
REMARK    4  A    between atoms: O_9  and  C_12
REMARK    5  A    between atoms: C_15  and  C_18
REMARK    6  A    between atoms: C_21  and  N_22
REMARK    7  A    between atoms: N_22  and  C_25
REMARK    8  A    between atoms: C_25  and  C_26
REMARK    9  A    between atoms: C_26  and  C_28
REMARK                            x       y       z     vdW  Elec       q    Type
REMARK                         _______ _______ _______ _____ _____    ______ ____
ROOT
ATOM      1  C   UNL     1      32.894 -13.385 -21.453  0.00  0.00    -0.041 C 
ATOM      2  C   UNL     1      32.997 -13.653 -22.818  0.00  0.00    +0.034 C 
ATOM      3  C   UNL     1      33.496 -14.237 -20.527  0.00  0.00    -0.003 C 
ATOM      4  C   UNL     1      33.701 -14.775 -23.257  0.00  0.00    +0.173 C 
ATOM      5  C   UNL     1      34.199 -15.359 -20.966  0.00  0.00    +0.040 C 
ATOM      6  C   UNL     1      34.302 -15.628 -22.332  0.00  0.00    +0.181 C 
ENDROOT
BRANCH   4   7
ATOM      7  O   UNL     1      33.794 -15.026 -24.592  0.00  0.00    -0.468 OA
ATOM      8  C   UNL     1      33.071 -14.162 -25.467  0.00  0.00    +0.253 C 
ENDBRANCH   4   7
BRANCH   6   9
ATOM      9  O   UNL     1      34.992 -16.726 -22.748  0.00  0.00    -0.435 OA
BRANCH   9  12
ATOM     10  N   UNL     1      34.013 -18.644 -21.834  0.00  0.00    -0.233 NA
ATOM     11  N   UNL     1      36.296 -19.032 -20.252  0.00  0.00    -0.258 NA
ATOM     12  C   UNL     1      35.066 -17.804 -21.883  0.00  0.00    +0.227 C 
ATOM     13  C   UNL     1      36.188 -17.995 -21.106  0.00  0.00    +0.210 C 
ATOM     14  C   UNL     1      34.121 -19.681 -20.979  0.00  0.00    +0.178 C 
ATOM     15  C   UNL     1      35.243 -19.872 -20.202  0.00  0.00    +0.132 C 
BRANCH  15  18
ATOM     16  O   UNL     1      34.738 -22.059 -19.491  0.00  0.00    -0.269 OA
ATOM     17  N   UNL     1      36.171 -20.848 -18.172  0.00  0.00    -0.324 N 
ATOM     18  C   UNL     1      35.347 -20.991 -19.287  0.00  0.00    +0.258 C 
ATOM     19  H   UNL     1      36.263 -21.589 -17.531  0.00  0.00    +0.145 HD
ATOM     20  H   UNL     1      36.658 -20.006 -18.026  0.00  0.00    +0.145 HD
ENDBRANCH  15  18
ENDBRANCH   9  12
ENDBRANCH   6   9
BRANCH   1  21
ATOM     21  C   UNL     1      32.136 -12.174 -20.979  0.00  0.00    -0.054 C 
BRANCH  21  22
ATOM     22  N   UNL     1      30.922 -11.957 -21.754  0.00  0.00    +0.386 N 
ATOM     23  H   UNL     1      31.148 -12.004 -22.748  0.00  0.00    -0.084 HD
ATOM     24  H   UNL     1      30.244 -12.678 -21.509  0.00  0.00    -0.084 HD
BRANCH  22  25
ATOM     25  C   UNL     1      30.343 -10.652 -21.459  0.00  0.00    -0.081 C 
BRANCH  25  26
ATOM     26  C   UNL     1      31.242  -9.884 -20.495  0.00  0.00    -0.023 C 
BRANCH  26  28
ATOM     27  O   UNL     1      32.844  -6.031 -21.382  0.00  0.00    -0.354 OA
ATOM     28  C   UNL     1      31.289  -8.401 -20.849  0.00  0.00    +0.003 C 
ATOM     29  C   UNL     1      31.965  -7.589 -19.738  0.00  0.00    +0.032 C 
ATOM     30  C   UNL     1      32.019  -8.173 -22.178  0.00  0.00    +0.032 C 
ATOM     31  C   UNL     1      32.121  -6.132 -20.155  0.00  0.00    +0.142 C 
ATOM     32  C   UNL     1      32.171  -6.682 -22.458  0.00  0.00    +0.142 C 
ENDBRANCH  26  28
ENDBRANCH  25  26
ENDBRANCH  22  25
ENDBRANCH  21  22
ENDBRANCH   1  21
TORSDOF 9
ENDMDL
MODEL 7
REMARK VINA RESULT:     -11.0      3.061     11.005
REMARK  Name = 10452732
REMARK  9 active torsions:
REMARK  status: ('A' for Active; 'I' for Inactive)
REMARK    1  A    between atoms: C_1  and  C_21
REMARK    2  A    between atoms: C_4  and  O_7
REMARK    3  A    between atoms: C_6  and  O_9
REMARK    4  A    between atoms: O_9  and  C_12
REMARK    5  A    between atoms: C_15  and  C_18
REMARK    6  A    between atoms: C_21  and  N_22
REMARK    7  A    between atoms: N_22  and  C_25
REMARK    8  A    between atoms: C_25  and  C_26
REMARK    9  A    between atoms: C_26  and  C_28
REMARK                            x       y       z     vdW  Elec       q    Type
REMARK                         _______ _______ _______ _____ _____    ______ ____
ROOT
ATOM      1  C   UNL     1      35.010 -19.704 -20.599  0.00  0.00    -0.041 C 
ATOM      2  C   UNL     1      33.969 -19.587 -21.520  0.00  0.00    +0.034 C 
ATOM      3  C   UNL     1      36.059 -18.786 -20.611  0.00  0.00    -0.003 C 
ATOM      4  C   UNL     1      33.979 -18.552 -22.456  0.00  0.00    +0.173 C 
ATOM      5  C   UNL     1      36.069 -17.751 -21.546  0.00  0.00    +0.040 C 
ATOM      6  C   UNL     1      35.029 -17.634 -22.469  0.00  0.00    +0.181 C 
ENDROOT
BRANCH   4   7
ATOM      7  O   UNL     1      32.958 -18.449 -23.350  0.00  0.00    -0.468 OA
ATOM      8  C   UNL     1      33.261 -18.730 -24.715  0.00  0.00    +0.253 C 
ENDBRANCH   4   7
BRANCH   6   9
ATOM      9  O   UNL     1      35.050 -16.618 -23.376  0.00  0.00    -0.435 OA
BRANCH   9  12
ATOM     10  N   UNL     1      34.291 -15.052 -21.814  0.00  0.00    -0.233 NA
ATOM     11  N   UNL     1      32.883 -13.732 -23.849  0.00  0.00    -0.258 NA
ATOM     12  C   UNL     1      34.308 -15.486 -23.090  0.00  0.00    +0.227 C 
ATOM     13  C   UNL     1      33.617 -14.837 -24.090  0.00  0.00    +0.210 C 
ATOM     14  C   UNL     1      33.557 -13.947 -21.573  0.00  0.00    +0.178 C 
ATOM     15  C   UNL     1      32.866 -13.299 -22.573  0.00  0.00    +0.132 C 
BRANCH  15  18
ATOM     16  O   UNL     1      32.236 -11.062 -22.955  0.00  0.00    -0.269 OA
ATOM     17  N   UNL     1      31.122 -12.180 -21.292  0.00  0.00    -0.324 N 
ATOM     18  C   UNL     1      32.080 -12.111 -22.301  0.00  0.00    +0.258 C 
ATOM     19  H   UNL     1      30.572 -11.391 -21.081  0.00  0.00    +0.145 HD
ATOM     20  H   UNL     1      30.996 -13.016 -20.789  0.00  0.00    +0.145 HD
ENDBRANCH  15  18
ENDBRANCH   9  12
ENDBRANCH   6   9
BRANCH   1  21
ATOM     21  C   UNL     1      34.999 -20.821 -19.589  0.00  0.00    -0.054 C 
BRANCH  21  22
ATOM     22  N   UNL     1      36.135 -20.742 -18.681  0.00  0.00    +0.386 N 
ATOM     23  H   UNL     1      36.966 -21.100 -19.155  0.00  0.00    -0.084 HD
ATOM     24  H   UNL     1      36.271 -19.768 -18.412  0.00  0.00    -0.084 HD
BRANCH  22  25
ATOM     25  C   UNL     1      35.896 -21.529 -17.478  0.00  0.00    -0.081 C 
BRANCH  25  26
ATOM     26  C   UNL     1      36.867 -21.115 -16.378  0.00  0.00    -0.023 C 
BRANCH  26  28
ATOM     27  O   UNL     1      36.766 -24.912 -14.435  0.00  0.00    -0.354 OA
ATOM     28  C   UNL     1      36.907 -22.152 -15.259  0.00  0.00    +0.003 C 
ATOM     29  C   UNL     1      35.584 -22.922 -15.172  0.00  0.00    +0.032 C 
ATOM     30  C   UNL     1      38.069 -23.133 -15.454  0.00  0.00    +0.032 C 
ATOM     31  C   UNL     1      35.678 -24.038 -14.139  0.00  0.00    +0.142 C 
ATOM     32  C   UNL     1      38.022 -24.237 -14.404  0.00  0.00    +0.142 C 
ENDBRANCH  26  28
ENDBRANCH  25  26
ENDBRANCH  22  25
ENDBRANCH  21  22
ENDBRANCH   1  21
TORSDOF 9
ENDMDL
MODEL 8
REMARK VINA RESULT:     -10.9      4.143      8.262
REMARK  Name = 10452732
REMARK  9 active torsions:
REMARK  status: ('A' for Active; 'I' for Inactive)
REMARK    1  A    between atoms: C_1  and  C_21
REMARK    2  A    between atoms: C_4  and  O_7
REMARK    3  A    between atoms: C_6  and  O_9
REMARK    4  A    between atoms: O_9  and  C_12
REMARK    5  A    between atoms: C_15  and  C_18
REMARK    6  A    between atoms: C_21  and  N_22
REMARK    7  A    between atoms: N_22  and  C_25
REMARK    8  A    between atoms: C_25  and  C_26
REMARK    9  A    between atoms: C_26  and  C_28
REMARK                            x       y       z     vdW  Elec       q    Type
REMARK                         _______ _______ _______ _____ _____    ______ ____
ROOT
ATOM      1  C   UNL     1      33.587 -14.364 -22.138  0.00  0.00    -0.041 C 
ATOM      2  C   UNL     1      33.586 -15.068 -23.343  0.00  0.00    +0.034 C 
ATOM      3  C   UNL     1      34.098 -14.958 -20.984  0.00  0.00    -0.003 C 
ATOM      4  C   UNL     1      34.095 -16.366 -23.392  0.00  0.00    +0.173 C 
ATOM      5  C   UNL     1      34.606 -16.255 -21.034  0.00  0.00    +0.040 C 
ATOM      6  C   UNL     1      34.605 -16.960 -22.238  0.00  0.00    +0.181 C 
ENDROOT
BRANCH   4   7
ATOM      7  O   UNL     1      34.088 -17.042 -24.574  0.00  0.00    -0.468 OA
ATOM      8  C   UNL     1      33.086 -18.043 -24.743  0.00  0.00    +0.253 C 
ENDBRANCH   4   7
BRANCH   6   9
ATOM      9  O   UNL     1      35.105 -18.226 -22.274  0.00  0.00    -0.435 OA
BRANCH   9  12
ATOM     10  N   UNL     1      33.345 -19.397 -21.273  0.00  0.00    -0.233 NA
ATOM     11  N   UNL     1      35.164 -20.566 -19.486  0.00  0.00    -0.258 NA
ATOM     12  C   UNL     1      34.663 -19.118 -21.313  0.00  0.00    +0.227 C 
ATOM     13  C   UNL     1      35.557 -19.693 -20.435  0.00  0.00    +0.210 C 
ATOM     14  C   UNL     1      32.952 -20.269 -20.323  0.00  0.00    +0.178 C 
ATOM     15  C   UNL     1      33.845 -20.844 -19.446  0.00  0.00    +0.132 C 
BRANCH  15  18
ATOM     16  O   UNL     1      34.226 -22.415 -17.734  0.00  0.00    -0.269 OA
ATOM     17  N   UNL     1      32.039 -21.942 -18.235  0.00  0.00    -0.324 N 
ATOM     18  C   UNL     1      33.410 -21.781 -18.429  0.00  0.00    +0.258 C 
ATOM     19  H   UNL     1      31.710 -22.571 -17.553  0.00  0.00    +0.145 HD
ATOM     20  H   UNL     1      31.401 -21.428 -18.780  0.00  0.00    +0.145 HD
ENDBRANCH  15  18
ENDBRANCH   9  12
ENDBRANCH   6   9
BRANCH   1  21
ATOM     21  C   UNL     1      33.039 -12.963 -22.084  0.00  0.00    -0.054 C 
BRANCH  21  22
ATOM     22  N   UNL     1      33.739 -12.072 -22.998  0.00  0.00    +0.386 N 
ATOM     23  H   UNL     1      34.459 -11.564 -22.483  0.00  0.00    -0.084 HD
ATOM     24  H   UNL     1      34.158 -12.630 -23.741  0.00  0.00    -0.084 HD
BRANCH  22  25
ATOM     25  C   UNL     1      32.818 -11.114 -23.598  0.00  0.00    -0.081 C 
BRANCH  25  26
ATOM     26  C   UNL     1      31.834 -10.604 -22.551  0.00  0.00    -0.023 C 
BRANCH  26  28
ATOM     27  O   UNL     1      30.739  -6.529 -21.918  0.00  0.00    -0.354 OA
ATOM     28  C   UNL     1      31.977  -9.099 -22.346  0.00  0.00    +0.003 C 
ATOM     29  C   UNL     1      31.280  -8.320 -23.468  0.00  0.00    +0.032 C 
ATOM     30  C   UNL     1      31.414  -8.669 -20.987  0.00  0.00    +0.032 C 
ATOM     31  C   UNL     1      31.320  -6.822 -23.188  0.00  0.00    +0.142 C 
ATOM     32  C   UNL     1      31.447  -7.152 -20.847  0.00  0.00    +0.142 C 
ENDBRANCH  26  28
ENDBRANCH  25  26
ENDBRANCH  22  25
ENDBRANCH  21  22
ENDBRANCH   1  21
TORSDOF 9
ENDMDL
MODEL 9
REMARK VINA RESULT:     -10.8      3.567     11.006
REMARK  Name = 10452732
REMARK  9 active torsions:
REMARK  status: ('A' for Active; 'I' for Inactive)
REMARK    1  A    between atoms: C_1  and  C_21
REMARK    2  A    between atoms: C_4  and  O_7
REMARK    3  A    between atoms: C_6  and  O_9
REMARK    4  A    between atoms: O_9  and  C_12
REMARK    5  A    between atoms: C_15  and  C_18
REMARK    6  A    between atoms: C_21  and  N_22
REMARK    7  A    between atoms: N_22  and  C_25
REMARK    8  A    between atoms: C_25  and  C_26
REMARK    9  A    between atoms: C_26  and  C_28
REMARK                            x       y       z     vdW  Elec       q    Type
REMARK                         _______ _______ _______ _____ _____    ______ ____
ROOT
ATOM      1  C   UNL     1      34.620 -18.878 -21.526  0.00  0.00    -0.041 C 
ATOM      2  C   UNL     1      34.064 -18.769 -22.801  0.00  0.00    +0.034 C 
ATOM      3  C   UNL     1      35.098 -17.741 -20.873  0.00  0.00    -0.003 C 
ATOM      4  C   UNL     1      33.988 -17.523 -23.424  0.00  0.00    +0.173 C 
ATOM      5  C   UNL     1      35.022 -16.496 -21.497  0.00  0.00    +0.040 C 
ATOM      6  C   UNL     1      34.467 -16.387 -22.772  0.00  0.00    +0.181 C 
ENDROOT
BRANCH   4   7
ATOM      7  O   UNL     1      33.444 -17.430 -24.669  0.00  0.00    -0.468 OA
ATOM      8  C   UNL     1      32.365 -18.311 -24.973  0.00  0.00    +0.253 C 
ENDBRANCH   4   7
BRANCH   6   9
ATOM      9  O   UNL     1      34.398 -15.165 -23.370  0.00  0.00    -0.435 OA
BRANCH   9  12
ATOM     10  N   UNL     1      33.613 -14.152 -21.413  0.00  0.00    -0.233 NA
ATOM     11  N   UNL     1      32.125 -12.351 -22.964  0.00  0.00    -0.258 NA
ATOM     12  C   UNL     1      33.623 -14.194 -22.760  0.00  0.00    +0.227 C 
ATOM     13  C   UNL     1      32.892 -13.309 -23.523  0.00  0.00    +0.210 C 
ATOM     14  C   UNL     1      32.846 -13.195 -20.855  0.00  0.00    +0.178 C 
ATOM     15  C   UNL     1      32.115 -12.310 -21.617  0.00  0.00    +0.132 C 
BRANCH  15  18
ATOM     16  O   UNL     1      31.558 -10.823 -19.878  0.00  0.00    -0.269 OA
ATOM     17  N   UNL     1      30.200 -10.807 -21.726  0.00  0.00    -0.324 N 
ATOM     18  C   UNL     1      31.294 -11.284 -21.005  0.00  0.00    +0.258 C 
ATOM     19  H   UNL     1      29.622 -10.111 -21.339  0.00  0.00    +0.145 HD
ATOM     20  H   UNL     1      30.006 -11.168 -22.621  0.00  0.00    +0.145 HD
ENDBRANCH  15  18
ENDBRANCH   9  12
ENDBRANCH   6   9
BRANCH   1  21
ATOM     21  C   UNL     1      34.701 -20.222 -20.852  0.00  0.00    -0.054 C 
BRANCH  21  22
ATOM     22  N   UNL     1      35.655 -20.220 -19.752  0.00  0.00    +0.386 N 
ATOM     23  H   UNL     1      36.582 -20.446 -20.115  0.00  0.00    -0.084 HD
ATOM     24  H   UNL     1      35.656 -19.296 -19.322  0.00  0.00    -0.084 HD
BRANCH  22  25
ATOM     25  C   UNL     1      35.286 -21.204 -18.742  0.00  0.00    -0.081 C 
BRANCH  25  26
ATOM     26  C   UNL     1      33.825 -21.609 -18.912  0.00  0.00    -0.023 C 
BRANCH  26  28
ATOM     27  O   UNL     1      32.471 -22.804 -15.046  0.00  0.00    -0.354 OA
ATOM     28  C   UNL     1      33.369 -22.515 -17.772  0.00  0.00    +0.003 C 
ATOM     29  C   UNL     1      34.320 -22.418 -16.574  0.00  0.00    +0.032 C 
ATOM     30  C   UNL     1      31.941 -22.173 -17.332  0.00  0.00    +0.032 C 
ATOM     31  C   UNL     1      33.788 -23.226 -15.397  0.00  0.00    +0.142 C 
ATOM     32  C   UNL     1      31.542 -22.996 -16.112  0.00  0.00    +0.142 C 
ENDBRANCH  26  28
ENDBRANCH  25  26
ENDBRANCH  22  25
ENDBRANCH  21  22
ENDBRANCH   1  21
TORSDOF 9
ENDMDL
