MODEL 1
REMARK VINA RESULT:     -11.9      0.000      0.000
REMARK  Name = 10430040
REMARK  12 active torsions:
REMARK  status: ('A' for Active; 'I' for Inactive)
REMARK    1  A    between atoms: C_1  and  N_3
REMARK    2  A    between atoms: C_1  and  C_12
REMARK    3  A    between atoms: C_1  and  C_19
REMARK    4  A    between atoms: C_4  and  C_6
REMARK    5  A    between atoms: C_6  and  C_7
REMARK    6  A    between atoms: C_7  and  C_9
REMARK    7  A    between atoms: C_9  and  O_10
REMARK    8  A    between atoms: C_12  and  C_13
REMARK    9  A    between atoms: C_13  and  C_16
REMARK   10  A    between atoms: C_16  and  O_17
REMARK   11  A    between atoms: C_19  and  C_20
REMARK   12  A    between atoms: C_23  and  C_26
REMARK                            x       y       z     vdW  Elec       q    Type
REMARK                         _______ _______ _______ _____ _____    ______ ____
ROOT
ATOM      1  C   UNL     1      33.141 -22.408 -16.201  0.00  0.00    +0.076 C 
ENDROOT
BRANCH   1   3
ATOM      2  O   UNL     1      30.382 -21.841 -16.859  0.00  0.00    -0.275 OA
ATOM      3  N   UNL     1      31.970 -23.157 -15.790  0.00  0.00    -0.306 N 
ATOM      4  C   UNL     1      30.683 -22.804 -16.159  0.00  0.00    +0.223 C 
ATOM      5  H   UNL     1      32.095 -23.953 -15.224  0.00  0.00    +0.149 HD
BRANCH   4   6
ATOM      6  C   UNL     1      29.659 -23.766 -15.585  0.00  0.00    +0.097 C 
BRANCH   6   7
ATOM      7  C   UNL     1      28.306 -23.103 -15.345  0.00  0.00    +0.119 C 
BRANCH   7   9
ATOM      8  O   UNL     1      27.077 -23.794 -17.328  0.00  0.00    -0.250 OA
ATOM      9  C   UNL     1      27.539 -22.902 -16.631  0.00  0.00    +0.314 C 
BRANCH   9  10
ATOM     10  O   UNL     1      27.415 -21.583 -16.934  0.00  0.00    -0.480 OA
ATOM     11  H   UNL     1      27.904 -21.217 -17.644  0.00  0.00    +0.295 HD
ENDBRANCH   9  10
ENDBRANCH   7   9
ENDBRANCH   6   7
ENDBRANCH   4   6
ENDBRANCH   1   3
BRANCH   1  12
ATOM     12  C   UNL     1      34.202 -22.505 -15.085  0.00  0.00    +0.031 C 
BRANCH  12  13
ATOM     13  C   UNL     1      35.530 -23.162 -15.502  0.00  0.00    +0.101 C 
ATOM     14  C   UNL     1      36.679 -22.161 -15.399  0.00  0.00    +0.012 C 
BRANCH  13  16
ATOM     15  O   UNL     1      35.698 -24.408 -13.416  0.00  0.00    -0.250 OA
ATOM     16  C   UNL     1      35.863 -24.359 -14.628  0.00  0.00    +0.313 C 
BRANCH  16  17
ATOM     17  O   UNL     1      36.401 -25.383 -15.340  0.00  0.00    -0.480 OA
ATOM     18  H   UNL     1      36.326 -25.395 -16.273  0.00  0.00    +0.295 HD
ENDBRANCH  16  17
ENDBRANCH  13  16
ENDBRANCH  12  13
ENDBRANCH   1  12
BRANCH   1  19
ATOM     19  C   UNL     1      33.656 -22.922 -17.557  0.00  0.00    +0.046 C 
BRANCH  19  20
ATOM     20  C   UNL     1      33.805 -21.825 -18.586  0.00  0.00    -0.021 C 
ATOM     21  C   UNL     1      35.076 -21.419 -18.995  0.00  0.00    -0.004 C 
ATOM     22  C   UNL     1      32.671 -21.217 -19.127  0.00  0.00    -0.004 C 
ATOM     23  C   UNL     1      34.079 -19.800 -20.487  0.00  0.00    -0.000 C 
ATOM     24  C   UNL     1      35.213 -20.408 -19.945  0.00  0.00    -0.000 C 
ATOM     25  C   UNL     1      32.808 -20.206 -20.078  0.00  0.00    -0.000 C 
BRANCH  23  26
ATOM     26  C   UNL     1      34.221 -18.752 -21.471  0.00  0.00    -0.000 C 
ATOM     27  C   UNL     1      33.834 -18.978 -22.792  0.00  0.00    -0.000 C 
ATOM     28  C   UNL     1      34.743 -17.512 -21.101  0.00  0.00    -0.000 C 
ATOM     29  C   UNL     1      33.970 -17.966 -23.743  0.00  0.00    +0.000 C 
ATOM     30  C   UNL     1      34.878 -16.500 -22.051  0.00  0.00    +0.000 C 
ATOM     31  C   UNL     1      34.492 -16.727 -23.373  0.00  0.00    +0.000 C 
ENDBRANCH  23  26
ENDBRANCH  19  20
ENDBRANCH   1  19
TORSDOF 12
ENDMDL
MODEL 2
REMARK VINA RESULT:     -11.4      1.498      2.331
REMARK  Name = 10430040
REMARK  12 active torsions:
REMARK  status: ('A' for Active; 'I' for Inactive)
REMARK    1  A    between atoms: C_1  and  N_3
REMARK    2  A    between atoms: C_1  and  C_12
REMARK    3  A    between atoms: C_1  and  C_19
REMARK    4  A    between atoms: C_4  and  C_6
REMARK    5  A    between atoms: C_6  and  C_7
REMARK    6  A    between atoms: C_7  and  C_9
REMARK    7  A    between atoms: C_9  and  O_10
REMARK    8  A    between atoms: C_12  and  C_13
REMARK    9  A    between atoms: C_13  and  C_16
REMARK   10  A    between atoms: C_16  and  O_17
REMARK   11  A    between atoms: C_19  and  C_20
REMARK   12  A    between atoms: C_23  and  C_26
REMARK                            x       y       z     vdW  Elec       q    Type
REMARK                         _______ _______ _______ _____ _____    ______ ____
ROOT
ATOM      1  C   UNL     1      32.989 -22.538 -16.235  0.00  0.00    +0.076 C 
ENDROOT
BRANCH   1   3
ATOM      2  O   UNL     1      30.787 -21.726 -14.544  0.00  0.00    -0.275 OA
ATOM      3  N   UNL     1      31.709 -23.201 -16.084  0.00  0.00    -0.306 N 
ATOM      4  C   UNL     1      30.712 -22.731 -15.245  0.00  0.00    +0.223 C 
ATOM      5  H   UNL     1      31.539 -24.021 -16.602  0.00  0.00    +0.149 HD
BRANCH   4   6
ATOM      6  C   UNL     1      29.486 -23.624 -15.288  0.00  0.00    +0.097 C 
BRANCH   6   7
ATOM      7  C   UNL     1      29.693 -24.938 -14.542  0.00  0.00    +0.119 C 
BRANCH   7   9
ATOM      8  O   UNL     1      30.093 -24.273 -12.236  0.00  0.00    -0.250 OA
ATOM      9  C   UNL     1      30.507 -24.751 -13.283  0.00  0.00    +0.314 C 
BRANCH   9  10
ATOM     10  O   UNL     1      31.783 -25.186 -13.447  0.00  0.00    -0.480 OA
ATOM     11  H   UNL     1      32.217 -25.641 -12.753  0.00  0.00    +0.295 HD
ENDBRANCH   9  10
ENDBRANCH   7   9
ENDBRANCH   6   7
ENDBRANCH   4   6
ENDBRANCH   1   3
BRANCH   1  12
ATOM     12  C   UNL     1      33.836 -22.816 -14.975  0.00  0.00    +0.031 C 
BRANCH  12  13
ATOM     13  C   UNL     1      35.240 -23.389 -15.246  0.00  0.00    +0.101 C 
ATOM     14  C   UNL     1      36.308 -22.531 -14.572  0.00  0.00    +0.012 C 
BRANCH  13  16
ATOM     15  O   UNL     1      35.425 -25.810 -15.433  0.00  0.00    -0.250 OA
ATOM     16  C   UNL     1      35.374 -24.811 -14.728  0.00  0.00    +0.313 C 
BRANCH  16  17
ATOM     17  O   UNL     1      35.402 -24.865 -13.371  0.00  0.00    -0.480 OA
ATOM     18  H   UNL     1      35.227 -24.094 -12.868  0.00  0.00    +0.295 HD
ENDBRANCH  16  17
ENDBRANCH  13  16
ENDBRANCH  12  13
ENDBRANCH   1  12
BRANCH   1  19
ATOM     19  C   UNL     1      33.681 -23.000 -17.530  0.00  0.00    +0.046 C 
BRANCH  19  20
ATOM     20  C   UNL     1      33.824 -21.893 -18.549  0.00  0.00    -0.021 C 
ATOM     21  C   UNL     1      35.093 -21.474 -18.950  0.00  0.00    -0.004 C 
ATOM     22  C   UNL     1      32.687 -21.290 -19.089  0.00  0.00    -0.004 C 
ATOM     23  C   UNL     1      34.089 -19.850 -20.431  0.00  0.00    -0.000 C 
ATOM     24  C   UNL     1      35.225 -20.453 -19.891  0.00  0.00    -0.000 C 
ATOM     25  C   UNL     1      32.820 -20.269 -20.030  0.00  0.00    -0.000 C 
BRANCH  23  26
ATOM     26  C   UNL     1      34.225 -18.792 -21.406  0.00  0.00    -0.000 C 
ATOM     27  C   UNL     1      34.777 -17.566 -21.033  0.00  0.00    -0.000 C 
ATOM     28  C   UNL     1      33.807 -18.996 -22.722  0.00  0.00    -0.000 C 
ATOM     29  C   UNL     1      34.910 -16.545 -21.975  0.00  0.00    +0.000 C 
ATOM     30  C   UNL     1      33.940 -17.975 -23.663  0.00  0.00    +0.000 C 
ATOM     31  C   UNL     1      34.491 -16.749 -23.289  0.00  0.00    +0.000 C 
ENDBRANCH  23  26
ENDBRANCH  19  20
ENDBRANCH   1  19
TORSDOF 12
ENDMDL
MODEL 3
REMARK VINA RESULT:     -11.0      1.348      1.989
REMARK  Name = 10430040
REMARK  12 active torsions:
REMARK  status: ('A' for Active; 'I' for Inactive)
REMARK    1  A    between atoms: C_1  and  N_3
REMARK    2  A    between atoms: C_1  and  C_12
REMARK    3  A    between atoms: C_1  and  C_19
REMARK    4  A    between atoms: C_4  and  C_6
REMARK    5  A    between atoms: C_6  and  C_7
REMARK    6  A    between atoms: C_7  and  C_9
REMARK    7  A    between atoms: C_9  and  O_10
REMARK    8  A    between atoms: C_12  and  C_13
REMARK    9  A    between atoms: C_13  and  C_16
REMARK   10  A    between atoms: C_16  and  O_17
REMARK   11  A    between atoms: C_19  and  C_20
REMARK   12  A    between atoms: C_23  and  C_26
REMARK                            x       y       z     vdW  Elec       q    Type
REMARK                         _______ _______ _______ _____ _____    ______ ____
ROOT
ATOM      1  C   UNL     1      33.006 -22.366 -16.156  0.00  0.00    +0.076 C 
ENDROOT
BRANCH   1   3
ATOM      2  O   UNL     1      30.376 -21.672 -17.141  0.00  0.00    -0.275 OA
ATOM      3  N   UNL     1      31.735 -22.908 -15.719  0.00  0.00    -0.306 N 
ATOM      4  C   UNL     1      30.522 -22.510 -16.255  0.00  0.00    +0.223 C 
ATOM      5  H   UNL     1      31.733 -23.592 -15.010  0.00  0.00    +0.149 HD
BRANCH   4   6
ATOM      6  C   UNL     1      29.363 -23.243 -15.607  0.00  0.00    +0.097 C 
BRANCH   6   7
ATOM      7  C   UNL     1      29.657 -24.724 -15.389  0.00  0.00    +0.119 C 
BRANCH   7   9
ATOM      8  O   UNL     1      30.077 -24.880 -12.997  0.00  0.00    -0.250 OA
ATOM      9  C   UNL     1      29.383 -25.152 -13.966  0.00  0.00    +0.314 C 
BRANCH   9  10
ATOM     10  O   UNL     1      28.245 -25.890 -13.881  0.00  0.00    -0.480 OA
ATOM     11  H   UNL     1      27.487 -25.641 -14.370  0.00  0.00    +0.295 HD
ENDBRANCH   9  10
ENDBRANCH   7   9
ENDBRANCH   6   7
ENDBRANCH   4   6
ENDBRANCH   1   3
BRANCH   1  12
ATOM     12  C   UNL     1      34.070 -22.684 -15.084  0.00  0.00    +0.031 C 
BRANCH  12  13
ATOM     13  C   UNL     1      35.447 -23.098 -15.633  0.00  0.00    +0.101 C 
ATOM     14  C   UNL     1      36.448 -21.954 -15.489  0.00  0.00    +0.012 C 
BRANCH  13  16
ATOM     15  O   UNL     1      35.745 -25.474 -15.187  0.00  0.00    -0.250 OA
ATOM     16  C   UNL     1      36.000 -24.310 -14.903  0.00  0.00    +0.313 C 
BRANCH  16  17
ATOM     17  O   UNL     1      36.800 -23.964 -13.862  0.00  0.00    -0.480 OA
ATOM     18  H   UNL     1      36.610 -24.279 -13.000  0.00  0.00    +0.295 HD
ENDBRANCH  16  17
ENDBRANCH  13  16
ENDBRANCH  12  13
ENDBRANCH   1  12
BRANCH   1  19
ATOM     19  C   UNL     1      33.376 -22.921 -17.543  0.00  0.00    +0.046 C 
BRANCH  19  20
ATOM     20  C   UNL     1      33.590 -21.837 -18.575  0.00  0.00    -0.021 C 
ATOM     21  C   UNL     1      32.493 -21.195 -19.150  0.00  0.00    -0.004 C 
ATOM     22  C   UNL     1      34.885 -21.480 -18.953  0.00  0.00    -0.004 C 
ATOM     23  C   UNL     1      33.985 -19.837 -20.480  0.00  0.00    -0.000 C 
ATOM     24  C   UNL     1      32.691 -20.195 -20.101  0.00  0.00    -0.000 C 
ATOM     25  C   UNL     1      35.082 -20.480 -19.905  0.00  0.00    -0.000 C 
BRANCH  23  26
ATOM     26  C   UNL     1      34.190 -18.801 -21.467  0.00  0.00    -0.000 C 
ATOM     27  C   UNL     1      33.776 -19.000 -22.784  0.00  0.00    -0.000 C 
ATOM     28  C   UNL     1      34.800 -17.600 -21.102  0.00  0.00    -0.000 C 
ATOM     29  C   UNL     1      33.972 -17.999 -23.736  0.00  0.00    +0.000 C 
ATOM     30  C   UNL     1      34.997 -16.600 -22.054  0.00  0.00    +0.000 C 
ATOM     31  C   UNL     1      34.583 -16.800 -23.371  0.00  0.00    +0.000 C 
ENDBRANCH  23  26
ENDBRANCH  19  20
ENDBRANCH   1  19
TORSDOF 12
ENDMDL
MODEL 4
REMARK VINA RESULT:     -10.8      3.773      5.048
REMARK  Name = 10430040
REMARK  12 active torsions:
REMARK  status: ('A' for Active; 'I' for Inactive)
REMARK    1  A    between atoms: C_1  and  N_3
REMARK    2  A    between atoms: C_1  and  C_12
REMARK    3  A    between atoms: C_1  and  C_19
REMARK    4  A    between atoms: C_4  and  C_6
REMARK    5  A    between atoms: C_6  and  C_7
REMARK    6  A    between atoms: C_7  and  C_9
REMARK    7  A    between atoms: C_9  and  O_10
REMARK    8  A    between atoms: C_12  and  C_13
REMARK    9  A    between atoms: C_13  and  C_16
REMARK   10  A    between atoms: C_16  and  O_17
REMARK   11  A    between atoms: C_19  and  C_20
REMARK   12  A    between atoms: C_23  and  C_26
REMARK                            x       y       z     vdW  Elec       q    Type
REMARK                         _______ _______ _______ _____ _____    ______ ____
ROOT
ATOM      1  C   UNL     1      35.438 -23.931 -14.998  0.00  0.00    +0.076 C 
ENDROOT
BRANCH   1   3
ATOM      2  O   UNL     1      37.362 -22.195 -13.712  0.00  0.00    -0.275 OA
ATOM      3  N   UNL     1      35.439 -23.495 -13.615  0.00  0.00    -0.306 N 
ATOM      4  C   UNL     1      36.409 -22.658 -13.091  0.00  0.00    +0.223 C 
ATOM      5  H   UNL     1      34.717 -23.807 -13.023  0.00  0.00    +0.149 HD
BRANCH   4   6
ATOM      6  C   UNL     1      36.157 -22.371 -11.622  0.00  0.00    +0.097 C 
BRANCH   6   7
ATOM      7  C   UNL     1      36.480 -23.566 -10.730  0.00  0.00    +0.119 C 
BRANCH   7   9
ATOM      8  O   UNL     1      34.946 -24.336  -9.005  0.00  0.00    -0.250 OA
ATOM      9  C   UNL     1      35.231 -24.221 -10.189  0.00  0.00    +0.314 C 
BRANCH   9  10
ATOM     10  O   UNL     1      34.436 -24.679 -11.192  0.00  0.00    -0.480 OA
ATOM     11  H   UNL     1      34.796 -25.223 -11.864  0.00  0.00    +0.295 HD
ENDBRANCH   9  10
ENDBRANCH   7   9
ENDBRANCH   6   7
ENDBRANCH   4   6
ENDBRANCH   1   3
BRANCH   1  12
ATOM     12  C   UNL     1      35.659 -25.458 -15.031  0.00  0.00    +0.031 C 
BRANCH  12  13
ATOM     13  C   UNL     1      37.100 -25.915 -14.741  0.00  0.00    +0.101 C 
ATOM     14  C   UNL     1      38.105 -24.919 -15.317  0.00  0.00    +0.012 C 
BRANCH  13  16
ATOM     15  O   UNL     1      38.412 -25.760 -12.695  0.00  0.00    -0.250 OA
ATOM     16  C   UNL     1      37.359 -26.044 -13.250  0.00  0.00    +0.313 C 
BRANCH  16  17
ATOM     17  O   UNL     1      36.288 -26.547 -12.583  0.00  0.00    -0.480 OA
ATOM     18  H   UNL     1      35.423 -26.409 -12.914  0.00  0.00    +0.295 HD
ENDBRANCH  16  17
ENDBRANCH  13  16
ENDBRANCH  12  13
ENDBRANCH   1  12
BRANCH   1  19
ATOM     19  C   UNL     1      34.133 -23.504 -15.692  0.00  0.00    +0.046 C 
BRANCH  19  20
ATOM     20  C   UNL     1      34.363 -22.582 -16.867  0.00  0.00    -0.021 C 
ATOM     21  C   UNL     1      35.604 -21.965 -17.038  0.00  0.00    -0.004 C 
ATOM     22  C   UNL     1      33.336 -22.346 -17.782  0.00  0.00    -0.004 C 
ATOM     23  C   UNL     1      34.789 -20.879 -19.037  0.00  0.00    -0.000 C 
ATOM     24  C   UNL     1      35.816 -21.115 -18.122  0.00  0.00    -0.000 C 
ATOM     25  C   UNL     1      33.549 -21.496 -18.866  0.00  0.00    -0.000 C 
BRANCH  23  26
ATOM     26  C   UNL     1      35.009 -19.997 -20.161  0.00  0.00    -0.000 C 
ATOM     27  C   UNL     1      33.995 -19.793 -21.096  0.00  0.00    -0.000 C 
ATOM     28  C   UNL     1      36.236 -19.349 -20.310  0.00  0.00    -0.000 C 
ATOM     29  C   UNL     1      34.206 -18.941 -22.181  0.00  0.00    +0.000 C 
ATOM     30  C   UNL     1      36.447 -18.497 -21.394  0.00  0.00    +0.000 C 
ATOM     31  C   UNL     1      35.432 -18.294 -22.330  0.00  0.00    +0.000 C 
ENDBRANCH  23  26
ENDBRANCH  19  20
ENDBRANCH   1  19
TORSDOF 12
ENDMDL
MODEL 5
REMARK VINA RESULT:     -10.3      2.214      5.489
REMARK  Name = 10430040
REMARK  12 active torsions:
REMARK  status: ('A' for Active; 'I' for Inactive)
REMARK    1  A    between atoms: C_1  and  N_3
REMARK    2  A    between atoms: C_1  and  C_12
REMARK    3  A    between atoms: C_1  and  C_19
REMARK    4  A    between atoms: C_4  and  C_6
REMARK    5  A    between atoms: C_6  and  C_7
REMARK    6  A    between atoms: C_7  and  C_9
REMARK    7  A    between atoms: C_9  and  O_10
REMARK    8  A    between atoms: C_12  and  C_13
REMARK    9  A    between atoms: C_13  and  C_16
REMARK   10  A    between atoms: C_16  and  O_17
REMARK   11  A    between atoms: C_19  and  C_20
REMARK   12  A    between atoms: C_23  and  C_26
REMARK                            x       y       z     vdW  Elec       q    Type
REMARK                         _______ _______ _______ _____ _____    ______ ____
ROOT
ATOM      1  C   UNL     1      32.867 -23.133 -15.545  0.00  0.00    +0.076 C 
ENDROOT
BRANCH   1   3
ATOM      2  O   UNL     1      35.119 -24.888 -15.076  0.00  0.00    -0.275 OA
ATOM      3  N   UNL     1      34.238 -22.747 -15.276  0.00  0.00    -0.306 N 
ATOM      4  C   UNL     1      35.252 -23.667 -15.065  0.00  0.00    +0.223 C 
ATOM      5  H   UNL     1      34.460 -21.788 -15.245  0.00  0.00    +0.149 HD
BRANCH   4   6
ATOM      6  C   UNL     1      36.579 -22.978 -14.808  0.00  0.00    +0.097 C 
BRANCH   6   7
ATOM      7  C   UNL     1      37.459 -23.752 -13.831  0.00  0.00    +0.119 C 
BRANCH   7   9
ATOM      8  O   UNL     1      39.732 -24.097 -14.629  0.00  0.00    -0.250 OA
ATOM      9  C   UNL     1      38.576 -24.486 -14.535  0.00  0.00    +0.314 C 
BRANCH   9  10
ATOM     10  O   UNL     1      38.142 -25.659 -15.066  0.00  0.00    -0.480 OA
ATOM     11  H   UNL     1      37.410 -26.103 -14.686  0.00  0.00    +0.295 HD
ENDBRANCH   9  10
ENDBRANCH   7   9
ENDBRANCH   6   7
ENDBRANCH   4   6
ENDBRANCH   1   3
BRANCH   1  12
ATOM     12  C   UNL     1      31.941 -21.969 -15.135  0.00  0.00    +0.031 C 
BRANCH  12  13
ATOM     13  C   UNL     1      30.755 -22.364 -14.236  0.00  0.00    +0.101 C 
ATOM     14  C   UNL     1      29.723 -23.162 -15.029  0.00  0.00    +0.012 C 
BRANCH  13  16
ATOM     15  O   UNL     1      30.617 -24.198 -12.639  0.00  0.00    -0.250 OA
ATOM     16  C   UNL     1      31.204 -23.207 -13.054  0.00  0.00    +0.313 C 
BRANCH  16  17
ATOM     17  O   UNL     1      32.331 -22.722 -12.473  0.00  0.00    -0.480 OA
ATOM     18  H   UNL     1      32.596 -21.837 -12.631  0.00  0.00    +0.295 HD
ENDBRANCH  16  17
ENDBRANCH  13  16
ENDBRANCH  12  13
ENDBRANCH   1  12
BRANCH   1  19
ATOM     19  C   UNL     1      32.703 -23.532 -17.022  0.00  0.00    +0.046 C 
BRANCH  19  20
ATOM     20  C   UNL     1      33.226 -22.486 -17.978  0.00  0.00    -0.021 C 
ATOM     21  C   UNL     1      32.335 -21.653 -18.658  0.00  0.00    -0.004 C 
ATOM     22  C   UNL     1      34.600 -22.352 -18.183  0.00  0.00    -0.004 C 
ATOM     23  C   UNL     1      34.192 -20.553 -19.744  0.00  0.00    -0.000 C 
ATOM     24  C   UNL     1      32.819 -20.688 -19.540  0.00  0.00    -0.000 C 
ATOM     25  C   UNL     1      35.083 -21.386 -19.065  0.00  0.00    -0.000 C 
BRANCH  23  26
ATOM     26  C   UNL     1      34.693 -19.552 -20.659  0.00  0.00    -0.000 C 
ATOM     27  C   UNL     1      33.871 -19.060 -21.673  0.00  0.00    -0.000 C 
ATOM     28  C   UNL     1      35.998 -19.077 -20.527  0.00  0.00    -0.000 C 
ATOM     29  C   UNL     1      34.354 -18.093 -22.555  0.00  0.00    +0.000 C 
ATOM     30  C   UNL     1      36.481 -18.110 -21.409  0.00  0.00    +0.000 C 
ATOM     31  C   UNL     1      35.659 -17.618 -22.423  0.00  0.00    +0.000 C 
ENDBRANCH  23  26
ENDBRANCH  19  20
ENDBRANCH   1  19
TORSDOF 12
ENDMDL
MODEL 6
REMARK VINA RESULT:     -10.2      1.802      2.609
REMARK  Name = 10430040
REMARK  12 active torsions:
REMARK  status: ('A' for Active; 'I' for Inactive)
REMARK    1  A    between atoms: C_1  and  N_3
REMARK    2  A    between atoms: C_1  and  C_12
REMARK    3  A    between atoms: C_1  and  C_19
REMARK    4  A    between atoms: C_4  and  C_6
REMARK    5  A    between atoms: C_6  and  C_7
REMARK    6  A    between atoms: C_7  and  C_9
REMARK    7  A    between atoms: C_9  and  O_10
REMARK    8  A    between atoms: C_12  and  C_13
REMARK    9  A    between atoms: C_13  and  C_16
REMARK   10  A    between atoms: C_16  and  O_17
REMARK   11  A    between atoms: C_19  and  C_20
REMARK   12  A    between atoms: C_23  and  C_26
REMARK                            x       y       z     vdW  Elec       q    Type
REMARK                         _______ _______ _______ _____ _____    ______ ____
ROOT
ATOM      1  C   UNL     1      33.527 -23.335 -13.959  0.00  0.00    +0.076 C 
ENDROOT
BRANCH   1   3
ATOM      2  O   UNL     1      31.042 -21.878 -14.223  0.00  0.00    -0.275 OA
ATOM      3  N   UNL     1      32.186 -23.886 -13.983  0.00  0.00    -0.306 N 
ATOM      4  C   UNL     1      31.053 -23.101 -14.115  0.00  0.00    +0.223 C 
ATOM      5  H   UNL     1      32.076 -24.861 -13.904  0.00  0.00    +0.149 HD
BRANCH   4   6
ATOM      6  C   UNL     1      29.791 -23.946 -14.107  0.00  0.00    +0.097 C 
BRANCH   6   7
ATOM      7  C   UNL     1      29.180 -24.094 -15.497  0.00  0.00    +0.119 C 
BRANCH   7   9
ATOM      8  O   UNL     1      27.157 -22.754 -15.321  0.00  0.00    -0.250 OA
ATOM      9  C   UNL     1      28.251 -22.951 -15.831  0.00  0.00    +0.314 C 
BRANCH   9  10
ATOM     10  O   UNL     1      28.782 -22.143 -16.786  0.00  0.00    -0.480 OA
ATOM     11  H   UNL     1      29.595 -21.704 -16.630  0.00  0.00    +0.295 HD
ENDBRANCH   9  10
ENDBRANCH   7   9
ENDBRANCH   6   7
ENDBRANCH   4   6
ENDBRANCH   1   3
BRANCH   1  12
ATOM     12  C   UNL     1      34.140 -23.598 -12.568  0.00  0.00    +0.031 C 
BRANCH  12  13
ATOM     13  C   UNL     1      35.651 -23.895 -12.566  0.00  0.00    +0.101 C 
ATOM     14  C   UNL     1      36.450 -22.611 -12.781  0.00  0.00    +0.012 C 
BRANCH  13  16
ATOM     15  O   UNL     1      36.105 -23.947 -10.174  0.00  0.00    -0.250 OA
ATOM     16  C   UNL     1      36.098 -24.520 -11.256  0.00  0.00    +0.313 C 
BRANCH  16  17
ATOM     17  O   UNL     1      36.527 -25.799 -11.414  0.00  0.00    -0.480 OA
ATOM     18  H   UNL     1      36.508 -26.392 -10.690  0.00  0.00    +0.295 HD
ENDBRANCH  16  17
ENDBRANCH  13  16
ENDBRANCH  12  13
ENDBRANCH   1  12
BRANCH   1  19
ATOM     19  C   UNL     1      34.370 -23.929 -15.102  0.00  0.00    +0.046 C 
BRANCH  19  20
ATOM     20  C   UNL     1      34.504 -22.996 -16.283  0.00  0.00    -0.021 C 
ATOM     21  C   UNL     1      35.688 -22.283 -16.478  0.00  0.00    -0.004 C 
ATOM     22  C   UNL     1      33.445 -22.847 -17.179  0.00  0.00    -0.004 C 
ATOM     23  C   UNL     1      34.753 -21.273 -18.464  0.00  0.00    -0.000 C 
ATOM     24  C   UNL     1      35.812 -21.423 -17.568  0.00  0.00    -0.000 C 
ATOM     25  C   UNL     1      33.569 -21.987 -18.270  0.00  0.00    -0.000 C 
BRANCH  23  26
ATOM     26  C   UNL     1      34.881 -20.381 -19.594  0.00  0.00    -0.000 C 
ATOM     27  C   UNL     1      33.769 -20.094 -20.386  0.00  0.00    -0.000 C 
ATOM     28  C   UNL     1      36.117 -19.806 -19.893  0.00  0.00    -0.000 C 
ATOM     29  C   UNL     1      33.892 -19.232 -21.476  0.00  0.00    +0.000 C 
ATOM     30  C   UNL     1      36.240 -18.944 -20.983  0.00  0.00    +0.000 C 
ATOM     31  C   UNL     1      35.128 -18.658 -21.775  0.00  0.00    +0.000 C 
ENDBRANCH  23  26
ENDBRANCH  19  20
ENDBRANCH   1  19
TORSDOF 12
ENDMDL
MODEL 7
REMARK VINA RESULT:     -10.2      4.435      7.964
REMARK  Name = 10430040
REMARK  12 active torsions:
REMARK  status: ('A' for Active; 'I' for Inactive)
REMARK    1  A    between atoms: C_1  and  N_3
REMARK    2  A    between atoms: C_1  and  C_12
REMARK    3  A    between atoms: C_1  and  C_19
REMARK    4  A    between atoms: C_4  and  C_6
REMARK    5  A    between atoms: C_6  and  C_7
REMARK    6  A    between atoms: C_7  and  C_9
REMARK    7  A    between atoms: C_9  and  O_10
REMARK    8  A    between atoms: C_12  and  C_13
REMARK    9  A    between atoms: C_13  and  C_16
REMARK   10  A    between atoms: C_16  and  O_17
REMARK   11  A    between atoms: C_19  and  C_20
REMARK   12  A    between atoms: C_23  and  C_26
REMARK                            x       y       z     vdW  Elec       q    Type
REMARK                         _______ _______ _______ _____ _____    ______ ____
ROOT
ATOM      1  C   UNL     1      34.835 -18.811 -22.109  0.00  0.00    +0.076 C 
ENDROOT
BRANCH   1   3
ATOM      2  O   UNL     1      36.352 -19.590 -19.772  0.00  0.00    -0.275 OA
ATOM      3  N   UNL     1      34.479 -19.817 -21.128  0.00  0.00    -0.306 N 
ATOM      4  C   UNL     1      35.276 -20.120 -20.037  0.00  0.00    +0.223 C 
ATOM      5  H   UNL     1      33.632 -20.307 -21.242  0.00  0.00    +0.149 HD
BRANCH   4   6
ATOM      6  C   UNL     1      34.655 -21.210 -19.183  0.00  0.00    +0.097 C 
BRANCH   6   7
ATOM      7  C   UNL     1      33.133 -21.127 -19.147  0.00  0.00    +0.119 C 
BRANCH   7   9
ATOM      8  O   UNL     1      31.380 -21.977 -17.689  0.00  0.00    -0.250 OA
ATOM      9  C   UNL     1      32.544 -22.000 -18.064  0.00  0.00    +0.314 C 
BRANCH   9  10
ATOM     10  O   UNL     1      33.476 -22.839 -17.541  0.00  0.00    -0.480 OA
ATOM     11  H   UNL     1      33.291 -23.314 -16.756  0.00  0.00    +0.295 HD
ENDBRANCH   9  10
ENDBRANCH   7   9
ENDBRANCH   6   7
ENDBRANCH   4   6
ENDBRANCH   1   3
BRANCH   1  12
ATOM     12  C   UNL     1      33.554 -18.371 -22.847  0.00  0.00    +0.031 C 
BRANCH  12  13
ATOM     13  C   UNL     1      33.646 -18.388 -24.384  0.00  0.00    +0.101 C 
ATOM     14  C   UNL     1      33.794 -19.820 -24.896  0.00  0.00    +0.012 C 
BRANCH  13  16
ATOM     15  O   UNL     1      31.412 -18.401 -25.352  0.00  0.00    -0.250 OA
ATOM     16  C   UNL     1      32.413 -17.777 -25.027  0.00  0.00    +0.313 C 
BRANCH  16  17
ATOM     17  O   UNL     1      32.550 -16.442 -25.237  0.00  0.00    -0.480 OA
ATOM     18  H   UNL     1      32.053 -15.834 -24.725  0.00  0.00    +0.295 HD
ENDBRANCH  16  17
ENDBRANCH  13  16
ENDBRANCH  12  13
ENDBRANCH   1  12
BRANCH   1  19
ATOM     19  C   UNL     1      35.564 -17.637 -21.431  0.00  0.00    +0.046 C 
BRANCH  19  20
ATOM     20  C   UNL     1      34.821 -16.327 -21.560  0.00  0.00    -0.021 C 
ATOM     21  C   UNL     1      34.792 -15.659 -22.785  0.00  0.00    -0.004 C 
ATOM     22  C   UNL     1      34.165 -15.785 -20.454  0.00  0.00    -0.004 C 
ATOM     23  C   UNL     1      33.450 -13.909 -21.798  0.00  0.00    -0.000 C 
ATOM     24  C   UNL     1      34.106 -14.451 -22.903  0.00  0.00    -0.000 C 
ATOM     25  C   UNL     1      33.479 -14.577 -20.573  0.00  0.00    -0.000 C 
BRANCH  23  26
ATOM     26  C   UNL     1      32.739 -12.656 -21.921  0.00  0.00    -0.000 C 
ATOM     27  C   UNL     1      31.799 -12.290 -20.958  0.00  0.00    -0.000 C 
ATOM     28  C   UNL     1      32.995 -11.811 -23.001  0.00  0.00    -0.000 C 
ATOM     29  C   UNL     1      31.113 -11.081 -21.075  0.00  0.00    +0.000 C 
ATOM     30  C   UNL     1      32.310 -10.602 -23.119  0.00  0.00    +0.000 C 
ATOM     31  C   UNL     1      31.368 -10.237 -22.156  0.00  0.00    +0.000 C 
ENDBRANCH  23  26
ENDBRANCH  19  20
ENDBRANCH   1  19
TORSDOF 12
ENDMDL
MODEL 8
REMARK VINA RESULT:     -10.1      7.886     11.879
REMARK  Name = 10430040
REMARK  12 active torsions:
REMARK  status: ('A' for Active; 'I' for Inactive)
REMARK    1  A    between atoms: C_1  and  N_3
REMARK    2  A    between atoms: C_1  and  C_12
REMARK    3  A    between atoms: C_1  and  C_19
REMARK    4  A    between atoms: C_4  and  C_6
REMARK    5  A    between atoms: C_6  and  C_7
REMARK    6  A    between atoms: C_7  and  C_9
REMARK    7  A    between atoms: C_9  and  O_10
REMARK    8  A    between atoms: C_12  and  C_13
REMARK    9  A    between atoms: C_13  and  C_16
REMARK   10  A    between atoms: C_16  and  O_17
REMARK   11  A    between atoms: C_19  and  C_20
REMARK   12  A    between atoms: C_23  and  C_26
REMARK                            x       y       z     vdW  Elec       q    Type
REMARK                         _______ _______ _______ _____ _____    ______ ____
ROOT
ATOM      1  C   UNL     1      33.528 -13.414 -22.296  0.00  0.00    +0.076 C 
ENDROOT
BRANCH   1   3
ATOM      2  O   UNL     1      34.069 -14.817 -19.824  0.00  0.00    -0.275 OA
ATOM      3  N   UNL     1      33.791 -14.830 -22.131  0.00  0.00    -0.306 N 
ATOM      4  C   UNL     1      34.040 -15.411 -20.899  0.00  0.00    +0.223 C 
ATOM      5  H   UNL     1      33.792 -15.405 -22.930  0.00  0.00    +0.149 HD
BRANCH   4   6
ATOM      6  C   UNL     1      34.281 -16.903 -21.029  0.00  0.00    +0.097 C 
BRANCH   6   7
ATOM      7  C   UNL     1      35.412 -17.229 -22.000  0.00  0.00    +0.119 C 
BRANCH   7   9
ATOM      8  O   UNL     1      36.399 -18.624 -20.268  0.00  0.00    -0.250 OA
ATOM      9  C   UNL     1      36.491 -18.064 -21.351  0.00  0.00    +0.314 C 
BRANCH   9  10
ATOM     10  O   UNL     1      37.604 -18.127 -22.128  0.00  0.00    -0.480 OA
ATOM     11  H   UNL     1      37.756 -18.877 -22.669  0.00  0.00    +0.295 HD
ENDBRANCH   9  10
ENDBRANCH   7   9
ENDBRANCH   6   7
ENDBRANCH   4   6
ENDBRANCH   1   3
BRANCH   1  12
ATOM     12  C   UNL     1      33.708 -13.052 -23.784  0.00  0.00    +0.031 C 
BRANCH  12  13
ATOM     13  C   UNL     1      32.830 -13.854 -24.762  0.00  0.00    +0.101 C 
ATOM     14  C   UNL     1      32.718 -13.127 -26.101  0.00  0.00    +0.012 C 
BRANCH  13  16
ATOM     15  O   UNL     1      34.584 -15.490 -25.185  0.00  0.00    -0.250 OA
ATOM     16  C   UNL     1      33.397 -15.239 -25.018  0.00  0.00    +0.313 C 
BRANCH  16  17
ATOM     17  O   UNL     1      32.429 -16.190 -25.074  0.00  0.00    -0.480 OA
ATOM     18  H   UNL     1      32.352 -16.821 -24.386  0.00  0.00    +0.295 HD
ENDBRANCH  16  17
ENDBRANCH  13  16
ENDBRANCH  12  13
ENDBRANCH   1  12
BRANCH   1  19
ATOM     19  C   UNL     1      32.127 -13.064 -21.764  0.00  0.00    +0.046 C 
BRANCH  19  20
ATOM     20  C   UNL     1      31.878 -11.576 -21.690  0.00  0.00    -0.021 C 
ATOM     21  C   UNL     1      31.410 -11.004 -20.506  0.00  0.00    -0.004 C 
ATOM     22  C   UNL     1      32.113 -10.772 -22.807  0.00  0.00    -0.004 C 
ATOM     23  C   UNL     1      31.416  -8.827 -21.554  0.00  0.00    -0.000 C 
ATOM     24  C   UNL     1      31.181  -9.630 -20.438  0.00  0.00    -0.000 C 
ATOM     25  C   UNL     1      31.884  -9.398 -22.738  0.00  0.00    -0.000 C 
BRANCH  23  26
ATOM     26  C   UNL     1      31.178  -7.403 -21.484  0.00  0.00    -0.000 C 
ATOM     27  C   UNL     1      30.509  -6.755 -22.523  0.00  0.00    -0.000 C 
ATOM     28  C   UNL     1      31.615  -6.676 -20.376  0.00  0.00    -0.000 C 
ATOM     29  C   UNL     1      30.278  -5.381 -22.455  0.00  0.00    +0.000 C 
ATOM     30  C   UNL     1      31.384  -5.301 -20.308  0.00  0.00    +0.000 C 
ATOM     31  C   UNL     1      30.716  -4.654 -21.348  0.00  0.00    +0.000 C 
ENDBRANCH  23  26
ENDBRANCH  19  20
ENDBRANCH   1  19
TORSDOF 12
ENDMDL
MODEL 9
REMARK VINA RESULT:     -10.1      2.750      6.221
REMARK  Name = 10430040
REMARK  12 active torsions:
REMARK  status: ('A' for Active; 'I' for Inactive)
REMARK    1  A    between atoms: C_1  and  N_3
REMARK    2  A    between atoms: C_1  and  C_12
REMARK    3  A    between atoms: C_1  and  C_19
REMARK    4  A    between atoms: C_4  and  C_6
REMARK    5  A    between atoms: C_6  and  C_7
REMARK    6  A    between atoms: C_7  and  C_9
REMARK    7  A    between atoms: C_9  and  O_10
REMARK    8  A    between atoms: C_12  and  C_13
REMARK    9  A    between atoms: C_13  and  C_16
REMARK   10  A    between atoms: C_16  and  O_17
REMARK   11  A    between atoms: C_19  and  C_20
REMARK   12  A    between atoms: C_23  and  C_26
REMARK                            x       y       z     vdW  Elec       q    Type
REMARK                         _______ _______ _______ _____ _____    ______ ____
ROOT
ATOM      1  C   UNL     1      35.213 -24.095 -15.620  0.00  0.00    +0.076 C 
ENDROOT
BRANCH   1   3
ATOM      2  O   UNL     1      36.219 -23.946 -12.912  0.00  0.00    -0.275 OA
ATOM      3  N   UNL     1      36.270 -24.894 -15.033  0.00  0.00    -0.306 N 
ATOM      4  C   UNL     1      36.683 -24.748 -13.719  0.00  0.00    +0.223 C 
ATOM      5  H   UNL     1      36.714 -25.572 -15.592  0.00  0.00    +0.149 HD
BRANCH   4   6
ATOM      6  C   UNL     1      37.803 -25.713 -13.380  0.00  0.00    +0.097 C 
BRANCH   6   7
ATOM      7  C   UNL     1      39.174 -25.045 -13.398  0.00  0.00    +0.119 C 
BRANCH   7   9
ATOM      8  O   UNL     1      41.007 -26.591 -13.811  0.00  0.00    -0.250 OA
ATOM      9  C   UNL     1      40.167 -25.814 -14.240  0.00  0.00    +0.314 C 
BRANCH   9  10
ATOM     10  O   UNL     1      40.015 -25.538 -15.561  0.00  0.00    -0.480 OA
ATOM     11  H   UNL     1      40.179 -26.202 -16.201  0.00  0.00    +0.295 HD
ENDBRANCH   9  10
ENDBRANCH   7   9
ENDBRANCH   6   7
ENDBRANCH   4   6
ENDBRANCH   1   3
BRANCH   1  12
ATOM     12  C   UNL     1      33.872 -24.504 -14.975  0.00  0.00    +0.031 C 
BRANCH  12  13
ATOM     13  C   UNL     1      33.030 -23.338 -14.426  0.00  0.00    +0.101 C 
ATOM     14  C   UNL     1      31.765 -23.151 -15.261  0.00  0.00    +0.012 C 
BRANCH  13  16
ATOM     15  O   UNL     1      31.568 -24.099 -12.633  0.00  0.00    -0.250 OA
ATOM     16  C   UNL     1      32.617 -23.575 -12.983  0.00  0.00    +0.313 C 
BRANCH  16  17
ATOM     17  O   UNL     1      33.538 -23.109 -12.100  0.00  0.00    -0.480 OA
ATOM     18  H   UNL     1      33.894 -22.249 -12.205  0.00  0.00    +0.295 HD
ENDBRANCH  16  17
ENDBRANCH  13  16
ENDBRANCH  12  13
ENDBRANCH   1  12
BRANCH   1  19
ATOM     19  C   UNL     1      35.519 -22.596 -15.454  0.00  0.00    +0.046 C 
BRANCH  19  20
ATOM     20  C   UNL     1      35.467 -21.834 -16.759  0.00  0.00    -0.021 C 
ATOM     21  C   UNL     1      34.378 -21.995 -17.617  0.00  0.00    -0.004 C 
ATOM     22  C   UNL     1      36.507 -20.970 -17.105  0.00  0.00    -0.004 C 
ATOM     23  C   UNL     1      35.369 -20.428 -19.167  0.00  0.00    -0.000 C 
ATOM     24  C   UNL     1      34.330 -21.292 -18.820  0.00  0.00    -0.000 C 
ATOM     25  C   UNL     1      36.457 -20.267 -18.308  0.00  0.00    -0.000 C 
BRANCH  23  26
ATOM     26  C   UNL     1      35.319 -19.699 -20.414  0.00  0.00    -0.000 C 
ATOM     27  C   UNL     1      36.405 -18.918 -20.810  0.00  0.00    -0.000 C 
ATOM     28  C   UNL     1      34.185 -19.778 -21.224  0.00  0.00    -0.000 C 
ATOM     29  C   UNL     1      36.357 -18.215 -22.014  0.00  0.00    +0.000 C 
ATOM     30  C   UNL     1      34.137 -19.075 -22.428  0.00  0.00    +0.000 C 
ATOM     31  C   UNL     1      35.223 -18.293 -22.823  0.00  0.00    +0.000 C 
ENDBRANCH  23  26
ENDBRANCH  19  20
ENDBRANCH   1  19
TORSDOF 12
ENDMDL
