MODEL 1
REMARK VINA RESULT:     -12.3      0.000      0.000
REMARK  Name = 656913
REMARK  7 active torsions:
REMARK  status: ('A' for Active; 'I' for Inactive)
REMARK    1  A    between atoms: N_3  and  C_22
REMARK    2  A    between atoms: N_4  and  C_11
REMARK    3  A    between atoms: C_11  and  C_14
REMARK    4  A    between atoms: C_14  and  C_17
REMARK    5  A    between atoms: C_22  and  C_25
REMARK    6  A    between atoms: N_24  and  C_27
REMARK    7  A    between atoms: C_27  and  C_29
REMARK                            x       y       z     vdW  Elec       q    Type
REMARK                         _______ _______ _______ _____ _____    ______ ____
ROOT
ATOM      1 CL   UNL     1      34.176 -19.011 -24.627  0.00  0.00    -0.064 Cl
ATOM      2  O   UNL     1      34.931 -16.432 -20.381  0.00  0.00    -0.266 OA
ATOM      3  N   UNL     1      34.593 -17.666 -22.346  0.00  0.00    -0.233 N 
ATOM      4  N   UNL     1      34.017 -14.130 -21.438  0.00  0.00    -0.310 N 
ATOM      5  N   UNL     1      33.638 -15.263 -23.455  0.00  0.00    -0.223 NA
ATOM      6  C   UNL     1      34.041 -15.260 -22.216  0.00  0.00    +0.183 C 
ATOM      7  C   UNL     1      34.571 -16.522 -21.549  0.00  0.00    +0.285 C 
ATOM      8  C   UNL     1      34.147 -17.593 -23.651  0.00  0.00    +0.133 C 
ATOM      9  C   UNL     1      33.699 -16.436 -24.149  0.00  0.00    +0.127 C 
ATOM     10  H   UNL     1      34.335 -14.185 -20.508  0.00  0.00    +0.149 HD
ENDROOT
BRANCH   4  11
ATOM     11  C   UNL     1      33.546 -12.874 -21.932  0.00  0.00    +0.162 C 
BRANCH  11  14
ATOM     12  F   UNL     1      31.747 -13.584 -20.601  0.00  0.00    -0.196 F 
ATOM     13  F   UNL     1      31.326 -13.076 -22.668  0.00  0.00    -0.196 F 
ATOM     14  C   UNL     1      32.068 -12.694 -21.587  0.00  0.00    +0.317 C 
BRANCH  14  17
ATOM     15  O   UNL     1      32.135 -10.589 -23.364  0.00  0.00    -0.163 OA
ATOM     16  N   UNL     1      31.845 -10.306 -22.154  0.00  0.00    -0.128 N 
ATOM     17  C   UNL     1      31.781 -11.270 -21.179  0.00  0.00    +0.142 C 
ATOM     18  C   UNL     1      31.466 -10.976 -19.866  0.00  0.00    +0.022 C 
ATOM     19  C   UNL     1      31.585  -8.997 -21.799  0.00  0.00    +0.121 C 
ATOM     20  C   UNL     1      31.207  -9.655 -19.519  0.00  0.00    +0.003 C 
ATOM     21  C   UNL     1      31.265  -8.658 -20.488  0.00  0.00    +0.022 C 
ENDBRANCH  14  17
ENDBRANCH  11  14
ENDBRANCH   4  11
BRANCH   3  22
ATOM     22  C   UNL     1      35.089 -18.915 -21.777  0.00  0.00    +0.184 C 
BRANCH  22  25
ATOM     23  O   UNL     1      32.787 -19.317 -21.160  0.00  0.00    -0.273 OA
ATOM     24  N   UNL     1      34.469 -20.547 -20.130  0.00  0.00    -0.299 N 
ATOM     25  C   UNL     1      33.974 -19.605 -21.020  0.00  0.00    +0.243 C 
ATOM     26  H   UNL     1      35.442 -20.697 -20.102  0.00  0.00    +0.150 HD
BRANCH  24  27
ATOM     27  C   UNL     1      33.628 -21.320 -19.243  0.00  0.00    +0.119 C 
BRANCH  27  29
ATOM     28  F   UNL     1      32.389 -22.752 -17.146  0.00  0.00    -0.204 F 
ATOM     29  C   UNL     1      34.357 -21.734 -17.998  0.00  0.00    +0.025 C 
ATOM     30  C   UNL     1      33.684 -22.438 -17.005  0.00  0.00    +0.138 C 
ATOM     31  C   UNL     1      35.700 -21.408 -17.850  0.00  0.00    -0.000 C 
ATOM     32  C   UNL     1      34.364 -22.821 -15.850  0.00  0.00    +0.029 C 
ATOM     33  C   UNL     1      36.380 -21.791 -16.694  0.00  0.00    -0.000 C 
ATOM     34  C   UNL     1      35.712 -22.497 -15.694  0.00  0.00    +0.002 C 
ENDBRANCH  27  29
ENDBRANCH  24  27
ENDBRANCH  22  25
ENDBRANCH   3  22
TORSDOF 7
ENDMDL
MODEL 2
REMARK VINA RESULT:     -12.2      2.834     10.296
REMARK  Name = 656913
REMARK  7 active torsions:
REMARK  status: ('A' for Active; 'I' for Inactive)
REMARK    1  A    between atoms: N_3  and  C_22
REMARK    2  A    between atoms: N_4  and  C_11
REMARK    3  A    between atoms: C_11  and  C_14
REMARK    4  A    between atoms: C_14  and  C_17
REMARK    5  A    between atoms: C_22  and  C_25
REMARK    6  A    between atoms: N_24  and  C_27
REMARK    7  A    between atoms: C_27  and  C_29
REMARK                            x       y       z     vdW  Elec       q    Type
REMARK                         _______ _______ _______ _____ _____    ______ ____
ROOT
ATOM      1 CL   UNL     1      32.601 -12.634 -26.099  0.00  0.00    -0.064 Cl
ATOM      2  O   UNL     1      34.328 -13.869 -21.544  0.00  0.00    -0.266 OA
ATOM      3  N   UNL     1      33.521 -13.256 -23.659  0.00  0.00    -0.233 N 
ATOM      4  N   UNL     1      34.406 -16.499 -22.120  0.00  0.00    -0.310 N 
ATOM      5  N   UNL     1      33.601 -16.003 -24.265  0.00  0.00    -0.223 NA
ATOM      6  C   UNL     1      33.976 -15.616 -23.079  0.00  0.00    +0.183 C 
ATOM      7  C   UNL     1      33.960 -14.147 -22.679  0.00  0.00    +0.285 C 
ATOM      8  C   UNL     1      33.140 -13.741 -24.895  0.00  0.00    +0.133 C 
ATOM      9  C   UNL     1      33.189 -15.052 -25.152  0.00  0.00    +0.127 C 
ATOM     10  H   UNL     1      34.678 -16.150 -21.240  0.00  0.00    +0.149 HD
ENDROOT
BRANCH   4  11
ATOM     11  C   UNL     1      34.473 -17.907 -22.355  0.00  0.00    +0.162 C 
BRANCH  11  14
ATOM     12  F   UNL     1      35.771 -17.618 -20.419  0.00  0.00    -0.196 F 
ATOM     13  F   UNL     1      36.374 -19.171 -21.809  0.00  0.00    -0.196 F 
ATOM     14  C   UNL     1      35.276 -18.587 -21.246  0.00  0.00    +0.317 C 
BRANCH  14  17
ATOM     15  O   UNL     1      36.309 -20.342 -19.390  0.00  0.00    -0.163 OA
ATOM     16  N   UNL     1      35.053 -20.408 -19.600  0.00  0.00    -0.128 N 
ATOM     17  C   UNL     1      34.424 -19.586 -20.501  0.00  0.00    +0.142 C 
ATOM     18  C   UNL     1      33.063 -19.646 -20.736  0.00  0.00    +0.022 C 
ATOM     19  C   UNL     1      34.289 -21.328 -18.909  0.00  0.00    +0.121 C 
ATOM     20  C   UNL     1      32.303 -20.576 -20.035  0.00  0.00    +0.003 C 
ATOM     21  C   UNL     1      32.916 -21.422 -19.117  0.00  0.00    +0.022 C 
ENDBRANCH  14  17
ENDBRANCH  11  14
ENDBRANCH   4  11
BRANCH   3  22
ATOM     22  C   UNL     1      33.476 -11.831 -23.350  0.00  0.00    +0.184 C 
BRANCH  22  25
ATOM     23  O   UNL     1      31.405 -12.374 -22.229  0.00  0.00    -0.273 OA
ATOM     24  N   UNL     1      31.993 -10.143 -22.507  0.00  0.00    -0.299 N 
ATOM     25  C   UNL     1      32.187 -11.512 -22.621  0.00  0.00    +0.243 C 
ATOM     26  H   UNL     1      32.690  -9.541 -22.857  0.00  0.00    +0.150 HD
BRANCH  24  27
ATOM     27  C   UNL     1      30.821  -9.556 -21.897  0.00  0.00    +0.119 C 
BRANCH  27  29
ATOM     28  F   UNL     1      31.733  -8.923 -19.298  0.00  0.00    -0.204 F 
ATOM     29  C   UNL     1      31.070  -8.147 -21.442  0.00  0.00    +0.025 C 
ATOM     30  C   UNL     1      31.519  -7.909 -20.148  0.00  0.00    +0.138 C 
ATOM     31  C   UNL     1      30.848  -7.094 -22.321  0.00  0.00    -0.000 C 
ATOM     32  C   UNL     1      31.750  -6.599 -19.729  0.00  0.00    +0.029 C 
ATOM     33  C   UNL     1      31.079  -5.784 -21.901  0.00  0.00    -0.000 C 
ATOM     34  C   UNL     1      31.530  -5.537 -20.605  0.00  0.00    +0.002 C 
ENDBRANCH  27  29
ENDBRANCH  24  27
ENDBRANCH  22  25
ENDBRANCH   3  22
TORSDOF 7
ENDMDL
MODEL 3
REMARK VINA RESULT:     -12.0      5.744      8.633
REMARK  Name = 656913
REMARK  7 active torsions:
REMARK  status: ('A' for Active; 'I' for Inactive)
REMARK    1  A    between atoms: N_3  and  C_22
REMARK    2  A    between atoms: N_4  and  C_11
REMARK    3  A    between atoms: C_11  and  C_14
REMARK    4  A    between atoms: C_14  and  C_17
REMARK    5  A    between atoms: C_22  and  C_25
REMARK    6  A    between atoms: N_24  and  C_27
REMARK    7  A    between atoms: C_27  and  C_29
REMARK                            x       y       z     vdW  Elec       q    Type
REMARK                         _______ _______ _______ _____ _____    ______ ____
ROOT
ATOM      1 CL   UNL     1      29.478 -23.351 -14.460  0.00  0.00    -0.064 Cl
ATOM      2  O   UNL     1      34.215 -23.743 -16.093  0.00  0.00    -0.266 OA
ATOM      3  N   UNL     1      32.012 -23.585 -15.303  0.00  0.00    -0.233 N 
ATOM      4  N   UNL     1      33.794 -22.086 -18.175  0.00  0.00    -0.310 N 
ATOM      5  N   UNL     1      31.569 -21.853 -17.477  0.00  0.00    -0.223 NA
ATOM      6  C   UNL     1      32.757 -22.363 -17.320  0.00  0.00    +0.183 C 
ATOM      7  C   UNL     1      33.072 -23.307 -16.168  0.00  0.00    +0.285 C 
ATOM      8  C   UNL     1      30.780 -23.005 -15.533  0.00  0.00    +0.133 C 
ATOM      9  C   UNL     1      30.601 -22.187 -16.575  0.00  0.00    +0.127 C 
ATOM     10  H   UNL     1      34.672 -22.500 -18.008  0.00  0.00    +0.149 HD
ENDROOT
BRANCH   4  11
ATOM     11  C   UNL     1      33.644 -21.217 -19.299  0.00  0.00    +0.162 C 
BRANCH  11  14
ATOM     12  F   UNL     1      35.696 -21.811 -20.274  0.00  0.00    -0.196 F 
ATOM     13  F   UNL     1      35.730 -20.330 -18.690  0.00  0.00    -0.196 F 
ATOM     14  C   UNL     1      35.013 -20.736 -19.779  0.00  0.00    +0.317 C 
BRANCH  14  17
ATOM     15  O   UNL     1      36.717 -18.574 -19.900  0.00  0.00    -0.163 OA
ATOM     16  N   UNL     1      35.778 -18.610 -20.763  0.00  0.00    -0.128 N 
ATOM     17  C   UNL     1      34.869 -19.637 -20.803  0.00  0.00    +0.142 C 
ATOM     18  C   UNL     1      33.849 -19.689 -21.734  0.00  0.00    +0.022 C 
ATOM     19  C   UNL     1      35.661 -17.595 -21.693  0.00  0.00    +0.121 C 
ATOM     20  C   UNL     1      33.740 -18.662 -22.666  0.00  0.00    +0.003 C 
ATOM     21  C   UNL     1      34.649 -17.610 -22.648  0.00  0.00    +0.022 C 
ENDBRANCH  14  17
ENDBRANCH  11  14
ENDBRANCH   4  11
BRANCH   3  22
ATOM     22  C   UNL     1      32.236 -24.483 -14.176  0.00  0.00    +0.184 C 
BRANCH  22  25
ATOM     23  O   UNL     1      32.903 -22.928 -12.450  0.00  0.00    -0.273 OA
ATOM     24  N   UNL     1      34.479 -24.394 -13.327  0.00  0.00    -0.299 N 
ATOM     25  C   UNL     1      33.210 -23.846 -13.207  0.00  0.00    +0.243 C 
ATOM     26  H   UNL     1      34.612 -25.130 -13.968  0.00  0.00    +0.150 HD
BRANCH  24  27
ATOM     27  C   UNL     1      35.616 -23.941 -12.557  0.00  0.00    +0.119 C 
BRANCH  27  29
ATOM     28  F   UNL     1      37.574 -25.791 -11.703  0.00  0.00    -0.204 F 
ATOM     29  C   UNL     1      36.910 -24.153 -13.288  0.00  0.00    +0.025 C 
ATOM     30  C   UNL     1      37.829 -25.081 -12.811  0.00  0.00    +0.138 C 
ATOM     31  C   UNL     1      37.176 -23.416 -14.436  0.00  0.00    -0.000 C 
ATOM     32  C   UNL     1      39.029 -25.275 -13.492  0.00  0.00    +0.029 C 
ATOM     33  C   UNL     1      38.377 -23.612 -15.117  0.00  0.00    -0.000 C 
ATOM     34  C   UNL     1      39.304 -24.541 -14.646  0.00  0.00    +0.002 C 
ENDBRANCH  27  29
ENDBRANCH  24  27
ENDBRANCH  22  25
ENDBRANCH   3  22
TORSDOF 7
ENDMDL
MODEL 4
REMARK VINA RESULT:     -12.0      3.231     10.872
REMARK  Name = 656913
REMARK  7 active torsions:
REMARK  status: ('A' for Active; 'I' for Inactive)
REMARK    1  A    between atoms: N_3  and  C_22
REMARK    2  A    between atoms: N_4  and  C_11
REMARK    3  A    between atoms: C_11  and  C_14
REMARK    4  A    between atoms: C_14  and  C_17
REMARK    5  A    between atoms: C_22  and  C_25
REMARK    6  A    between atoms: N_24  and  C_27
REMARK    7  A    between atoms: C_27  and  C_29
REMARK                            x       y       z     vdW  Elec       q    Type
REMARK                         _______ _______ _______ _____ _____    ______ ____
ROOT
ATOM      1 CL   UNL     1      31.598 -11.384 -20.165  0.00  0.00    -0.064 Cl
ATOM      2  O   UNL     1      33.240 -14.104 -24.059  0.00  0.00    -0.266 OA
ATOM      3  N   UNL     1      32.459 -12.810 -22.266  0.00  0.00    -0.233 N 
ATOM      4  N   UNL     1      34.409 -15.942 -22.476  0.00  0.00    -0.310 N 
ATOM      5  N   UNL     1      33.680 -14.729 -20.609  0.00  0.00    -0.223 NA
ATOM      6  C   UNL     1      33.756 -14.882 -21.900  0.00  0.00    +0.183 C 
ATOM      7  C   UNL     1      33.121 -13.885 -22.859  0.00  0.00    +0.285 C 
ATOM      8  C   UNL     1      32.419 -12.714 -20.889  0.00  0.00    +0.133 C 
ATOM      9  C   UNL     1      33.008 -13.642 -20.129  0.00  0.00    +0.127 C 
ATOM     10  H   UNL     1      34.436 -16.008 -23.459  0.00  0.00    +0.149 HD
ENDROOT
BRANCH   4  11
ATOM     11  C   UNL     1      35.052 -16.955 -21.700  0.00  0.00    +0.162 C 
BRANCH  11  14
ATOM     12  F   UNL     1      35.604 -18.729 -23.136  0.00  0.00    -0.196 F 
ATOM     13  F   UNL     1      33.504 -18.226 -22.925  0.00  0.00    -0.196 F 
ATOM     14  C   UNL     1      34.668 -18.340 -22.220  0.00  0.00    +0.317 C 
BRANCH  14  17
ATOM     15  O   UNL     1      36.834 -19.201 -20.749  0.00  0.00    -0.163 OA
ATOM     16  N   UNL     1      35.697 -19.680 -20.425  0.00  0.00    -0.128 N 
ATOM     17  C   UNL     1      34.546 -19.326 -21.083  0.00  0.00    +0.142 C 
ATOM     18  C   UNL     1      33.308 -19.836 -20.740  0.00  0.00    +0.022 C 
ATOM     19  C   UNL     1      35.604 -20.581 -19.382  0.00  0.00    +0.121 C 
ATOM     20  C   UNL     1      33.226 -20.743 -19.689  0.00  0.00    +0.003 C 
ATOM     21  C   UNL     1      34.378 -21.119 -19.005  0.00  0.00    +0.022 C 
ENDBRANCH  14  17
ENDBRANCH  11  14
ENDBRANCH   4  11
BRANCH   3  22
ATOM     22  C   UNL     1      31.826 -11.810 -23.120  0.00  0.00    +0.184 C 
BRANCH  22  25
ATOM     23  O   UNL     1      33.953 -10.753 -23.564  0.00  0.00    -0.273 OA
ATOM     24  N   UNL     1      32.108  -9.428 -23.075  0.00  0.00    -0.299 N 
ATOM     25  C   UNL     1      32.760 -10.632 -23.299  0.00  0.00    +0.243 C 
ATOM     26  H   UNL     1      31.145  -9.449 -22.870  0.00  0.00    +0.150 HD
BRANCH  24  27
ATOM     27  C   UNL     1      32.771  -8.144 -23.130  0.00  0.00    +0.119 C 
BRANCH  27  29
ATOM     28  F   UNL     1      30.529  -6.648 -23.979  0.00  0.00    -0.204 F 
ATOM     29  C   UNL     1      32.096  -7.124 -22.260  0.00  0.00    +0.025 C 
ATOM     30  C   UNL     1      30.996  -6.425 -22.742  0.00  0.00    +0.138 C 
ATOM     31  C   UNL     1      32.579  -6.891 -20.978  0.00  0.00    -0.000 C 
ATOM     32  C   UNL     1      30.370  -5.479 -21.931  0.00  0.00    +0.029 C 
ATOM     33  C   UNL     1      31.953  -5.945 -20.166  0.00  0.00    -0.000 C 
ATOM     34  C   UNL     1      30.849  -5.239 -20.642  0.00  0.00    +0.002 C 
ENDBRANCH  27  29
ENDBRANCH  24  27
ENDBRANCH  22  25
ENDBRANCH   3  22
TORSDOF 7
ENDMDL
MODEL 5
REMARK VINA RESULT:     -11.9      3.737     10.935
REMARK  Name = 656913
REMARK  7 active torsions:
REMARK  status: ('A' for Active; 'I' for Inactive)
REMARK    1  A    between atoms: N_3  and  C_22
REMARK    2  A    between atoms: N_4  and  C_11
REMARK    3  A    between atoms: C_11  and  C_14
REMARK    4  A    between atoms: C_14  and  C_17
REMARK    5  A    between atoms: C_22  and  C_25
REMARK    6  A    between atoms: N_24  and  C_27
REMARK    7  A    between atoms: C_27  and  C_29
REMARK                            x       y       z     vdW  Elec       q    Type
REMARK                         _______ _______ _______ _____ _____    ______ ____
ROOT
ATOM      1 CL   UNL     1      32.057 -20.168 -20.869  0.00  0.00    -0.064 Cl
ATOM      2  O   UNL     1      36.268 -21.646 -18.558  0.00  0.00    -0.266 OA
ATOM      3  N   UNL     1      34.324 -20.943 -19.665  0.00  0.00    -0.233 N 
ATOM      4  N   UNL     1      34.942 -22.573 -16.406  0.00  0.00    -0.310 N 
ATOM      5  N   UNL     1      32.934 -21.911 -17.418  0.00  0.00    -0.223 NA
ATOM      6  C   UNL     1      34.233 -22.013 -17.438  0.00  0.00    +0.183 C 
ATOM      7  C   UNL     1      35.052 -21.511 -18.619  0.00  0.00    +0.285 C 
ATOM      8  C   UNL     1      32.948 -20.870 -19.573  0.00  0.00    +0.133 C 
ATOM      9  C   UNL     1      32.317 -21.339 -18.492  0.00  0.00    +0.127 C 
ATOM     10  H   UNL     1      35.923 -22.625 -16.474  0.00  0.00    +0.149 HD
ENDROOT
BRANCH   4  11
ATOM     11  C   UNL     1      34.305 -23.086 -15.233  0.00  0.00    +0.162 C 
BRANCH  11  14
ATOM     12  F   UNL     1      36.283 -24.344 -15.371  0.00  0.00    -0.196 F 
ATOM     13  F   UNL     1      34.510 -25.342 -14.617  0.00  0.00    -0.196 F 
ATOM     14  C   UNL     1      35.183 -24.154 -14.582  0.00  0.00    +0.317 C 
BRANCH  14  17
ATOM     15  O   UNL     1      37.186 -22.346 -14.024  0.00  0.00    -0.163 OA
ATOM     16  N   UNL     1      36.574 -22.847 -13.023  0.00  0.00    -0.128 N 
ATOM     17  C   UNL     1      35.559 -23.757 -13.175  0.00  0.00    +0.142 C 
ATOM     18  C   UNL     1      34.886 -24.306 -12.099  0.00  0.00    +0.022 C 
ATOM     19  C   UNL     1      36.931 -22.472 -11.742  0.00  0.00    +0.121 C 
ATOM     20  C   UNL     1      35.254 -23.921 -10.814  0.00  0.00    +0.003 C 
ATOM     21  C   UNL     1      36.281 -23.000 -10.632  0.00  0.00    +0.022 C 
ENDBRANCH  14  17
ENDBRANCH  11  14
ENDBRANCH   4  11
BRANCH   3  22
ATOM     22  C   UNL     1      35.039 -20.437 -20.832  0.00  0.00    +0.184 C 
BRANCH  22  25
ATOM     23  O   UNL     1      36.508 -18.754 -19.910  0.00  0.00    -0.273 OA
ATOM     24  N   UNL     1      34.631 -18.088 -21.108  0.00  0.00    -0.299 N 
ATOM     25  C   UNL     1      35.504 -19.020 -20.566  0.00  0.00    +0.243 C 
ATOM     26  H   UNL     1      33.855 -18.416 -21.618  0.00  0.00    +0.150 HD
BRANCH  24  27
ATOM     27  C   UNL     1      34.805 -16.660 -20.963  0.00  0.00    +0.119 C 
BRANCH  27  29
ATOM     28  F   UNL     1      34.075 -13.931 -20.879  0.00  0.00    -0.204 F 
ATOM     29  C   UNL     1      34.317 -15.910 -22.169  0.00  0.00    +0.025 C 
ATOM     30  C   UNL     1      33.975 -14.567 -22.055  0.00  0.00    +0.138 C 
ATOM     31  C   UNL     1      34.212 -16.568 -23.389  0.00  0.00    -0.000 C 
ATOM     32  C   UNL     1      33.523 -13.874 -23.177  0.00  0.00    +0.029 C 
ATOM     33  C   UNL     1      33.760 -15.874 -24.510  0.00  0.00    -0.000 C 
ATOM     34  C   UNL     1      33.415 -14.527 -24.405  0.00  0.00    +0.002 C 
ENDBRANCH  27  29
ENDBRANCH  24  27
ENDBRANCH  22  25
ENDBRANCH   3  22
TORSDOF 7
ENDMDL
MODEL 6
REMARK VINA RESULT:     -11.8      2.282      9.877
REMARK  Name = 656913
REMARK  7 active torsions:
REMARK  status: ('A' for Active; 'I' for Inactive)
REMARK    1  A    between atoms: N_3  and  C_22
REMARK    2  A    between atoms: N_4  and  C_11
REMARK    3  A    between atoms: C_11  and  C_14
REMARK    4  A    between atoms: C_14  and  C_17
REMARK    5  A    between atoms: C_22  and  C_25
REMARK    6  A    between atoms: N_24  and  C_27
REMARK    7  A    between atoms: C_27  and  C_29
REMARK                            x       y       z     vdW  Elec       q    Type
REMARK                         _______ _______ _______ _____ _____    ______ ____
ROOT
ATOM      1 CL   UNL     1      32.951 -14.037 -25.872  0.00  0.00    -0.064 Cl
ATOM      2  O   UNL     1      34.471 -14.333 -21.091  0.00  0.00    -0.266 OA
ATOM      3  N   UNL     1      33.754 -14.158 -23.317  0.00  0.00    -0.233 N 
ATOM      4  N   UNL     1      35.008 -16.966 -21.267  0.00  0.00    -0.310 N 
ATOM      5  N   UNL     1      34.314 -16.909 -23.504  0.00  0.00    -0.223 NA
ATOM      6  C   UNL     1      34.525 -16.307 -22.369  0.00  0.00    +0.183 C 
ATOM      7  C   UNL     1      34.245 -14.821 -22.192  0.00  0.00    +0.285 C 
ATOM      8  C   UNL     1      33.556 -14.863 -24.488  0.00  0.00    +0.133 C 
ATOM      9  C   UNL     1      33.832 -16.170 -24.545  0.00  0.00    +0.127 C 
ATOM     10  H   UNL     1      35.149 -16.460 -20.433  0.00  0.00    +0.149 HD
ENDROOT
BRANCH   4  11
ATOM     11  C   UNL     1      35.315 -18.361 -21.286  0.00  0.00    +0.162 C 
BRANCH  11  14
ATOM     12  F   UNL     1      33.687 -19.760 -22.238  0.00  0.00    -0.196 F 
ATOM     13  F   UNL     1      33.030 -18.323 -20.751  0.00  0.00    -0.196 F 
ATOM     14  C   UNL     1      34.047 -19.182 -21.053  0.00  0.00    +0.317 C 
BRANCH  14  17
ATOM     15  O   UNL     1      31.987 -20.636 -19.942  0.00  0.00    -0.163 OA
ATOM     16  N   UNL     1      33.158 -20.869 -19.492  0.00  0.00    -0.128 N 
ATOM     17  C   UNL     1      34.263 -20.208 -19.967  0.00  0.00    +0.142 C 
ATOM     18  C   UNL     1      35.536 -20.453 -19.490  0.00  0.00    +0.022 C 
ATOM     19  C   UNL     1      33.337 -21.811 -18.497  0.00  0.00    +0.121 C 
ATOM     20  C   UNL     1      35.705 -21.403 -18.488  0.00  0.00    +0.003 C 
ATOM     21  C   UNL     1      34.601 -22.087 -17.988  0.00  0.00    +0.022 C 
ENDBRANCH  14  17
ENDBRANCH  11  14
ENDBRANCH   4  11
BRANCH   3  22
ATOM     22  C   UNL     1      33.460 -12.732 -23.225  0.00  0.00    +0.184 C 
BRANCH  22  25
ATOM     23  O   UNL     1      31.622 -13.440 -21.825  0.00  0.00    -0.273 OA
ATOM     24  N   UNL     1      31.996 -11.168 -22.143  0.00  0.00    -0.299 N 
ATOM     25  C   UNL     1      32.272 -12.517 -22.310  0.00  0.00    +0.243 C 
ATOM     26  H   UNL     1      32.587 -10.512 -22.579  0.00  0.00    +0.150 HD
BRANCH  24  27
ATOM     27  C   UNL     1      30.885 -10.677 -21.358  0.00  0.00    +0.119 C 
BRANCH  27  29
ATOM     28  F   UNL     1      31.240  -9.851 -18.679  0.00  0.00    -0.204 F 
ATOM     29  C   UNL     1      31.067  -9.239 -20.966  0.00  0.00    +0.025 C 
ATOM     30  C   UNL     1      31.237  -8.904 -19.628  0.00  0.00    +0.138 C 
ATOM     31  C   UNL     1      31.062  -8.256 -21.949  0.00  0.00    -0.000 C 
ATOM     32  C   UNL     1      31.405  -7.568 -19.268  0.00  0.00    +0.029 C 
ATOM     33  C   UNL     1      31.231  -6.920 -21.588  0.00  0.00    -0.000 C 
ATOM     34  C   UNL     1      31.402  -6.575 -20.248  0.00  0.00    +0.002 C 
ENDBRANCH  27  29
ENDBRANCH  24  27
ENDBRANCH  22  25
ENDBRANCH   3  22
TORSDOF 7
ENDMDL
MODEL 7
REMARK VINA RESULT:     -11.8      2.260      3.140
REMARK  Name = 656913
REMARK  7 active torsions:
REMARK  status: ('A' for Active; 'I' for Inactive)
REMARK    1  A    between atoms: N_3  and  C_22
REMARK    2  A    between atoms: N_4  and  C_11
REMARK    3  A    between atoms: C_11  and  C_14
REMARK    4  A    between atoms: C_14  and  C_17
REMARK    5  A    between atoms: C_22  and  C_25
REMARK    6  A    between atoms: N_24  and  C_27
REMARK    7  A    between atoms: C_27  and  C_29
REMARK                            x       y       z     vdW  Elec       q    Type
REMARK                         _______ _______ _______ _____ _____    ______ ____
ROOT
ATOM      1 CL   UNL     1      34.385 -15.369 -25.077  0.00  0.00    -0.064 Cl
ATOM      2  O   UNL     1      33.541 -14.284 -20.243  0.00  0.00    -0.266 OA
ATOM      3  N   UNL     1      33.960 -14.817 -22.488  0.00  0.00    -0.233 N 
ATOM      4  N   UNL     1      31.794 -12.321 -20.832  0.00  0.00    -0.310 N 
ATOM      5  N   UNL     1      32.135 -12.766 -23.108  0.00  0.00    -0.223 NA
ATOM      6  C   UNL     1      32.386 -13.018 -21.855  0.00  0.00    +0.183 C 
ATOM      7  C   UNL     1      33.362 -14.112 -21.443  0.00  0.00    +0.285 C 
ATOM      8  C   UNL     1      33.644 -14.493 -23.793  0.00  0.00    +0.133 C 
ATOM      9  C   UNL     1      32.773 -13.514 -24.055  0.00  0.00    +0.127 C 
ATOM     10  H   UNL     1      32.022 -12.554 -19.902  0.00  0.00    +0.149 HD
ENDROOT
BRANCH   4  11
ATOM     11  C   UNL     1      30.859 -11.267 -21.070  0.00  0.00    +0.162 C 
BRANCH  11  14
ATOM     12  F   UNL     1      32.025 -10.487 -19.188  0.00  0.00    -0.196 F 
ATOM     13  F   UNL     1      30.030  -9.706 -19.525  0.00  0.00    -0.196 F 
ATOM     14  C   UNL     1      31.175 -10.071 -20.173  0.00  0.00    +0.317 C 
BRANCH  14  17
ATOM     15  O   UNL     1      31.833  -7.637 -19.061  0.00  0.00    -0.163 OA
ATOM     16  N   UNL     1      32.042  -7.768 -20.313  0.00  0.00    -0.128 N 
ATOM     17  C   UNL     1      31.755  -8.933 -20.978  0.00  0.00    +0.142 C 
ATOM     18  C   UNL     1      31.980  -9.089 -22.333  0.00  0.00    +0.022 C 
ATOM     19  C   UNL     1      32.574  -6.716 -21.034  0.00  0.00    +0.121 C 
ATOM     20  C   UNL     1      32.515  -8.024 -23.049  0.00  0.00    +0.003 C 
ATOM     21  C   UNL     1      32.815  -6.831 -22.399  0.00  0.00    +0.022 C 
ENDBRANCH  14  17
ENDBRANCH  11  14
ENDBRANCH   4  11
BRANCH   3  22
ATOM     22  C   UNL     1      34.909 -15.880 -22.173  0.00  0.00    +0.184 C 
BRANCH  22  25
ATOM     23  O   UNL     1      33.743 -17.480 -23.558  0.00  0.00    -0.273 OA
ATOM     24  N   UNL     1      34.363 -18.086 -21.402  0.00  0.00    -0.299 N 
ATOM     25  C   UNL     1      34.285 -17.224 -22.486  0.00  0.00    +0.243 C 
ATOM     26  H   UNL     1      34.824 -17.775 -20.590  0.00  0.00    +0.150 HD
BRANCH  24  27
ATOM     27  C   UNL     1      33.804 -19.420 -21.407  0.00  0.00    +0.119 C 
BRANCH  27  29
ATOM     28  F   UNL     1      32.007 -20.880 -19.787  0.00  0.00    -0.204 F 
ATOM     29  C   UNL     1      34.246 -20.219 -20.216  0.00  0.00    +0.025 C 
ATOM     30  C   UNL     1      33.307 -20.914 -19.463  0.00  0.00    +0.138 C 
ATOM     31  C   UNL     1      35.594 -20.254 -19.877  0.00  0.00    -0.000 C 
ATOM     32  C   UNL     1      33.721 -21.655 -18.357  0.00  0.00    +0.029 C 
ATOM     33  C   UNL     1      36.008 -20.996 -18.771  0.00  0.00    -0.000 C 
ATOM     34  C   UNL     1      35.072 -21.696 -18.011  0.00  0.00    +0.002 C 
ENDBRANCH  27  29
ENDBRANCH  24  27
ENDBRANCH  22  25
ENDBRANCH   3  22
TORSDOF 7
ENDMDL
MODEL 8
REMARK VINA RESULT:     -11.7      3.480     11.164
REMARK  Name = 656913
REMARK  7 active torsions:
REMARK  status: ('A' for Active; 'I' for Inactive)
REMARK    1  A    between atoms: N_3  and  C_22
REMARK    2  A    between atoms: N_4  and  C_11
REMARK    3  A    between atoms: C_11  and  C_14
REMARK    4  A    between atoms: C_14  and  C_17
REMARK    5  A    between atoms: C_22  and  C_25
REMARK    6  A    between atoms: N_24  and  C_27
REMARK    7  A    between atoms: C_27  and  C_29
REMARK                            x       y       z     vdW  Elec       q    Type
REMARK                         _______ _______ _______ _____ _____    ______ ____
ROOT
ATOM      1 CL   UNL     1      31.936 -19.889 -21.070  0.00  0.00    -0.064 Cl
ATOM      2  O   UNL     1      36.298 -21.228 -18.964  0.00  0.00    -0.266 OA
ATOM      3  N   UNL     1      34.282 -20.587 -19.975  0.00  0.00    -0.233 N 
ATOM      4  N   UNL     1      35.097 -22.347 -16.829  0.00  0.00    -0.310 N 
ATOM      5  N   UNL     1      33.023 -21.755 -17.746  0.00  0.00    -0.223 NA
ATOM      6  C   UNL     1      34.324 -21.777 -17.808  0.00  0.00    +0.183 C 
ATOM      7  C   UNL     1      35.075 -21.165 -18.984  0.00  0.00    +0.285 C 
ATOM      8  C   UNL     1      32.907 -20.603 -19.840  0.00  0.00    +0.133 C 
ATOM      9  C   UNL     1      32.339 -21.166 -18.769  0.00  0.00    +0.127 C 
ATOM     10  H   UNL     1      36.077 -22.335 -16.928  0.00  0.00    +0.149 HD
ENDROOT
BRANCH   4  11
ATOM     11  C   UNL     1      34.530 -22.958 -15.669  0.00  0.00    +0.162 C 
BRANCH  11  14
ATOM     12  F   UNL     1      34.813 -22.506 -13.382  0.00  0.00    -0.196 F 
ATOM     13  F   UNL     1      36.376 -21.848 -14.735  0.00  0.00    -0.196 F 
ATOM     14  C   UNL     1      35.509 -22.876 -14.498  0.00  0.00    +0.317 C 
BRANCH  14  17
ATOM     15  O   UNL     1      37.670 -23.163 -12.813  0.00  0.00    -0.163 OA
ATOM     16  N   UNL     1      37.292 -24.208 -13.440  0.00  0.00    -0.128 N 
ATOM     17  C   UNL     1      36.228 -24.189 -14.306  0.00  0.00    +0.142 C 
ATOM     18  C   UNL     1      35.808 -25.315 -14.990  0.00  0.00    +0.022 C 
ATOM     19  C   UNL     1      37.962 -25.402 -13.252  0.00  0.00    +0.121 C 
ATOM     20  C   UNL     1      36.490 -26.511 -14.793  0.00  0.00    +0.003 C 
ATOM     21  C   UNL     1      37.572 -26.557 -13.920  0.00  0.00    +0.022 C 
ENDBRANCH  14  17
ENDBRANCH  11  14
ENDBRANCH   4  11
BRANCH   3  22
ATOM     22  C   UNL     1      34.929 -19.978 -21.133  0.00  0.00    +0.184 C 
BRANCH  22  25
ATOM     23  O   UNL     1      36.447 -18.347 -20.198  0.00  0.00    -0.273 OA
ATOM     24  N   UNL     1      34.451 -17.627 -21.143  0.00  0.00    -0.299 N 
ATOM     25  C   UNL     1      35.390 -18.580 -20.778  0.00  0.00    +0.243 C 
ATOM     26  H   UNL     1      33.635 -17.927 -21.607  0.00  0.00    +0.150 HD
BRANCH  24  27
ATOM     27  C   UNL     1      34.610 -16.214 -20.880  0.00  0.00    +0.119 C 
BRANCH  27  29
ATOM     28  F   UNL     1      33.962 -13.475 -20.624  0.00  0.00    -0.204 F 
ATOM     29  C   UNL     1      34.159 -15.372 -22.038  0.00  0.00    +0.025 C 
ATOM     30  C   UNL     1      33.857 -14.029 -21.840  0.00  0.00    +0.138 C 
ATOM     31  C   UNL     1      34.049 -15.945 -23.299  0.00  0.00    -0.000 C 
ATOM     32  C   UNL     1      33.439 -13.250 -22.918  0.00  0.00    +0.029 C 
ATOM     33  C   UNL     1      33.631 -15.165 -24.377  0.00  0.00    -0.000 C 
ATOM     34  C   UNL     1      33.326 -13.818 -24.187  0.00  0.00    +0.002 C 
ENDBRANCH  27  29
ENDBRANCH  24  27
ENDBRANCH  22  25
ENDBRANCH   3  22
TORSDOF 7
ENDMDL
MODEL 9
REMARK VINA RESULT:     -11.7      6.648     11.908
REMARK  Name = 656913
REMARK  7 active torsions:
REMARK  status: ('A' for Active; 'I' for Inactive)
REMARK    1  A    between atoms: N_3  and  C_22
REMARK    2  A    between atoms: N_4  and  C_11
REMARK    3  A    between atoms: C_11  and  C_14
REMARK    4  A    between atoms: C_14  and  C_17
REMARK    5  A    between atoms: C_22  and  C_25
REMARK    6  A    between atoms: N_24  and  C_27
REMARK    7  A    between atoms: C_27  and  C_29
REMARK                            x       y       z     vdW  Elec       q    Type
REMARK                         _______ _______ _______ _____ _____    ______ ____
ROOT
ATOM      1 CL   UNL     1      29.381 -24.007 -15.771  0.00  0.00    -0.064 Cl
ATOM      2  O   UNL     1      33.996 -22.069 -15.320  0.00  0.00    -0.266 OA
ATOM      3  N   UNL     1      31.838 -22.956 -15.564  0.00  0.00    -0.233 N 
ATOM      4  N   UNL     1      34.385 -23.170 -12.894  0.00  0.00    -0.310 N 
ATOM      5  N   UNL     1      32.242 -24.108 -13.029  0.00  0.00    -0.223 NA
ATOM      6  C   UNL     1      33.196 -23.387 -13.544  0.00  0.00    +0.183 C 
ATOM      7  C   UNL     1      33.050 -22.731 -14.910  0.00  0.00    +0.285 C 
ATOM      8  C   UNL     1      30.873 -23.734 -14.956  0.00  0.00    +0.133 C 
ATOM      9  C   UNL     1      31.095 -24.268 -13.751  0.00  0.00    +0.127 C 
ATOM     10  H   UNL     1      35.073 -22.615 -13.331  0.00  0.00    +0.149 HD
ENDROOT
BRANCH   4  11
ATOM     11  C   UNL     1      34.662 -23.722 -11.605  0.00  0.00    +0.162 C 
BRANCH  11  14
ATOM     12  F   UNL     1      36.397 -24.324 -10.142  0.00  0.00    -0.196 F 
ATOM     13  F   UNL     1      36.534 -22.392 -11.120  0.00  0.00    -0.196 F 
ATOM     14  C   UNL     1      36.165 -23.689 -11.330  0.00  0.00    +0.317 C 
BRANCH  14  17
ATOM     15  O   UNL     1      37.197 -22.228 -13.425  0.00  0.00    -0.163 OA
ATOM     16  N   UNL     1      37.398 -23.487 -13.454  0.00  0.00    -0.128 N 
ATOM     17  C   UNL     1      36.933 -24.319 -12.466  0.00  0.00    +0.142 C 
ATOM     18  C   UNL     1      37.147 -25.684 -12.485  0.00  0.00    +0.022 C 
ATOM     19  C   UNL     1      38.104 -24.046 -14.502  0.00  0.00    +0.121 C 
ATOM     20  C   UNL     1      37.858 -26.236 -13.545  0.00  0.00    +0.003 C 
ATOM     21  C   UNL     1      38.341 -25.415 -14.559  0.00  0.00    +0.022 C 
ENDBRANCH  14  17
ENDBRANCH  11  14
ENDBRANCH   4  11
BRANCH   3  22
ATOM     22  C   UNL     1      31.623 -22.359 -16.878  0.00  0.00    +0.184 C 
BRANCH  22  25
ATOM     23  O   UNL     1      33.028 -23.937 -18.051  0.00  0.00    -0.273 OA
ATOM     24  N   UNL     1      33.427 -21.661 -18.298  0.00  0.00    -0.299 N 
ATOM     25  C   UNL     1      32.746 -22.766 -17.809  0.00  0.00    +0.243 C 
ATOM     26  H   UNL     1      33.112 -20.765 -18.039  0.00  0.00    +0.150 HD
BRANCH  24  27
ATOM     27  C   UNL     1      34.576 -21.759 -19.171  0.00  0.00    +0.119 C 
BRANCH  27  29
ATOM     28  F   UNL     1      32.520 -20.393 -20.548  0.00  0.00    -0.204 F 
ATOM     29  C   UNL     1      34.812 -20.488 -19.934  0.00  0.00    +0.025 C 
ATOM     30  C   UNL     1      33.753 -19.868 -20.588  0.00  0.00    +0.138 C 
ATOM     31  C   UNL     1      36.090 -19.944 -19.979  0.00  0.00    -0.000 C 
ATOM     32  C   UNL     1      33.976 -18.688 -21.296  0.00  0.00    +0.029 C 
ATOM     33  C   UNL     1      36.312 -18.763 -20.686  0.00  0.00    -0.000 C 
ATOM     34  C   UNL     1      35.256 -18.135 -21.345  0.00  0.00    +0.002 C 
ENDBRANCH  27  29
ENDBRANCH  24  27
ENDBRANCH  22  25
ENDBRANCH   3  22
TORSDOF 7
ENDMDL
