MODEL 1
REMARK VINA RESULT:     -10.0      0.000      0.000
REMARK  Name = 15942651
REMARK  7 active torsions:
REMARK  status: ('A' for Active; 'I' for Inactive)
REMARK    1  A    between atoms: N_1  and  S_17
REMARK    2  A    between atoms: C_2  and  C_13
REMARK    3  A    between atoms: C_9  and  O_28
REMARK    4  A    between atoms: C_10  and  O_30
REMARK    5  A    between atoms: N_12  and  O_15
REMARK    6  A    between atoms: S_17  and  C_20
REMARK    7  A    between atoms: C_25  and  O_26
REMARK                            x       y       z     vdW  Elec       q    Type
REMARK                         _______ _______ _______ _____ _____    ______ ____
ROOT
ATOM      1  N   UNL     1      34.598 -16.844 -21.872  0.00  0.00    -0.144 NA
ATOM      2  C   UNL     1      34.590 -15.741 -22.891  0.00  0.00    +0.179 C 
ATOM      3  C   UNL     1      34.575 -16.341 -20.469  0.00  0.00    +0.101 C 
ATOM      4  C   UNL     1      33.310 -15.519 -20.254  0.00  0.00    +0.045 C 
ATOM      5  C   UNL     1      33.844 -14.486 -22.492  0.00  0.00    +0.002 C 
ATOM      6  C   UNL     1      33.237 -14.376 -21.228  0.00  0.00    -0.020 C 
ATOM      7  C   UNL     1      33.767 -13.404 -23.383  0.00  0.00    +0.037 C 
ATOM      8  C   UNL     1      32.530 -13.212 -20.894  0.00  0.00    +0.035 C 
ATOM      9  C   UNL     1      33.074 -12.244 -23.035  0.00  0.00    +0.172 C 
ATOM     10  C   UNL     1      32.453 -12.150 -21.793  0.00  0.00    +0.167 C 
ENDROOT
BRANCH   2  13
ATOM     11  O   UNL     1      34.207 -15.977 -25.230  0.00  0.00    -0.271 OA
ATOM     12  N   UNL     1      33.089 -17.384 -23.775  0.00  0.00    -0.196 N 
ATOM     13  C   UNL     1      33.949 -16.365 -24.092  0.00  0.00    +0.265 C 
ATOM     14  H   UNL     1      32.919 -17.655 -22.844  0.00  0.00    +0.182 HD
BRANCH  12  15
ATOM     15  O   UNL     1      32.467 -18.017 -24.860  0.00  0.00    -0.295 OA
ATOM     16  H   UNL     1      33.082 -18.652 -25.260  0.00  0.00    +0.241 HD
ENDBRANCH  12  15
ENDBRANCH   2  13
BRANCH   1  17
ATOM     17  S   UNL     1      35.706 -18.130 -22.151  0.00  0.00    +0.064 S 
ATOM     18  O   UNL     1      37.024 -17.704 -21.742  0.00  0.00    -0.153 OA
ATOM     19  O   UNL     1      35.466 -18.667 -23.470  0.00  0.00    -0.153 OA
BRANCH  17  20
ATOM     20  C   UNL     1      35.116 -19.296 -20.967  0.00  0.00    +0.122 C 
ATOM     21  C   UNL     1      36.023 -19.947 -20.145  0.00  0.00    +0.023 C 
ATOM     22  C   UNL     1      33.756 -19.545 -20.877  0.00  0.00    +0.023 C 
ATOM     23  C   UNL     1      35.556 -20.869 -19.209  0.00  0.00    +0.038 C 
ATOM     24  C   UNL     1      33.289 -20.468 -19.941  0.00  0.00    +0.038 C 
ATOM     25  C   UNL     1      34.189 -21.130 -19.106  0.00  0.00    +0.139 C 
BRANCH  25  26
ATOM     26  O   UNL     1      33.735 -22.030 -18.192  0.00  0.00    -0.471 OA
ATOM     27  C   UNL     1      32.342 -21.998 -17.887  0.00  0.00    +0.252 C 
ENDBRANCH  25  26
ENDBRANCH  17  20
ENDBRANCH   1  17
BRANCH   9  28
ATOM     28  O   UNL     1      33.011 -11.211 -23.921  0.00  0.00    -0.468 OA
ATOM     29  C   UNL     1      33.792 -10.054 -23.625  0.00  0.00    +0.253 C 
ENDBRANCH   9  28
BRANCH  10  30
ATOM     30  O   UNL     1      31.766 -11.027 -21.445  0.00  0.00    -0.503 OA
ATOM     31  H   UNL     1      32.210 -10.318 -21.022  0.00  0.00    +0.292 HD
ENDBRANCH  10  30
TORSDOF 7
ENDMDL
MODEL 2
REMARK VINA RESULT:      -9.3      8.535     10.814
REMARK  Name = 15942651
REMARK  7 active torsions:
REMARK  status: ('A' for Active; 'I' for Inactive)
REMARK    1  A    between atoms: N_1  and  S_17
REMARK    2  A    between atoms: C_2  and  C_13
REMARK    3  A    between atoms: C_9  and  O_28
REMARK    4  A    between atoms: C_10  and  O_30
REMARK    5  A    between atoms: N_12  and  O_15
REMARK    6  A    between atoms: S_17  and  C_20
REMARK    7  A    between atoms: C_25  and  O_26
REMARK                            x       y       z     vdW  Elec       q    Type
REMARK                         _______ _______ _______ _____ _____    ______ ____
ROOT
ATOM      1  N   UNL     1      33.836 -23.290 -15.135  0.00  0.00    -0.144 NA
ATOM      2  C   UNL     1      32.588 -22.790 -15.805  0.00  0.00    +0.179 C 
ATOM      3  C   UNL     1      33.625 -23.651 -13.705  0.00  0.00    +0.101 C 
ATOM      4  C   UNL     1      32.577 -24.753 -13.617  0.00  0.00    +0.045 C 
ATOM      5  C   UNL     1      31.291 -23.387 -15.301  0.00  0.00    +0.002 C 
ATOM      6  C   UNL     1      31.284 -24.321 -14.251  0.00  0.00    -0.020 C 
ATOM      7  C   UNL     1      30.070 -22.995 -15.874  0.00  0.00    +0.037 C 
ATOM      8  C   UNL     1      30.071 -24.878 -13.821  0.00  0.00    +0.035 C 
ATOM      9  C   UNL     1      28.867 -23.543 -15.429  0.00  0.00    +0.172 C 
ATOM     10  C   UNL     1      28.869 -24.487 -14.407  0.00  0.00    +0.167 C 
ENDROOT
BRANCH   2  13
ATOM     11  O   UNL     1      33.116 -24.265 -17.599  0.00  0.00    -0.271 OA
ATOM     12  N   UNL     1      32.566 -22.075 -18.089  0.00  0.00    -0.196 N 
ATOM     13  C   UNL     1      32.791 -23.133 -17.249  0.00  0.00    +0.265 C 
ATOM     14  H   UNL     1      32.305 -21.186 -17.755  0.00  0.00    +0.182 HD
BRANCH  12  15
ATOM     15  O   UNL     1      32.728 -22.337 -19.456  0.00  0.00    -0.295 OA
ATOM     16  H   UNL     1      33.616 -22.695 -19.614  0.00  0.00    +0.241 HD
ENDBRANCH  12  15
ENDBRANCH   2  13
BRANCH   1  17
ATOM     17  S   UNL     1      35.273 -22.396 -15.442  0.00  0.00    +0.064 S 
ATOM     18  O   UNL     1      35.397 -21.359 -14.444  0.00  0.00    -0.153 OA
ATOM     19  O   UNL     1      35.335 -22.092 -16.853  0.00  0.00    -0.153 OA
BRANCH  17  20
ATOM     20  C   UNL     1      36.477 -23.636 -15.094  0.00  0.00    +0.122 C 
ATOM     21  C   UNL     1      36.069 -24.949 -14.919  0.00  0.00    +0.023 C 
ATOM     22  C   UNL     1      37.814 -23.280 -14.999  0.00  0.00    +0.023 C 
ATOM     23  C   UNL     1      37.021 -25.930 -14.643  0.00  0.00    +0.038 C 
ATOM     24  C   UNL     1      38.766 -24.262 -14.723  0.00  0.00    +0.038 C 
ATOM     25  C   UNL     1      38.370 -25.587 -14.545  0.00  0.00    +0.139 C 
BRANCH  25  26
ATOM     26  O   UNL     1      39.298 -26.544 -14.276  0.00  0.00    -0.471 OA
ATOM     27  C   UNL     1      40.609 -26.100 -13.930  0.00  0.00    +0.252 C 
ENDBRANCH  25  26
ENDBRANCH  17  20
ENDBRANCH   1  17
BRANCH   9  28
ATOM     28  O   UNL     1      27.698 -23.148 -16.007  0.00  0.00    -0.468 OA
ATOM     29  C   UNL     1      27.074 -21.981 -15.474  0.00  0.00    +0.253 C 
ENDBRANCH   9  28
BRANCH  10  30
ATOM     30  O   UNL     1      27.701 -25.036 -13.970  0.00  0.00    -0.503 OA
ATOM     31  H   UNL     1      27.597 -25.259 -13.066  0.00  0.00    +0.292 HD
ENDBRANCH  10  30
TORSDOF 7
ENDMDL
MODEL 3
REMARK VINA RESULT:      -9.1      7.640     10.486
REMARK  Name = 15942651
REMARK  7 active torsions:
REMARK  status: ('A' for Active; 'I' for Inactive)
REMARK    1  A    between atoms: N_1  and  S_17
REMARK    2  A    between atoms: C_2  and  C_13
REMARK    3  A    between atoms: C_9  and  O_28
REMARK    4  A    between atoms: C_10  and  O_30
REMARK    5  A    between atoms: N_12  and  O_15
REMARK    6  A    between atoms: S_17  and  C_20
REMARK    7  A    between atoms: C_25  and  O_26
REMARK                            x       y       z     vdW  Elec       q    Type
REMARK                         _______ _______ _______ _____ _____    ______ ____
ROOT
ATOM      1  N   UNL     1      32.235 -23.484 -15.278  0.00  0.00    -0.144 NA
ATOM      2  C   UNL     1      33.598 -22.944 -14.955  0.00  0.00    +0.179 C 
ATOM      3  C   UNL     1      31.560 -22.741 -16.380  0.00  0.00    +0.101 C 
ATOM      4  C   UNL     1      32.409 -22.838 -17.641  0.00  0.00    +0.045 C 
ATOM      5  C   UNL     1      34.361 -22.352 -16.120  0.00  0.00    +0.002 C 
ATOM      6  C   UNL     1      33.791 -22.294 -17.404  0.00  0.00    -0.020 C 
ATOM      7  C   UNL     1      35.651 -21.834 -15.922  0.00  0.00    +0.037 C 
ATOM      8  C   UNL     1      34.530 -21.764 -18.471  0.00  0.00    +0.035 C 
ATOM      9  C   UNL     1      36.372 -21.294 -16.987  0.00  0.00    +0.172 C 
ATOM     10  C   UNL     1      35.813 -21.264 -18.261  0.00  0.00    +0.167 C 
ENDROOT
BRANCH   2  13
ATOM     11  O   UNL     1      34.688 -25.056 -15.122  0.00  0.00    -0.271 OA
ATOM     12  N   UNL     1      34.556 -24.036 -13.052  0.00  0.00    -0.196 N 
ATOM     13  C   UNL     1      34.332 -24.126 -14.400  0.00  0.00    +0.265 C 
ATOM     14  H   UNL     1      34.249 -23.266 -12.520  0.00  0.00    +0.182 HD
BRANCH  12  15
ATOM     15  O   UNL     1      35.251 -25.108 -12.476  0.00  0.00    -0.295 OA
ATOM     16  H   UNL     1      36.019 -24.772 -11.988  0.00  0.00    +0.241 HD
ENDBRANCH  12  15
ENDBRANCH   2  13
BRANCH   1  17
ATOM     17  S   UNL     1      31.221 -23.847 -13.936  0.00  0.00    +0.064 S 
ATOM     18  O   UNL     1      31.564 -22.965 -12.844  0.00  0.00    -0.153 OA
ATOM     19  O   UNL     1      31.185 -25.280 -13.760  0.00  0.00    -0.153 OA
BRANCH  17  20
ATOM     20  C   UNL     1      29.666 -23.333 -14.587  0.00  0.00    +0.122 C 
ATOM     21  C   UNL     1      29.198 -22.060 -14.303  0.00  0.00    +0.023 C 
ATOM     22  C   UNL     1      28.933 -24.210 -15.372  0.00  0.00    +0.023 C 
ATOM     23  C   UNL     1      27.967 -21.653 -14.818  0.00  0.00    +0.038 C 
ATOM     24  C   UNL     1      27.703 -23.803 -15.887  0.00  0.00    +0.038 C 
ATOM     25  C   UNL     1      27.219 -22.525 -15.610  0.00  0.00    +0.139 C 
BRANCH  25  26
ATOM     26  O   UNL     1      26.019 -22.128 -16.113  0.00  0.00    -0.471 OA
ATOM     27  C   UNL     1      26.041 -21.339 -17.301  0.00  0.00    +0.252 C 
ENDBRANCH  25  26
ENDBRANCH  17  20
ENDBRANCH   1  17
BRANCH   9  28
ATOM     28  O   UNL     1      37.624 -20.803 -16.766  0.00  0.00    -0.468 OA
ATOM     29  C   UNL     1      37.768 -19.384 -16.741  0.00  0.00    +0.253 C 
ENDBRANCH   9  28
BRANCH  10  30
ATOM     30  O   UNL     1      36.511 -20.748 -19.311  0.00  0.00    -0.503 OA
ATOM     31  H   UNL     1      37.447 -20.768 -19.307  0.00  0.00    +0.292 HD
ENDBRANCH  10  30
TORSDOF 7
ENDMDL
MODEL 4
REMARK VINA RESULT:      -8.7      5.202      9.189
REMARK  Name = 15942651
REMARK  7 active torsions:
REMARK  status: ('A' for Active; 'I' for Inactive)
REMARK    1  A    between atoms: N_1  and  S_17
REMARK    2  A    between atoms: C_2  and  C_13
REMARK    3  A    between atoms: C_9  and  O_28
REMARK    4  A    between atoms: C_10  and  O_30
REMARK    5  A    between atoms: N_12  and  O_15
REMARK    6  A    between atoms: S_17  and  C_20
REMARK    7  A    between atoms: C_25  and  O_26
REMARK                            x       y       z     vdW  Elec       q    Type
REMARK                         _______ _______ _______ _____ _____    ______ ____
ROOT
ATOM      1  N   UNL     1      32.253  -8.563 -22.192  0.00  0.00    -0.144 NA
ATOM      2  C   UNL     1      31.734  -7.175 -22.437  0.00  0.00    +0.179 C 
ATOM      3  C   UNL     1      32.998  -9.121 -23.355  0.00  0.00    +0.101 C 
ATOM      4  C   UNL     1      34.193  -8.225 -23.659  0.00  0.00    +0.045 C 
ATOM      5  C   UNL     1      32.581  -6.311 -23.348  0.00  0.00    +0.002 C 
ATOM      6  C   UNL     1      33.753  -6.815 -23.939  0.00  0.00    -0.020 C 
ATOM      7  C   UNL     1      32.187  -4.993 -23.628  0.00  0.00    +0.037 C 
ATOM      8  C   UNL     1      34.532  -5.985 -24.758  0.00  0.00    +0.035 C 
ATOM      9  C   UNL     1      32.961  -4.180 -24.456  0.00  0.00    +0.172 C 
ATOM     10  C   UNL     1      34.135  -4.675 -25.017  0.00  0.00    +0.167 C 
ENDROOT
BRANCH   2  13
ATOM     11  O   UNL     1      30.635  -6.029 -20.661  0.00  0.00    -0.271 OA
ATOM     12  N   UNL     1      32.827  -6.700 -20.360  0.00  0.00    -0.196 N 
ATOM     13  C   UNL     1      31.661  -6.570 -21.069  0.00  0.00    +0.265 C 
ATOM     14  H   UNL     1      33.621  -7.144 -20.736  0.00  0.00    +0.182 HD
BRANCH  12  15
ATOM     15  O   UNL     1      32.816  -6.164 -19.066  0.00  0.00    -0.295 OA
ATOM     16  H   UNL     1      33.675  -5.752 -18.879  0.00  0.00    +0.241 HD
ENDBRANCH  12  15
ENDBRANCH   2  13
BRANCH   1  17
ATOM     17  S   UNL     1      31.159  -9.664 -21.450  0.00  0.00    +0.064 S 
ATOM     18  O   UNL     1      29.944  -9.707 -22.230  0.00  0.00    -0.153 OA
ATOM     19  O   UNL     1      31.131  -9.399 -20.030  0.00  0.00    -0.153 OA
BRANCH  17  20
ATOM     20  C   UNL     1      32.030 -11.174 -21.710  0.00  0.00    +0.122 C 
ATOM     21  C   UNL     1      32.246 -12.027 -20.640  0.00  0.00    +0.023 C 
ATOM     22  C   UNL     1      32.487 -11.485 -22.982  0.00  0.00    +0.023 C 
ATOM     23  C   UNL     1      32.936 -13.222 -20.846  0.00  0.00    +0.038 C 
ATOM     24  C   UNL     1      33.177 -12.680 -23.188  0.00  0.00    +0.038 C 
ATOM     25  C   UNL     1      33.402 -13.548 -22.120  0.00  0.00    +0.139 C 
BRANCH  25  26
ATOM     26  O   UNL     1      34.074 -14.714 -22.321  0.00  0.00    -0.471 OA
ATOM     27  C   UNL     1      34.156 -15.194 -23.662  0.00  0.00    +0.252 C 
ENDBRANCH  25  26
ENDBRANCH  17  20
ENDBRANCH   1  17
BRANCH   9  28
ATOM     28  O   UNL     1      32.557  -2.903 -24.706  0.00  0.00    -0.468 OA
ATOM     29  C   UNL     1      31.586  -2.346 -23.822  0.00  0.00    +0.253 C 
ENDBRANCH   9  28
BRANCH  10  30
ATOM     30  O   UNL     1      34.903  -3.889 -25.821  0.00  0.00    -0.503 OA
ATOM     31  H   UNL     1      34.585  -3.625 -26.661  0.00  0.00    +0.292 HD
ENDBRANCH  10  30
TORSDOF 7
ENDMDL
MODEL 5
REMARK VINA RESULT:      -8.6      2.043      8.179
REMARK  Name = 15942651
REMARK  7 active torsions:
REMARK  status: ('A' for Active; 'I' for Inactive)
REMARK    1  A    between atoms: N_1  and  S_17
REMARK    2  A    between atoms: C_2  and  C_13
REMARK    3  A    between atoms: C_9  and  O_28
REMARK    4  A    between atoms: C_10  and  O_30
REMARK    5  A    between atoms: N_12  and  O_15
REMARK    6  A    between atoms: S_17  and  C_20
REMARK    7  A    between atoms: C_25  and  O_26
REMARK                            x       y       z     vdW  Elec       q    Type
REMARK                         _______ _______ _______ _____ _____    ______ ____
ROOT
ATOM      1  N   UNL     1      34.305 -19.367 -20.962  0.00  0.00    -0.144 NA
ATOM      2  C   UNL     1      34.949 -20.407 -20.092  0.00  0.00    +0.179 C 
ATOM      3  C   UNL     1      32.888 -19.686 -21.300  0.00  0.00    +0.101 C 
ATOM      4  C   UNL     1      32.078 -19.782 -20.014  0.00  0.00    +0.045 C 
ATOM      5  C   UNL     1      34.024 -21.116 -19.125  0.00  0.00    +0.002 C 
ATOM      6  C   UNL     1      32.650 -20.822 -19.092  0.00  0.00    -0.020 C 
ATOM      7  C   UNL     1      34.535 -22.095 -18.258  0.00  0.00    +0.037 C 
ATOM      8  C   UNL     1      31.821 -21.475 -18.169  0.00  0.00    +0.035 C 
ATOM      9  C   UNL     1      33.699 -22.750 -17.354  0.00  0.00    +0.172 C 
ATOM     10  C   UNL     1      32.343 -22.436 -17.306  0.00  0.00    +0.167 C 
ENDROOT
BRANCH   2  13
ATOM     11  O   UNL     1      36.500 -18.623 -19.800  0.00  0.00    -0.271 OA
ATOM     12  N   UNL     1      36.310 -20.212 -18.132  0.00  0.00    -0.196 N 
ATOM     13  C   UNL     1      36.001 -19.648 -19.342  0.00  0.00    +0.265 C 
ATOM     14  H   UNL     1      35.878 -21.037 -17.812  0.00  0.00    +0.182 HD
BRANCH  12  15
ATOM     15  O   UNL     1      37.281 -19.540 -17.377  0.00  0.00    -0.295 OA
ATOM     16  H   UNL     1      38.116 -19.515 -17.871  0.00  0.00    +0.241 HD
ENDBRANCH  12  15
ENDBRANCH   2  13
BRANCH   1  17
ATOM     17  S   UNL     1      35.243 -18.795 -22.286  0.00  0.00    +0.064 S 
ATOM     18  O   UNL     1      34.778 -19.434 -23.495  0.00  0.00    -0.153 OA
ATOM     19  O   UNL     1      36.638 -18.824 -21.909  0.00  0.00    -0.153 OA
BRANCH  17  20
ATOM     20  C   UNL     1      34.719 -17.112 -22.321  0.00  0.00    +0.122 C 
ATOM     21  C   UNL     1      34.491 -16.496 -23.542  0.00  0.00    +0.023 C 
ATOM     22  C   UNL     1      34.543 -16.429 -21.127  0.00  0.00    +0.023 C 
ATOM     23  C   UNL     1      34.076 -15.165 -23.569  0.00  0.00    +0.038 C 
ATOM     24  C   UNL     1      34.128 -15.098 -21.155  0.00  0.00    +0.038 C 
ATOM     25  C   UNL     1      33.894 -14.465 -22.375  0.00  0.00    +0.139 C 
BRANCH  25  26
ATOM     26  O   UNL     1      33.489 -13.167 -22.403  0.00  0.00    -0.471 OA
ATOM     27  C   UNL     1      33.055 -12.648 -23.659  0.00  0.00    +0.252 C 
ENDBRANCH  25  26
ENDBRANCH  17  20
ENDBRANCH   1  17
BRANCH   9  28
ATOM     28  O   UNL     1      34.222 -23.692 -16.520  0.00  0.00    -0.468 OA
ATOM     29  C   UNL     1      34.918 -23.222 -15.367  0.00  0.00    +0.253 C 
ENDBRANCH   9  28
BRANCH  10  30
ATOM     30  O   UNL     1      31.518 -23.062 -16.422  0.00  0.00    -0.503 OA
ATOM     31  H   UNL     1      31.232 -22.615 -15.650  0.00  0.00    +0.292 HD
ENDBRANCH  10  30
TORSDOF 7
ENDMDL
MODEL 6
REMARK VINA RESULT:      -8.4      1.677      7.696
REMARK  Name = 15942651
REMARK  7 active torsions:
REMARK  status: ('A' for Active; 'I' for Inactive)
REMARK    1  A    between atoms: N_1  and  S_17
REMARK    2  A    between atoms: C_2  and  C_13
REMARK    3  A    between atoms: C_9  and  O_28
REMARK    4  A    between atoms: C_10  and  O_30
REMARK    5  A    between atoms: N_12  and  O_15
REMARK    6  A    between atoms: S_17  and  C_20
REMARK    7  A    between atoms: C_25  and  O_26
REMARK                            x       y       z     vdW  Elec       q    Type
REMARK                         _______ _______ _______ _____ _____    ______ ____
ROOT
ATOM      1  N   UNL     1      33.744 -19.034 -22.047  0.00  0.00    -0.144 NA
ATOM      2  C   UNL     1      34.921 -19.656 -21.353  0.00  0.00    +0.179 C 
ATOM      3  C   UNL     1      32.482 -19.803 -21.854  0.00  0.00    +0.101 C 
ATOM      4  C   UNL     1      32.161 -19.873 -20.367  0.00  0.00    +0.045 C 
ATOM      5  C   UNL     1      34.610 -20.396 -20.070  0.00  0.00    +0.002 C 
ATOM      6  C   UNL     1      33.289 -20.506 -19.601  0.00  0.00    -0.020 C 
ATOM      7  C   UNL     1      35.647 -20.999 -19.340  0.00  0.00    +0.037 C 
ATOM      8  C   UNL     1      33.032 -21.175 -18.396  0.00  0.00    +0.035 C 
ATOM      9  C   UNL     1      35.378 -21.676 -18.150  0.00  0.00    +0.172 C 
ATOM     10  C   UNL     1      34.072 -21.759 -17.676  0.00  0.00    +0.167 C 
ENDROOT
BRANCH   2  13
ATOM     11  O   UNL     1      35.525 -17.621 -20.271  0.00  0.00    -0.271 OA
ATOM     12  N   UNL     1      36.996 -18.545 -21.796  0.00  0.00    -0.196 N 
ATOM     13  C   UNL     1      35.830 -18.498 -21.077  0.00  0.00    +0.265 C 
ATOM     14  H   UNL     1      37.191 -19.273 -22.430  0.00  0.00    +0.182 HD
BRANCH  12  15
ATOM     15  O   UNL     1      37.894 -17.494 -21.571  0.00  0.00    -0.295 OA
ATOM     16  H   UNL     1      38.278 -17.209 -22.415  0.00  0.00    +0.241 HD
ENDBRANCH  12  15
ENDBRANCH   2  13
BRANCH   1  17
ATOM     17  S   UNL     1      34.010 -18.488 -23.657  0.00  0.00    +0.064 S 
ATOM     18  O   UNL     1      32.883 -18.880 -24.471  0.00  0.00    -0.153 OA
ATOM     19  O   UNL     1      35.364 -18.818 -24.037  0.00  0.00    -0.153 OA
BRANCH  17  20
ATOM     20  C   UNL     1      33.920 -16.746 -23.401  0.00  0.00    +0.122 C 
ATOM     21  C   UNL     1      34.257 -16.222 -22.163  0.00  0.00    +0.023 C 
ATOM     22  C   UNL     1      33.512 -15.925 -24.441  0.00  0.00    +0.023 C 
ATOM     23  C   UNL     1      34.186 -14.844 -21.960  0.00  0.00    +0.038 C 
ATOM     24  C   UNL     1      33.441 -14.547 -24.239  0.00  0.00    +0.038 C 
ATOM     25  C   UNL     1      33.777 -14.006 -22.999  0.00  0.00    +0.139 C 
BRANCH  25  26
ATOM     26  O   UNL     1      33.708 -12.662 -22.801  0.00  0.00    -0.471 OA
ATOM     27  C   UNL     1      33.054 -11.890 -23.807  0.00  0.00    +0.252 C 
ENDBRANCH  25  26
ENDBRANCH  17  20
ENDBRANCH   1  17
BRANCH   9  28
ATOM     28  O   UNL     1      36.405 -22.248 -17.460  0.00  0.00    -0.468 OA
ATOM     29  C   UNL     1      37.006 -21.467 -16.429  0.00  0.00    +0.253 C 
ENDBRANCH   9  28
BRANCH  10  30
ATOM     30  O   UNL     1      33.798 -22.409 -16.511  0.00  0.00    -0.503 OA
ATOM     31  H   UNL     1      33.040 -22.179 -16.013  0.00  0.00    +0.292 HD
ENDBRANCH  10  30
TORSDOF 7
ENDMDL
MODEL 7
REMARK VINA RESULT:      -8.2      6.899     10.810
REMARK  Name = 15942651
REMARK  7 active torsions:
REMARK  status: ('A' for Active; 'I' for Inactive)
REMARK    1  A    between atoms: N_1  and  S_17
REMARK    2  A    between atoms: C_2  and  C_13
REMARK    3  A    between atoms: C_9  and  O_28
REMARK    4  A    between atoms: C_10  and  O_30
REMARK    5  A    between atoms: N_12  and  O_15
REMARK    6  A    between atoms: S_17  and  C_20
REMARK    7  A    between atoms: C_25  and  O_26
REMARK                            x       y       z     vdW  Elec       q    Type
REMARK                         _______ _______ _______ _____ _____    ______ ____
ROOT
ATOM      1  N   UNL     1      31.869  -6.122 -23.546  0.00  0.00    -0.144 NA
ATOM      2  C   UNL     1      33.262  -5.611 -23.776  0.00  0.00    +0.179 C 
ATOM      3  C   UNL     1      30.896  -5.637 -24.565  0.00  0.00    +0.101 C 
ATOM      4  C   UNL     1      31.341  -6.107 -25.944  0.00  0.00    +0.045 C 
ATOM      5  C   UNL     1      33.647  -5.387 -25.222  0.00  0.00    +0.002 C 
ATOM      6  C   UNL     1      32.727  -5.617 -26.260  0.00  0.00    -0.020 C 
ATOM      7  C   UNL     1      34.934  -4.925 -25.541  0.00  0.00    +0.037 C 
ATOM      8  C   UNL     1      33.118  -5.426 -27.593  0.00  0.00    +0.035 C 
ATOM      9  C   UNL     1      35.309  -4.722 -26.870  0.00  0.00    +0.172 C 
ATOM     10  C   UNL     1      34.402  -4.978 -27.895  0.00  0.00    +0.167 C 
ENDROOT
BRANCH   2  13
ATOM     11  O   UNL     1      34.666  -6.496 -22.066  0.00  0.00    -0.271 OA
ATOM     12  N   UNL     1      34.256  -7.783 -23.942  0.00  0.00    -0.196 N 
ATOM     13  C   UNL     1      34.137  -6.662 -23.163  0.00  0.00    +0.265 C 
ATOM     14  H   UNL     1      33.809  -7.865 -24.815  0.00  0.00    +0.182 HD
BRANCH  12  15
ATOM     15  O   UNL     1      35.053  -8.809 -23.415  0.00  0.00    -0.295 OA
ATOM     16  H   UNL     1      34.829  -8.946 -22.481  0.00  0.00    +0.241 HD
ENDBRANCH  12  15
ENDBRANCH   2  13
BRANCH   1  17
ATOM     17  S   UNL     1      31.295  -6.063 -21.925  0.00  0.00    +0.064 S 
ATOM     18  O   UNL     1      29.929  -5.594 -21.933  0.00  0.00    -0.153 OA
ATOM     19  O   UNL     1      32.301  -5.433 -21.102  0.00  0.00    -0.153 OA
BRANCH  17  20
ATOM     20  C   UNL     1      31.279  -7.786 -21.550  0.00  0.00    +0.122 C 
ATOM     21  C   UNL     1      31.371  -8.195 -20.229  0.00  0.00    +0.023 C 
ATOM     22  C   UNL     1      31.175  -8.706 -22.582  0.00  0.00    +0.023 C 
ATOM     23  C   UNL     1      31.358  -9.557 -19.933  0.00  0.00    +0.038 C 
ATOM     24  C   UNL     1      31.162 -10.068 -22.286  0.00  0.00    +0.038 C 
ATOM     25  C   UNL     1      31.254 -10.495 -20.961  0.00  0.00    +0.139 C 
BRANCH  25  26
ATOM     26  O   UNL     1      31.241 -11.824 -20.671  0.00  0.00    -0.471 OA
ATOM     27  C   UNL     1      32.024 -12.678 -21.504  0.00  0.00    +0.252 C 
ENDBRANCH  25  26
ENDBRANCH  17  20
ENDBRANCH   1  17
BRANCH   9  28
ATOM     28  O   UNL     1      36.566  -4.278 -27.150  0.00  0.00    -0.468 OA
ATOM     29  C   UNL     1      36.796  -2.874 -27.043  0.00  0.00    +0.253 C 
ENDBRANCH   9  28
BRANCH  10  30
ATOM     30  O   UNL     1      34.758  -4.793 -29.196  0.00  0.00    -0.503 OA
ATOM     31  H   UNL     1      34.890  -5.532 -29.756  0.00  0.00    +0.292 HD
ENDBRANCH  10  30
TORSDOF 7
ENDMDL
MODEL 8
REMARK VINA RESULT:      -8.1      1.894      7.011
REMARK  Name = 15942651
REMARK  7 active torsions:
REMARK  status: ('A' for Active; 'I' for Inactive)
REMARK    1  A    between atoms: N_1  and  S_17
REMARK    2  A    between atoms: C_2  and  C_13
REMARK    3  A    between atoms: C_9  and  O_28
REMARK    4  A    between atoms: C_10  and  O_30
REMARK    5  A    between atoms: N_12  and  O_15
REMARK    6  A    between atoms: S_17  and  C_20
REMARK    7  A    between atoms: C_25  and  O_26
REMARK                            x       y       z     vdW  Elec       q    Type
REMARK                         _______ _______ _______ _____ _____    ______ ____
ROOT
ATOM      1  N   UNL     1      34.654 -17.031 -23.318  0.00  0.00    -0.144 NA
ATOM      2  C   UNL     1      33.620 -17.998 -22.818  0.00  0.00    +0.179 C 
ATOM      3  C   UNL     1      35.605 -16.595 -22.256  0.00  0.00    +0.101 C 
ATOM      4  C   UNL     1      36.335 -17.814 -21.707  0.00  0.00    +0.045 C 
ATOM      5  C   UNL     1      34.068 -18.918 -21.702  0.00  0.00    +0.002 C 
ATOM      6  C   UNL     1      35.364 -18.826 -21.165  0.00  0.00    -0.020 C 
ATOM      7  C   UNL     1      33.177 -19.868 -21.177  0.00  0.00    +0.037 C 
ATOM      8  C   UNL     1      35.761 -19.708 -20.150  0.00  0.00    +0.035 C 
ATOM      9  C   UNL     1      33.577 -20.730 -20.156  0.00  0.00    +0.172 C 
ATOM     10  C   UNL     1      34.870 -20.652 -19.646  0.00  0.00    +0.167 C 
ENDROOT
BRANCH   2  13
ATOM     11  O   UNL     1      34.014 -19.644 -24.494  0.00  0.00    -0.271 OA
ATOM     12  N   UNL     1      32.018 -18.480 -24.531  0.00  0.00    -0.196 N 
ATOM     13  C   UNL     1      33.255 -18.795 -24.032  0.00  0.00    +0.265 C 
ATOM     14  H   UNL     1      31.448 -17.790 -24.120  0.00  0.00    +0.182 HD
BRANCH  12  15
ATOM     15  O   UNL     1      31.614 -19.202 -25.661  0.00  0.00    -0.295 OA
ATOM     16  H   UNL     1      30.657 -19.101 -25.785  0.00  0.00    +0.241 HD
ENDBRANCH  12  15
ENDBRANCH   2  13
BRANCH   1  17
ATOM     17  S   UNL     1      34.084 -15.764 -24.332  0.00  0.00    +0.064 S 
ATOM     18  O   UNL     1      32.950 -16.246 -25.084  0.00  0.00    -0.153 OA
ATOM     19  O   UNL     1      35.217 -15.154 -24.988  0.00  0.00    -0.153 OA
BRANCH  17  20
ATOM     20  C   UNL     1      33.491 -14.644 -23.106  0.00  0.00    +0.122 C 
ATOM     21  C   UNL     1      33.892 -14.803 -21.789  0.00  0.00    +0.023 C 
ATOM     22  C   UNL     1      32.631 -13.621 -23.477  0.00  0.00    +0.023 C 
ATOM     23  C   UNL     1      33.423 -13.917 -20.819  0.00  0.00    +0.038 C 
ATOM     24  C   UNL     1      32.162 -12.736 -22.507  0.00  0.00    +0.038 C 
ATOM     25  C   UNL     1      32.557 -12.883 -21.178  0.00  0.00    +0.139 C 
BRANCH  25  26
ATOM     26  O   UNL     1      32.099 -12.020 -20.232  0.00  0.00    -0.471 OA
ATOM     27  C   UNL     1      31.288 -10.935 -20.680  0.00  0.00    +0.252 C 
ENDBRANCH  25  26
ENDBRANCH  17  20
ENDBRANCH   1  17
BRANCH   9  28
ATOM     28  O   UNL     1      32.693 -21.645 -19.669  0.00  0.00    -0.468 OA
ATOM     29  C   UNL     1      32.030 -21.320 -18.448  0.00  0.00    +0.253 C 
ENDBRANCH   9  28
BRANCH  10  30
ATOM     30  O   UNL     1      35.275 -21.495 -18.656  0.00  0.00    -0.503 OA
ATOM     31  H   UNL     1      36.188 -21.655 -18.521  0.00  0.00    +0.292 HD
ENDBRANCH  10  30
TORSDOF 7
ENDMDL
MODEL 9
REMARK VINA RESULT:      -7.9      5.447     11.011
REMARK  Name = 15942651
REMARK  7 active torsions:
REMARK  status: ('A' for Active; 'I' for Inactive)
REMARK    1  A    between atoms: N_1  and  S_17
REMARK    2  A    between atoms: C_2  and  C_13
REMARK    3  A    between atoms: C_9  and  O_28
REMARK    4  A    between atoms: C_10  and  O_30
REMARK    5  A    between atoms: N_12  and  O_15
REMARK    6  A    between atoms: S_17  and  C_20
REMARK    7  A    between atoms: C_25  and  O_26
REMARK                            x       y       z     vdW  Elec       q    Type
REMARK                         _______ _______ _______ _____ _____    ______ ____
ROOT
ATOM      1  N   UNL     1      34.401 -22.894 -16.278  0.00  0.00    -0.144 NA
ATOM      2  C   UNL     1      34.101 -22.962 -14.809  0.00  0.00    +0.179 C 
ATOM      3  C   UNL     1      35.547 -21.996 -16.597  0.00  0.00    +0.101 C 
ATOM      4  C   UNL     1      36.795 -22.509 -15.892  0.00  0.00    +0.045 C 
ATOM      5  C   UNL     1      35.293 -22.811 -13.889  0.00  0.00    +0.002 C 
ATOM      6  C   UNL     1      36.581 -22.587 -14.405  0.00  0.00    -0.020 C 
ATOM      7  C   UNL     1      35.117 -22.875 -12.497  0.00  0.00    +0.037 C 
ATOM      8  C   UNL     1      37.672 -22.477 -13.532  0.00  0.00    +0.035 C 
ATOM      9  C   UNL     1      36.206 -22.748 -11.636  0.00  0.00    +0.172 C 
ATOM     10  C   UNL     1      37.484 -22.554 -12.153  0.00  0.00    +0.167 C 
ENDROOT
BRANCH   2  13
ATOM     11  O   UNL     1      34.075 -25.341 -14.936  0.00  0.00    -0.271 OA
ATOM     12  N   UNL     1      32.215 -24.255 -14.098  0.00  0.00    -0.196 N 
ATOM     13  C   UNL     1      33.476 -24.312 -14.631  0.00  0.00    +0.265 C 
ATOM     14  H   UNL     1      31.781 -23.401 -13.871  0.00  0.00    +0.182 HD
BRANCH  12  15
ATOM     15  O   UNL     1      31.582 -25.489 -13.896  0.00  0.00    -0.295 OA
ATOM     16  H   UNL     1      31.750 -25.794 -12.990  0.00  0.00    +0.241 HD
ENDBRANCH  12  15
ENDBRANCH   2  13
BRANCH   1  17
ATOM     17  S   UNL     1      33.046 -22.723 -17.325  0.00  0.00    +0.064 S 
ATOM     18  O   UNL     1      32.000 -22.022 -16.618  0.00  0.00    -0.153 OA
ATOM     19  O   UNL     1      32.799 -23.992 -17.970  0.00  0.00    -0.153 OA
BRANCH  17  20
ATOM     20  C   UNL     1      33.729 -21.622 -18.522  0.00  0.00    +0.122 C 
ATOM     21  C   UNL     1      32.881 -20.819 -19.268  0.00  0.00    +0.023 C 
ATOM     22  C   UNL     1      35.103 -21.578 -18.699  0.00  0.00    +0.023 C 
ATOM     23  C   UNL     1      33.421 -19.948 -20.214  0.00  0.00    +0.038 C 
ATOM     24  C   UNL     1      35.643 -20.708 -19.646  0.00  0.00    +0.038 C 
ATOM     25  C   UNL     1      34.803 -19.893 -20.404  0.00  0.00    +0.139 C 
BRANCH  25  26
ATOM     26  O   UNL     1      35.329 -19.043 -21.327  0.00  0.00    -0.471 OA
ATOM     27  C   UNL     1      34.458 -18.586 -22.360  0.00  0.00    +0.252 C 
ENDBRANCH  25  26
ENDBRANCH  17  20
ENDBRANCH   1  17
BRANCH   9  28
ATOM     28  O   UNL     1      36.007 -22.820 -10.290  0.00  0.00    -0.468 OA
ATOM     29  C   UNL     1      35.371 -23.995  -9.791  0.00  0.00    +0.253 C 
ENDBRANCH   9  28
BRANCH  10  30
ATOM     30  O   UNL     1      38.557 -22.437 -11.323  0.00  0.00    -0.503 OA
ATOM     31  H   UNL     1      39.350 -22.047 -11.634  0.00  0.00    +0.292 HD
ENDBRANCH  10  30
TORSDOF 7
ENDMDL
