MODEL 1
REMARK VINA RESULT:     -12.7      0.000      0.000
REMARK  Name = 9823820
REMARK  6 active torsions:
REMARK  status: ('A' for Active; 'I' for Inactive)
REMARK    1  A    between atoms: O_1  and  C_4
REMARK    2  A    between atoms: O_1  and  C_23
REMARK    3  A    between atoms: C_7  and  C_14
REMARK    4  A    between atoms: C_8  and  O_17
REMARK    5  A    between atoms: C_20  and  N_28
REMARK    6  A    between atoms: N_27  and  C_32
REMARK                            x       y       z     vdW  Elec       q    Type
REMARK                         _______ _______ _______ _____ _____    ______ ____
ROOT
ATOM      1  O   UNL     1      34.245 -22.250 -18.191  0.00  0.00    -0.454 OA
ENDROOT
BRANCH   1   4
ATOM      2  N   UNL     1      36.995 -21.889 -15.109  0.00  0.00    -0.248 NA
ATOM      3  C   UNL     1      34.794 -22.526 -15.856  0.00  0.00    +0.031 C 
ATOM      4  C   UNL     1      35.133 -22.141 -17.160  0.00  0.00    +0.144 C 
ATOM      5  C   UNL     1      35.769 -22.381 -14.848  0.00  0.00    +0.066 C 
ATOM      6  C   UNL     1      33.525 -23.043 -15.547  0.00  0.00    +0.064 C 
ATOM      7  C   UNL     1      33.215 -23.418 -14.243  0.00  0.00    +0.065 C 
ATOM      8  C   UNL     1      34.170 -23.279 -13.245  0.00  0.00    +0.123 C 
ATOM      9  C   UNL     1      35.432 -22.765 -13.552  0.00  0.00    +0.109 C 
ATOM     10  C   UNL     1      36.394 -21.634 -17.433  0.00  0.00    +0.058 C 
ATOM     11  C   UNL     1      37.281 -21.529 -16.381  0.00  0.00    +0.102 C 
BRANCH   7  14
ATOM     12  O   UNL     1      30.866 -23.431 -14.417  0.00  0.00    -0.271 OA
ATOM     13  N   UNL     1      31.817 -25.080 -13.138  0.00  0.00    -0.325 N 
ATOM     14  C   UNL     1      31.893 -23.952 -13.949  0.00  0.00    +0.242 C 
ATOM     15  H   UNL     1      30.941 -25.470 -12.918  0.00  0.00    +0.145 HD
ATOM     16  H   UNL     1      32.641 -25.489 -12.786  0.00  0.00    +0.145 HD
ENDBRANCH   7  14
BRANCH   8  17
ATOM     17  O   UNL     1      33.898 -23.638 -11.958  0.00  0.00    -0.475 OA
ATOM     18  C   UNL     1      35.011 -23.961 -11.126  0.00  0.00    +0.252 C 
ENDBRANCH   8  17
ENDBRANCH   1   4
BRANCH   1  23
ATOM     19 CL   UNL     1      36.867 -18.932 -20.992  0.00  0.00    -0.081 Cl
ATOM     20  C   UNL     1      34.149 -19.177 -20.980  0.00  0.00    +0.062 C 
ATOM     21  C   UNL     1      35.371 -19.626 -20.478  0.00  0.00    +0.074 C 
ATOM     22  C   UNL     1      32.960 -19.762 -20.545  0.00  0.00    +0.019 C 
ATOM     23  C   UNL     1      34.213 -21.227 -19.121  0.00  0.00    +0.146 C 
ATOM     24  C   UNL     1      35.403 -20.659 -19.542  0.00  0.00    +0.050 C 
ATOM     25  C   UNL     1      32.992 -20.795 -19.608  0.00  0.00    +0.039 C 
BRANCH  20  28
ATOM     26  O   UNL     1      34.655 -16.232 -20.676  0.00  0.00    -0.252 OA
ATOM     27  N   UNL     1      34.151 -16.065 -22.924  0.00  0.00    -0.290 N 
ATOM     28  N   UNL     1      34.081 -18.145 -21.920  0.00  0.00    -0.268 N 
ATOM     29  C   UNL     1      34.327 -16.773 -21.730  0.00  0.00    +0.304 C 
ATOM     30  H   UNL     1      33.888 -16.561 -23.733  0.00  0.00    +0.151 HD
ATOM     31  H   UNL     1      33.827 -18.412 -22.832  0.00  0.00    +0.156 HD
BRANCH  27  32
ATOM     32  C   UNL     1      34.337 -14.645 -23.020  0.00  0.00    +0.073 C 
ATOM     33  C   UNL     1      33.546 -13.710 -22.164  0.00  0.00    +0.021 C 
ATOM     34  C   UNL     1      33.291 -13.778 -23.640  0.00  0.00    +0.021 C 
ENDBRANCH  27  32
ENDBRANCH  20  28
ENDBRANCH   1  23
TORSDOF 6
ENDMDL
MODEL 2
REMARK VINA RESULT:     -12.7      1.626      2.714
REMARK  Name = 9823820
REMARK  6 active torsions:
REMARK  status: ('A' for Active; 'I' for Inactive)
REMARK    1  A    between atoms: O_1  and  C_4
REMARK    2  A    between atoms: O_1  and  C_23
REMARK    3  A    between atoms: C_7  and  C_14
REMARK    4  A    between atoms: C_8  and  O_17
REMARK    5  A    between atoms: C_20  and  N_28
REMARK    6  A    between atoms: N_27  and  C_32
REMARK                            x       y       z     vdW  Elec       q    Type
REMARK                         _______ _______ _______ _____ _____    ______ ____
ROOT
ATOM      1  O   UNL     1      34.166 -22.733 -17.959  0.00  0.00    -0.454 OA
ENDROOT
BRANCH   1   4
ATOM      2  N   UNL     1      31.333 -22.709 -14.931  0.00  0.00    -0.248 NA
ATOM      3  C   UNL     1      33.603 -23.096 -15.639  0.00  0.00    +0.031 C 
ATOM      4  C   UNL     1      33.251 -22.733 -16.946  0.00  0.00    +0.144 C 
ATOM      5  C   UNL     1      32.599 -23.070 -14.650  0.00  0.00    +0.066 C 
ATOM      6  C   UNL     1      34.914 -23.478 -15.309  0.00  0.00    +0.064 C 
ATOM      7  C   UNL     1      35.237 -23.834 -14.003  0.00  0.00    +0.065 C 
ATOM      8  C   UNL     1      34.253 -23.810 -13.023  0.00  0.00    +0.123 C 
ATOM      9  C   UNL     1      32.949 -23.430 -13.351  0.00  0.00    +0.109 C 
ATOM     10  C   UNL     1      31.948 -22.361 -17.240  0.00  0.00    +0.058 C 
ATOM     11  C   UNL     1      31.034 -22.365 -16.205  0.00  0.00    +0.102 C 
BRANCH   7  14
ATOM     12  O   UNL     1      37.537 -23.406 -13.726  0.00  0.00    -0.271 OA
ATOM     13  N   UNL     1      36.828 -25.547 -13.316  0.00  0.00    -0.325 N 
ATOM     14  C   UNL     1      36.603 -24.226 -13.686  0.00  0.00    +0.242 C 
ATOM     15  H   UNL     1      37.738 -25.849 -13.093  0.00  0.00    +0.145 HD
ATOM     16  H   UNL     1      36.076 -26.181 -13.275  0.00  0.00    +0.145 HD
ENDBRANCH   7  14
BRANCH   8  17
ATOM     17  O   UNL     1      34.538 -24.152 -11.735  0.00  0.00    -0.475 OA
ATOM     18  C   UNL     1      35.238 -23.189 -10.948  0.00  0.00    +0.252 C 
ENDBRANCH   8  17
ENDBRANCH   1   4
BRANCH   1  23
ATOM     19 CL   UNL     1      36.757 -19.295 -20.643  0.00  0.00    -0.081 Cl
ATOM     20  C   UNL     1      34.043 -19.581 -20.657  0.00  0.00    +0.062 C 
ATOM     21  C   UNL     1      35.268 -20.026 -20.161  0.00  0.00    +0.074 C 
ATOM     22  C   UNL     1      32.860 -20.196 -20.247  0.00  0.00    +0.019 C 
ATOM     23  C   UNL     1      34.125 -21.684 -18.859  0.00  0.00    +0.146 C 
ATOM     24  C   UNL     1      35.309 -21.086 -19.254  0.00  0.00    +0.050 C 
ATOM     25  C   UNL     1      32.901 -21.256 -19.341  0.00  0.00    +0.039 C 
BRANCH  20  28
ATOM     26  O   UNL     1      34.912 -16.718 -20.391  0.00  0.00    -0.252 OA
ATOM     27  N   UNL     1      34.133 -16.437 -22.547  0.00  0.00    -0.290 N 
ATOM     28  N   UNL     1      33.965 -18.523 -21.567  0.00  0.00    -0.268 N 
ATOM     29  C   UNL     1      34.387 -17.191 -21.397  0.00  0.00    +0.304 C 
ATOM     30  H   UNL     1      33.710 -16.880 -23.318  0.00  0.00    +0.151 HD
ATOM     31  H   UNL     1      33.563 -18.736 -22.439  0.00  0.00    +0.156 HD
BRANCH  27  32
ATOM     32  C   UNL     1      34.462 -15.044 -22.650  0.00  0.00    +0.073 C 
ATOM     33  C   UNL     1      33.717 -14.020 -21.857  0.00  0.00    +0.021 C 
ATOM     34  C   UNL     1      33.545 -14.092 -23.346  0.00  0.00    +0.021 C 
ENDBRANCH  27  32
ENDBRANCH  20  28
ENDBRANCH   1  23
TORSDOF 6
ENDMDL
MODEL 3
REMARK VINA RESULT:     -12.5      1.630      2.116
REMARK  Name = 9823820
REMARK  6 active torsions:
REMARK  status: ('A' for Active; 'I' for Inactive)
REMARK    1  A    between atoms: O_1  and  C_4
REMARK    2  A    between atoms: O_1  and  C_23
REMARK    3  A    between atoms: C_7  and  C_14
REMARK    4  A    between atoms: C_8  and  O_17
REMARK    5  A    between atoms: C_20  and  N_28
REMARK    6  A    between atoms: N_27  and  C_32
REMARK                            x       y       z     vdW  Elec       q    Type
REMARK                         _______ _______ _______ _____ _____    ______ ____
ROOT
ATOM      1  O   UNL     1      34.044 -22.580 -18.611  0.00  0.00    -0.454 OA
ENDROOT
BRANCH   1   4
ATOM      2  N   UNL     1      34.814 -22.141 -14.560  0.00  0.00    -0.248 NA
ATOM      3  C   UNL     1      33.233 -22.526 -16.337  0.00  0.00    +0.031 C 
ATOM      4  C   UNL     1      34.273 -22.439 -17.272  0.00  0.00    +0.144 C 
ATOM      5  C   UNL     1      33.553 -22.369 -14.973  0.00  0.00    +0.066 C 
ATOM      6  C   UNL     1      31.906 -22.763 -16.732  0.00  0.00    +0.064 C 
ATOM      7  C   UNL     1      30.892 -22.845 -15.782  0.00  0.00    +0.065 C 
ATOM      8  C   UNL     1      31.199 -22.691 -14.436  0.00  0.00    +0.123 C 
ATOM      9  C   UNL     1      32.520 -22.456 -14.043  0.00  0.00    +0.109 C 
ATOM     10  C   UNL     1      35.573 -22.205 -16.851  0.00  0.00    +0.058 C 
ATOM     11  C   UNL     1      35.789 -22.065 -15.495  0.00  0.00    +0.102 C 
BRANCH   7  14
ATOM     12  O   UNL     1      28.897 -22.252 -16.886  0.00  0.00    -0.271 OA
ATOM     13  N   UNL     1      28.946 -24.308 -15.872  0.00  0.00    -0.325 N 
ATOM     14  C   UNL     1      29.524 -23.091 -16.216  0.00  0.00    +0.242 C 
ATOM     15  H   UNL     1      28.023 -24.511 -16.148  0.00  0.00    +0.145 HD
ATOM     16  H   UNL     1      29.460 -24.968 -15.352  0.00  0.00    +0.145 HD
ENDBRANCH   7  14
BRANCH   8  17
ATOM     17  O   UNL     1      30.229 -22.767 -13.482  0.00  0.00    -0.475 OA
ATOM     18  C   UNL     1      30.199 -23.948 -12.681  0.00  0.00    +0.252 C 
ENDBRANCH   8  17
ENDBRANCH   1   4
BRANCH   1  23
ATOM     19 CL   UNL     1      36.795 -18.986 -20.902  0.00  0.00    -0.081 Cl
ATOM     20  C   UNL     1      34.071 -19.142 -20.936  0.00  0.00    +0.062 C 
ATOM     21  C   UNL     1      35.273 -19.697 -20.498  0.00  0.00    +0.074 C 
ATOM     22  C   UNL     1      32.860 -19.743 -20.593  0.00  0.00    +0.019 C 
ATOM     23  C   UNL     1      34.053 -21.435 -19.386  0.00  0.00    +0.146 C 
ATOM     24  C   UNL     1      35.264 -20.853 -19.717  0.00  0.00    +0.050 C 
ATOM     25  C   UNL     1      32.851 -20.899 -19.812  0.00  0.00    +0.039 C 
BRANCH  20  28
ATOM     26  O   UNL     1      34.559 -16.273 -20.192  0.00  0.00    -0.252 OA
ATOM     27  N   UNL     1      34.156 -15.784 -22.413  0.00  0.00    -0.290 N 
ATOM     28  N   UNL     1      34.043 -17.986 -21.721  0.00  0.00    -0.268 N 
ATOM     29  C   UNL     1      34.279 -16.656 -21.326  0.00  0.00    +0.304 C 
ATOM     30  H   UNL     1      33.930 -16.158 -23.295  0.00  0.00    +0.151 HD
ATOM     31  H   UNL     1      33.831 -18.118 -22.673  0.00  0.00    +0.156 HD
BRANCH  27  32
ATOM     32  C   UNL     1      34.345 -14.366 -22.296  0.00  0.00    +0.073 C 
ATOM     33  C   UNL     1      33.419 -13.537 -21.466  0.00  0.00    +0.021 C 
ATOM     34  C   UNL     1      33.406 -13.413 -22.961  0.00  0.00    +0.021 C 
ENDBRANCH  27  32
ENDBRANCH  20  28
ENDBRANCH   1  23
TORSDOF 6
ENDMDL
MODEL 4
REMARK VINA RESULT:     -12.4      3.097     10.087
REMARK  Name = 9823820
REMARK  6 active torsions:
REMARK  status: ('A' for Active; 'I' for Inactive)
REMARK    1  A    between atoms: O_1  and  C_4
REMARK    2  A    between atoms: O_1  and  C_23
REMARK    3  A    between atoms: C_7  and  C_14
REMARK    4  A    between atoms: C_8  and  O_17
REMARK    5  A    between atoms: C_20  and  N_28
REMARK    6  A    between atoms: N_27  and  C_32
REMARK                            x       y       z     vdW  Elec       q    Type
REMARK                         _______ _______ _______ _____ _____    ______ ____
ROOT
ATOM      1  O   UNL     1      35.476 -18.547 -21.441  0.00  0.00    -0.454 OA
ENDROOT
BRANCH   1   4
ATOM      2  N   UNL     1      33.489 -18.120 -25.056  0.00  0.00    -0.248 NA
ATOM      3  C   UNL     1      34.293 -17.140 -23.007  0.00  0.00    +0.031 C 
ATOM      4  C   UNL     1      34.818 -18.382 -22.626  0.00  0.00    +0.144 C 
ATOM      5  C   UNL     1      33.627 -17.053 -24.247  0.00  0.00    +0.066 C 
ATOM      6  C   UNL     1      34.418 -16.006 -22.187  0.00  0.00    +0.064 C 
ATOM      7  C   UNL     1      33.887 -14.784 -22.589  0.00  0.00    +0.065 C 
ATOM      8  C   UNL     1      33.230 -14.690 -23.810  0.00  0.00    +0.123 C 
ATOM      9  C   UNL     1      33.106 -15.819 -24.625  0.00  0.00    +0.109 C 
ATOM     10  C   UNL     1      34.678 -19.484 -23.457  0.00  0.00    +0.058 C 
ATOM     11  C   UNL     1      34.011 -19.301 -24.651  0.00  0.00    +0.102 C 
BRANCH   7  14
ATOM     12  O   UNL     1      34.168 -13.746 -20.494  0.00  0.00    -0.271 OA
ATOM     13  N   UNL     1      34.026 -12.366 -22.320  0.00  0.00    -0.325 N 
ATOM     14  C   UNL     1      34.030 -13.622 -21.723  0.00  0.00    +0.242 C 
ATOM     15  H   UNL     1      34.122 -11.557 -21.767  0.00  0.00    +0.145 HD
ATOM     16  H   UNL     1      33.929 -12.286 -23.297  0.00  0.00    +0.145 HD
ENDBRANCH   7  14
BRANCH   8  17
ATOM     17  O   UNL     1      32.700 -13.508 -24.232  0.00  0.00    -0.475 OA
ATOM     18  C   UNL     1      32.710 -13.259 -25.637  0.00  0.00    +0.252 C 
ENDBRANCH   8  17
ENDBRANCH   1   4
BRANCH   1  23
ATOM     19 CL   UNL     1      36.342 -21.766 -17.617  0.00  0.00    -0.081 Cl
ATOM     20  C   UNL     1      33.901 -21.271 -18.734  0.00  0.00    +0.062 C 
ATOM     21  C   UNL     1      35.269 -20.997 -18.731  0.00  0.00    +0.074 C 
ATOM     22  C   UNL     1      33.063 -20.630 -19.646  0.00  0.00    +0.019 C 
ATOM     23  C   UNL     1      34.952 -19.454 -20.538  0.00  0.00    +0.146 C 
ATOM     24  C   UNL     1      35.798 -20.081 -19.640  0.00  0.00    +0.050 C 
ATOM     25  C   UNL     1      33.592 -19.714 -20.555  0.00  0.00    +0.039 C 
BRANCH  20  28
ATOM     26  O   UNL     1      31.112 -21.449 -17.634  0.00  0.00    -0.252 OA
ATOM     27  N   UNL     1      31.852 -23.296 -16.461  0.00  0.00    -0.290 N 
ATOM     28  N   UNL     1      33.338 -22.182 -17.836  0.00  0.00    -0.268 N 
ATOM     29  C   UNL     1      32.020 -22.226 -17.346  0.00  0.00    +0.304 C 
ATOM     30  H   UNL     1      32.622 -23.881 -16.276  0.00  0.00    +0.151 HD
ATOM     31  H   UNL     1      33.943 -22.884 -17.502  0.00  0.00    +0.156 HD
BRANCH  27  32
ATOM     32  C   UNL     1      30.604 -23.578 -15.812  0.00  0.00    +0.073 C 
ATOM     33  C   UNL     1      30.149 -22.766 -14.642  0.00  0.00    +0.021 C 
ATOM     34  C   UNL     1      30.572 -24.192 -14.451  0.00  0.00    +0.021 C 
ENDBRANCH  27  32
ENDBRANCH  20  28
ENDBRANCH   1  23
TORSDOF 6
ENDMDL
MODEL 5
REMARK VINA RESULT:     -12.0      2.432      4.136
REMARK  Name = 9823820
REMARK  6 active torsions:
REMARK  status: ('A' for Active; 'I' for Inactive)
REMARK    1  A    between atoms: O_1  and  C_4
REMARK    2  A    between atoms: O_1  and  C_23
REMARK    3  A    between atoms: C_7  and  C_14
REMARK    4  A    between atoms: C_8  and  O_17
REMARK    5  A    between atoms: C_20  and  N_28
REMARK    6  A    between atoms: N_27  and  C_32
REMARK                            x       y       z     vdW  Elec       q    Type
REMARK                         _______ _______ _______ _____ _____    ______ ____
ROOT
ATOM      1  O   UNL     1      35.373 -20.014 -20.373  0.00  0.00    -0.454 OA
ENDROOT
BRANCH   1   4
ATOM      2  N   UNL     1      32.280 -21.944 -18.397  0.00  0.00    -0.248 NA
ATOM      3  C   UNL     1      34.597 -21.288 -18.473  0.00  0.00    +0.031 C 
ATOM      4  C   UNL     1      34.370 -20.656 -19.704  0.00  0.00    +0.144 C 
ATOM      5  C   UNL     1      33.508 -21.928 -17.847  0.00  0.00    +0.066 C 
ATOM      6  C   UNL     1      35.865 -21.291 -17.870  0.00  0.00    +0.064 C 
ATOM      7  C   UNL     1      36.062 -21.927 -16.647  0.00  0.00    +0.065 C 
ATOM      8  C   UNL     1      34.994 -22.559 -16.024  0.00  0.00    +0.123 C 
ATOM      9  C   UNL     1      33.733 -22.556 -16.624  0.00  0.00    +0.109 C 
ATOM     10  C   UNL     1      33.106 -20.670 -20.274  0.00  0.00    +0.058 C 
ATOM     11  C   UNL     1      32.103 -21.322 -19.586  0.00  0.00    +0.102 C 
BRANCH   7  14
ATOM     12  O   UNL     1      37.981 -20.850 -15.806  0.00  0.00    -0.271 OA
ATOM     13  N   UNL     1      37.958 -23.141 -15.716  0.00  0.00    -0.325 N 
ATOM     14  C   UNL     1      37.386 -21.916 -16.042  0.00  0.00    +0.242 C 
ATOM     15  H   UNL     1      38.852 -23.174 -15.304  0.00  0.00    +0.145 HD
ATOM     16  H   UNL     1      37.469 -23.976 -15.897  0.00  0.00    +0.145 HD
ENDBRANCH   7  14
BRANCH   8  17
ATOM     17  O   UNL     1      35.155 -23.189 -14.826  0.00  0.00    -0.475 OA
ATOM     18  C   UNL     1      34.893 -24.591 -14.791  0.00  0.00    +0.252 C 
ENDBRANCH   8  17
ENDBRANCH   1   4
BRANCH   1  23
ATOM     19 CL   UNL     1      33.267 -18.408 -24.699  0.00  0.00    -0.081 Cl
ATOM     20  C   UNL     1      34.330 -16.793 -22.773  0.00  0.00    +0.062 C 
ATOM     21  C   UNL     1      34.048 -18.093 -23.191  0.00  0.00    +0.074 C 
ATOM     22  C   UNL     1      34.961 -16.575 -21.549  0.00  0.00    +0.019 C 
ATOM     23  C   UNL     1      35.024 -18.941 -21.172  0.00  0.00    +0.146 C 
ATOM     24  C   UNL     1      34.399 -19.176 -22.384  0.00  0.00    +0.050 C 
ATOM     25  C   UNL     1      35.311 -17.658 -20.741  0.00  0.00    +0.039 C 
BRANCH  20  28
ATOM     26  O   UNL     1      33.106 -14.161 -21.999  0.00  0.00    -0.252 OA
ATOM     27  N   UNL     1      33.233 -13.612 -24.239  0.00  0.00    -0.290 N 
ATOM     28  N   UNL     1      33.992 -15.686 -23.557  0.00  0.00    -0.268 N 
ATOM     29  C   UNL     1      33.417 -14.468 -23.148  0.00  0.00    +0.304 C 
ATOM     30  H   UNL     1      33.506 -13.922 -25.134  0.00  0.00    +0.151 HD
ATOM     31  H   UNL     1      34.180 -15.769 -24.520  0.00  0.00    +0.156 HD
BRANCH  27  32
ATOM     32  C   UNL     1      32.664 -12.302 -24.111  0.00  0.00    +0.073 C 
ATOM     33  C   UNL     1      33.518 -11.127 -23.760  0.00  0.00    +0.021 C 
ATOM     34  C   UNL     1      32.525 -11.658 -22.770  0.00  0.00    +0.021 C 
ENDBRANCH  27  32
ENDBRANCH  20  28
ENDBRANCH   1  23
TORSDOF 6
ENDMDL
MODEL 6
REMARK VINA RESULT:     -11.8      6.861     14.339
REMARK  Name = 9823820
REMARK  6 active torsions:
REMARK  status: ('A' for Active; 'I' for Inactive)
REMARK    1  A    between atoms: O_1  and  C_4
REMARK    2  A    between atoms: O_1  and  C_23
REMARK    3  A    between atoms: C_7  and  C_14
REMARK    4  A    between atoms: C_8  and  O_17
REMARK    5  A    between atoms: C_20  and  N_28
REMARK    6  A    between atoms: N_27  and  C_32
REMARK                            x       y       z     vdW  Elec       q    Type
REMARK                         _______ _______ _______ _____ _____    ______ ____
ROOT
ATOM      1  O   UNL     1      31.182 -10.254 -22.357  0.00  0.00    -0.454 OA
ENDROOT
BRANCH   1   4
ATOM      2  N   UNL     1      31.652  -7.097 -19.710  0.00  0.00    -0.248 NA
ATOM      3  C   UNL     1      31.627  -7.911 -21.978  0.00  0.00    +0.031 C 
ATOM      4  C   UNL     1      31.341  -9.199 -21.505  0.00  0.00    +0.144 C 
ATOM      5  C   UNL     1      31.777  -6.876 -21.032  0.00  0.00    +0.066 C 
ATOM      6  C   UNL     1      31.765  -7.644 -23.350  0.00  0.00    +0.064 C 
ATOM      7  C   UNL     1      32.050  -6.355 -23.792  0.00  0.00    +0.065 C 
ATOM      8  C   UNL     1      32.198  -5.330 -22.866  0.00  0.00    +0.123 C 
ATOM      9  C   UNL     1      32.061  -5.596 -21.502  0.00  0.00    +0.109 C 
ATOM     10  C   UNL     1      31.211  -9.430 -20.144  0.00  0.00    +0.058 C 
ATOM     11  C   UNL     1      31.375  -8.355 -19.295  0.00  0.00    +0.102 C 
BRANCH   7  14
ATOM     12  O   UNL     1      31.283  -6.403 -26.019  0.00  0.00    -0.271 OA
ATOM     13  N   UNL     1      33.357  -5.496 -25.659  0.00  0.00    -0.325 N 
ATOM     14  C   UNL     1      32.187  -6.103 -25.219  0.00  0.00    +0.242 C 
ATOM     15  H   UNL     1      33.486  -5.309 -26.618  0.00  0.00    +0.145 HD
ATOM     16  H   UNL     1      34.058  -5.252 -25.012  0.00  0.00    +0.145 HD
ENDBRANCH   7  14
BRANCH   8  17
ATOM     17  O   UNL     1      32.476  -4.057 -23.268  0.00  0.00    -0.475 OA
ATOM     18  C   UNL     1      31.438  -3.090 -23.119  0.00  0.00    +0.252 C 
ENDBRANCH   8  17
ENDBRANCH   1   4
BRANCH   1  23
ATOM     19 CL   UNL     1      31.778 -14.387 -19.478  0.00  0.00    -0.081 Cl
ATOM     20  C   UNL     1      33.370 -13.694 -21.584  0.00  0.00    +0.062 C 
ATOM     21  C   UNL     1      32.268 -13.377 -20.791  0.00  0.00    +0.074 C 
ATOM     22  C   UNL     1      33.737 -12.857 -22.637  0.00  0.00    +0.019 C 
ATOM     23  C   UNL     1      31.910 -11.401 -22.100  0.00  0.00    +0.146 C 
ATOM     24  C   UNL     1      31.532 -12.220 -21.051  0.00  0.00    +0.050 C 
ATOM     25  C   UNL     1      33.001 -11.700 -22.897  0.00  0.00    +0.039 C 
BRANCH  20  28
ATOM     26  O   UNL     1      33.865 -16.087 -23.332  0.00  0.00    -0.252 OA
ATOM     27  N   UNL     1      35.160 -16.898 -21.600  0.00  0.00    -0.290 N 
ATOM     28  N   UNL     1      34.129 -14.845 -21.351  0.00  0.00    -0.268 N 
ATOM     29  C   UNL     1      34.332 -15.945 -22.203  0.00  0.00    +0.304 C 
ATOM     30  H   UNL     1      35.500 -16.721 -20.693  0.00  0.00    +0.151 HD
ATOM     31  H   UNL     1      34.579 -14.892 -20.476  0.00  0.00    +0.156 HD
BRANCH  27  32
ATOM     32  C   UNL     1      35.532 -18.124 -22.246  0.00  0.00    +0.073 C 
ATOM     33  C   UNL     1      34.497 -19.016 -22.851  0.00  0.00    +0.021 C 
ATOM     34  C   UNL     1      35.231 -19.443 -21.614  0.00  0.00    +0.021 C 
ENDBRANCH  27  32
ENDBRANCH  20  28
ENDBRANCH   1  23
TORSDOF 6
ENDMDL
MODEL 7
REMARK VINA RESULT:     -11.7      1.948      2.551
REMARK  Name = 9823820
REMARK  6 active torsions:
REMARK  status: ('A' for Active; 'I' for Inactive)
REMARK    1  A    between atoms: O_1  and  C_4
REMARK    2  A    between atoms: O_1  and  C_23
REMARK    3  A    between atoms: C_7  and  C_14
REMARK    4  A    between atoms: C_8  and  O_17
REMARK    5  A    between atoms: C_20  and  N_28
REMARK    6  A    between atoms: N_27  and  C_32
REMARK                            x       y       z     vdW  Elec       q    Type
REMARK                         _______ _______ _______ _____ _____    ______ ____
ROOT
ATOM      1  O   UNL     1      33.889 -22.845 -18.334  0.00  0.00    -0.454 OA
ENDROOT
BRANCH   1   4
ATOM      2  N   UNL     1      34.520 -22.561 -14.245  0.00  0.00    -0.248 NA
ATOM      3  C   UNL     1      32.990 -22.780 -16.093  0.00  0.00    +0.031 C 
ATOM      4  C   UNL     1      34.072 -22.753 -16.984  0.00  0.00    +0.144 C 
ATOM      5  C   UNL     1      33.264 -22.679 -14.714  0.00  0.00    +0.066 C 
ATOM      6  C   UNL     1      31.666 -22.902 -16.546  0.00  0.00    +0.064 C 
ATOM      7  C   UNL     1      30.610 -22.926 -15.640  0.00  0.00    +0.065 C 
ATOM      8  C   UNL     1      30.872 -22.828 -14.279  0.00  0.00    +0.123 C 
ATOM      9  C   UNL     1      32.189 -22.706 -13.829  0.00  0.00    +0.109 C 
ATOM     10  C   UNL     1      35.367 -22.631 -16.505  0.00  0.00    +0.058 C 
ATOM     11  C   UNL     1      35.537 -22.540 -15.138  0.00  0.00    +0.102 C 
BRANCH   7  14
ATOM     12  O   UNL     1      28.720 -22.159 -16.818  0.00  0.00    -0.271 OA
ATOM     13  N   UNL     1      28.557 -24.223 -15.833  0.00  0.00    -0.325 N 
ATOM     14  C   UNL     1      29.247 -23.054 -16.134  0.00  0.00    +0.242 C 
ATOM     15  H   UNL     1      27.633 -24.347 -16.150  0.00  0.00    +0.145 HD
ATOM     16  H   UNL     1      28.993 -24.929 -15.302  0.00  0.00    +0.145 HD
ENDBRANCH   7  14
BRANCH   8  17
ATOM     17  O   UNL     1      29.860 -22.849 -13.367  0.00  0.00    -0.475 OA
ATOM     18  C   UNL     1      29.805 -23.971 -12.487  0.00  0.00    +0.252 C 
ENDBRANCH   8  17
ENDBRANCH   1   4
BRANCH   1  23
ATOM     19 CL   UNL     1      36.800 -19.296 -20.492  0.00  0.00    -0.081 Cl
ATOM     20  C   UNL     1      34.072 -19.334 -20.540  0.00  0.00    +0.062 C 
ATOM     21  C   UNL     1      35.248 -19.955 -20.118  0.00  0.00    +0.074 C 
ATOM     22  C   UNL     1      32.835 -19.895 -20.221  0.00  0.00    +0.019 C 
ATOM     23  C   UNL     1      33.950 -21.676 -19.069  0.00  0.00    +0.146 C 
ATOM     24  C   UNL     1      35.186 -21.135 -19.376  0.00  0.00    +0.050 C 
ATOM     25  C   UNL     1      32.773 -21.075 -19.480  0.00  0.00    +0.039 C 
BRANCH  20  28
ATOM     26  O   UNL     1      34.145 -18.906 -23.512  0.00  0.00    -0.252 OA
ATOM     27  N   UNL     1      34.150 -16.646 -23.037  0.00  0.00    -0.290 N 
ATOM     28  N   UNL     1      34.098 -18.152 -21.284  0.00  0.00    -0.268 N 
ATOM     29  C   UNL     1      34.132 -17.999 -22.682  0.00  0.00    +0.304 C 
ATOM     30  H   UNL     1      34.138 -15.971 -22.320  0.00  0.00    +0.151 HD
ATOM     31  H   UNL     1      34.091 -17.317 -20.763  0.00  0.00    +0.156 HD
BRANCH  27  32
ATOM     32  C   UNL     1      34.186 -16.201 -24.400  0.00  0.00    +0.073 C 
ATOM     33  C   UNL     1      33.745 -14.821 -24.767  0.00  0.00    +0.021 C 
ATOM     34  C   UNL     1      32.924 -16.009 -25.175  0.00  0.00    +0.021 C 
ENDBRANCH  27  32
ENDBRANCH  20  28
ENDBRANCH   1  23
TORSDOF 6
ENDMDL
MODEL 8
REMARK VINA RESULT:     -11.6      2.527     10.428
REMARK  Name = 9823820
REMARK  6 active torsions:
REMARK  status: ('A' for Active; 'I' for Inactive)
REMARK    1  A    between atoms: O_1  and  C_4
REMARK    2  A    between atoms: O_1  and  C_23
REMARK    3  A    between atoms: C_7  and  C_14
REMARK    4  A    between atoms: C_8  and  O_17
REMARK    5  A    between atoms: C_20  and  N_28
REMARK    6  A    between atoms: N_27  and  C_32
REMARK                            x       y       z     vdW  Elec       q    Type
REMARK                         _______ _______ _______ _____ _____    ______ ____
ROOT
ATOM      1  O   UNL     1      35.510 -18.103 -21.491  0.00  0.00    -0.454 OA
ENDROOT
BRANCH   1   4
ATOM      2  N   UNL     1      33.402 -17.928 -25.057  0.00  0.00    -0.248 NA
ATOM      3  C   UNL     1      34.246 -16.814 -23.094  0.00  0.00    +0.031 C 
ATOM      4  C   UNL     1      34.812 -18.021 -22.661  0.00  0.00    +0.144 C 
ATOM      5  C   UNL     1      33.540 -16.813 -24.315  0.00  0.00    +0.066 C 
ATOM      6  C   UNL     1      34.371 -15.632 -22.346  0.00  0.00    +0.064 C 
ATOM      7  C   UNL     1      33.799 -14.447 -22.799  0.00  0.00    +0.065 C 
ATOM      8  C   UNL     1      33.102 -14.438 -24.001  0.00  0.00    +0.123 C 
ATOM      9  C   UNL     1      32.978 -15.614 -24.745  0.00  0.00    +0.109 C 
ATOM     10  C   UNL     1      34.671 -19.171 -23.423  0.00  0.00    +0.058 C 
ATOM     11  C   UNL     1      33.963 -19.072 -24.603  0.00  0.00    +0.102 C 
BRANCH   7  14
ATOM     12  O   UNL     1      34.124 -13.284 -20.777  0.00  0.00    -0.271 OA
ATOM     13  N   UNL     1      33.889 -12.016 -22.672  0.00  0.00    -0.325 N 
ATOM     14  C   UNL     1      33.943 -13.235 -22.006  0.00  0.00    +0.242 C 
ATOM     15  H   UNL     1      33.983 -11.174 -22.170  0.00  0.00    +0.145 HD
ATOM     16  H   UNL     1      33.758 -11.993 -23.648  0.00  0.00    +0.145 HD
ENDBRANCH   7  14
BRANCH   8  17
ATOM     17  O   UNL     1      32.532 -13.293 -24.472  0.00  0.00    -0.475 OA
ATOM     18  C   UNL     1      32.686 -13.018 -25.864  0.00  0.00    +0.252 C 
ENDBRANCH   8  17
ENDBRANCH   1   4
BRANCH   1  23
ATOM     19 CL   UNL     1      31.850 -20.817 -19.262  0.00  0.00    -0.081 Cl
ATOM     20  C   UNL     1      34.528 -21.172 -18.875  0.00  0.00    +0.062 C 
ATOM     21  C   UNL     1      33.519 -20.457 -19.521  0.00  0.00    +0.074 C 
ATOM     22  C   UNL     1      35.866 -20.856 -19.109  0.00  0.00    +0.019 C 
ATOM     23  C   UNL     1      35.183 -19.126 -20.620  0.00  0.00    +0.146 C 
ATOM     24  C   UNL     1      33.850 -19.426 -20.400  0.00  0.00    +0.050 C 
ATOM     25  C   UNL     1      36.197 -19.825 -19.988  0.00  0.00    +0.039 C 
BRANCH  20  28
ATOM     26  O   UNL     1      35.487 -21.673 -16.073  0.00  0.00    -0.252 OA
ATOM     27  N   UNL     1      34.174 -23.572 -16.121  0.00  0.00    -0.290 N 
ATOM     28  N   UNL     1      34.232 -22.212 -17.988  0.00  0.00    -0.268 N 
ATOM     29  C   UNL     1      34.709 -22.406 -16.679  0.00  0.00    +0.304 C 
ATOM     30  H   UNL     1      33.555 -24.113 -16.662  0.00  0.00    +0.151 HD
ATOM     31  H   UNL     1      33.610 -22.897 -18.324  0.00  0.00    +0.156 HD
BRANCH  27  32
ATOM     32  C   UNL     1      34.491 -24.014 -14.793  0.00  0.00    +0.073 C 
ATOM     33  C   UNL     1      35.902 -24.004 -14.300  0.00  0.00    +0.021 C 
ATOM     34  C   UNL     1      35.206 -25.306 -14.568  0.00  0.00    +0.021 C 
ENDBRANCH  27  32
ENDBRANCH  20  28
ENDBRANCH   1  23
TORSDOF 6
ENDMDL
MODEL 9
REMARK VINA RESULT:     -11.3      7.385     11.945
REMARK  Name = 9823820
REMARK  6 active torsions:
REMARK  status: ('A' for Active; 'I' for Inactive)
REMARK    1  A    between atoms: O_1  and  C_4
REMARK    2  A    between atoms: O_1  and  C_23
REMARK    3  A    between atoms: C_7  and  C_14
REMARK    4  A    between atoms: C_8  and  O_17
REMARK    5  A    between atoms: C_20  and  N_28
REMARK    6  A    between atoms: N_27  and  C_32
REMARK                            x       y       z     vdW  Elec       q    Type
REMARK                         _______ _______ _______ _____ _____    ______ ____
ROOT
ATOM      1  O   UNL     1      33.007 -11.864 -22.545  0.00  0.00    -0.454 OA
ENDROOT
BRANCH   1   4
ATOM      2  N   UNL     1      33.026 -14.299 -25.901  0.00  0.00    -0.248 NA
ATOM      3  C   UNL     1      33.432 -14.022 -23.542  0.00  0.00    +0.031 C 
ATOM      4  C   UNL     1      33.022 -12.684 -23.636  0.00  0.00    +0.144 C 
ATOM      5  C   UNL     1      33.418 -14.803 -24.716  0.00  0.00    +0.066 C 
ATOM      6  C   UNL     1      33.847 -14.581 -22.322  0.00  0.00    +0.064 C 
ATOM      7  C   UNL     1      34.249 -15.911 -22.257  0.00  0.00    +0.065 C 
ATOM      8  C   UNL     1      34.238 -16.688 -23.409  0.00  0.00    +0.123 C 
ATOM      9  C   UNL     1      33.825 -16.132 -24.623  0.00  0.00    +0.109 C 
ATOM     10  C   UNL     1      32.617 -12.162 -24.855  0.00  0.00    +0.058 C 
ATOM     11  C   UNL     1      32.638 -13.004 -25.949  0.00  0.00    +0.102 C 
BRANCH   7  14
ATOM     12  O   UNL     1      34.303 -15.971 -19.904  0.00  0.00    -0.271 OA
ATOM     13  N   UNL     1      35.496 -17.589 -21.007  0.00  0.00    -0.325 N 
ATOM     14  C   UNL     1      34.674 -16.468 -20.981  0.00  0.00    +0.242 C 
ATOM     15  H   UNL     1      35.803 -17.994 -20.163  0.00  0.00    +0.145 HD
ATOM     16  H   UNL     1      35.770 -17.979 -21.868  0.00  0.00    +0.145 HD
ENDBRANCH   7  14
BRANCH   8  17
ATOM     17  O   UNL     1      34.624 -17.994 -23.378  0.00  0.00    -0.475 OA
ATOM     18  C   UNL     1      33.717 -18.952 -23.922  0.00  0.00    +0.252 C 
ENDBRANCH   8  17
ENDBRANCH   1   4
BRANCH   1  23
ATOM     19 CL   UNL     1      34.189  -7.178 -24.089  0.00  0.00    -0.081 Cl
ATOM     20  C   UNL     1      31.761  -7.944 -23.104  0.00  0.00    +0.062 C 
ATOM     21  C   UNL     1      33.064  -8.316 -23.439  0.00  0.00    +0.074 C 
ATOM     22  C   UNL     1      30.878  -8.889 -22.583  0.00  0.00    +0.019 C 
ATOM     23  C   UNL     1      32.592 -10.558 -22.733  0.00  0.00    +0.146 C 
ATOM     24  C   UNL     1      33.482  -9.633 -23.251  0.00  0.00    +0.050 C 
ATOM     25  C   UNL     1      31.296 -10.207 -22.396  0.00  0.00    +0.039 C 
BRANCH  20  28
ATOM     26  O   UNL     1      32.394  -5.444 -21.564  0.00  0.00    -0.252 OA
ATOM     27  N   UNL     1      30.970  -4.361 -23.025  0.00  0.00    -0.290 N 
ATOM     28  N   UNL     1      31.309  -6.633 -23.280  0.00  0.00    -0.268 N 
ATOM     29  C   UNL     1      31.634  -5.488 -22.529  0.00  0.00    +0.304 C 
ATOM     30  H   UNL     1      30.376  -4.468 -23.802  0.00  0.00    +0.151 HD
ATOM     31  H   UNL     1      30.681  -6.492 -24.025  0.00  0.00    +0.156 HD
BRANCH  27  32
ATOM     32  C   UNL     1      31.119  -3.056 -22.447  0.00  0.00    +0.073 C 
ATOM     33  C   UNL     1      29.922  -2.229 -22.105  0.00  0.00    +0.021 C 
ATOM     34  C   UNL     1      30.814  -1.829 -23.243  0.00  0.00    +0.021 C 
ENDBRANCH  27  32
ENDBRANCH  20  28
ENDBRANCH   1  23
TORSDOF 6
ENDMDL
