MODEL 1
REMARK VINA RESULT:     -11.6      0.000      0.000
REMARK  Name = 5281612
REMARK  5 active torsions:
REMARK  status: ('A' for Active; 'I' for Inactive)
REMARK    1  A    between atoms: C_4  and  C_12
REMARK    2  A    between atoms: C_8  and  O_22
REMARK    3  A    between atoms: C_10  and  O_24
REMARK    4  A    between atoms: C_15  and  O_20
REMARK    5  A    between atoms: C_16  and  O_18
REMARK                            x       y       z     vdW  Elec       q    Type
REMARK                         _______ _______ _______ _____ _____    ______ ____
ROOT
ATOM      1  O   UNL     1      34.222 -17.365 -21.025  0.00  0.00    -0.453 OA
ATOM      2  O   UNL     1      33.714 -18.204 -24.979  0.00  0.00    -0.286 OA
ATOM      3  C   UNL     1      33.920 -16.559 -23.296  0.00  0.00    +0.107 C 
ATOM      4  C   UNL     1      34.163 -18.670 -21.490  0.00  0.00    +0.149 C 
ATOM      5  C   UNL     1      34.096 -16.343 -21.931  0.00  0.00    +0.154 C 
ATOM      6  C   UNL     1      33.864 -17.941 -23.795  0.00  0.00    +0.205 C 
ATOM      7  C   UNL     1      34.002 -19.006 -22.781  0.00  0.00    +0.080 C 
ATOM      8  C   UNL     1      33.798 -15.478 -24.173  0.00  0.00    +0.143 C 
ATOM      9  C   UNL     1      34.153 -15.040 -21.433  0.00  0.00    +0.074 C 
ATOM     10  C   UNL     1      34.032 -13.958 -22.304  0.00  0.00    +0.140 C 
ATOM     11  C   UNL     1      33.854 -14.177 -23.671  0.00  0.00    +0.073 C 
ENDROOT
BRANCH   4  12
ATOM     12  C   UNL     1      34.314 -19.691 -20.434  0.00  0.00    +0.038 C 
ATOM     13  C   UNL     1      33.189 -20.331 -19.909  0.00  0.00    +0.043 C 
ATOM     14  C   UNL     1      35.584 -20.022 -19.954  0.00  0.00    +0.006 C 
ATOM     15  C   UNL     1      33.332 -21.295 -18.912  0.00  0.00    +0.168 C 
ATOM     16  C   UNL     1      34.601 -21.623 -18.436  0.00  0.00    +0.172 C 
ATOM     17  C   UNL     1      35.727 -20.986 -18.957  0.00  0.00    +0.040 C 
BRANCH  16  18
ATOM     18  O   UNL     1      34.754 -22.562 -17.462  0.00  0.00    -0.468 OA
ATOM     19  C   UNL     1      35.449 -22.166 -16.281  0.00  0.00    +0.253 C 
ENDBRANCH  16  18
BRANCH  15  20
ATOM     20  O   UNL     1      32.224 -21.910 -18.410  0.00  0.00    -0.503 OA
ATOM     21  H   UNL     1      32.205 -22.180 -17.513  0.00  0.00    +0.292 HD
ENDBRANCH  15  20
ENDBRANCH   4  12
BRANCH   8  22
ATOM     22  O   UNL     1      33.624 -15.637 -25.514  0.00  0.00    -0.505 OA
ATOM     23  H   UNL     1      33.763 -16.475 -25.908  0.00  0.00    +0.292 HD
ENDBRANCH   8  22
BRANCH  10  24
ATOM     24  O   UNL     1      34.088 -12.687 -21.821  0.00  0.00    -0.505 OA
ATOM     25  H   UNL     1      34.375 -11.988 -22.374  0.00  0.00    +0.292 HD
ENDBRANCH  10  24
TORSDOF 5
ENDMDL
MODEL 2
REMARK VINA RESULT:     -11.3      3.692      9.009
REMARK  Name = 5281612
REMARK  5 active torsions:
REMARK  status: ('A' for Active; 'I' for Inactive)
REMARK    1  A    between atoms: C_4  and  C_12
REMARK    2  A    between atoms: C_8  and  O_22
REMARK    3  A    between atoms: C_10  and  O_24
REMARK    4  A    between atoms: C_15  and  O_20
REMARK    5  A    between atoms: C_16  and  O_18
REMARK                            x       y       z     vdW  Elec       q    Type
REMARK                         _______ _______ _______ _____ _____    ______ ____
ROOT
ATOM      1  O   UNL     1      33.249 -13.154 -22.054  0.00  0.00    -0.453 OA
ATOM      2  O   UNL     1      33.002 -14.517 -25.885  0.00  0.00    -0.286 OA
ATOM      3  C   UNL     1      33.640 -14.942 -23.650  0.00  0.00    +0.107 C 
ATOM      4  C   UNL     1      32.729 -12.370 -23.073  0.00  0.00    +0.149 C 
ATOM      5  C   UNL     1      33.694 -14.414 -22.361  0.00  0.00    +0.154 C 
ATOM      6  C   UNL     1      33.083 -14.117 -24.732  0.00  0.00    +0.205 C 
ATOM      7  C   UNL     1      32.619 -12.767 -24.351  0.00  0.00    +0.080 C 
ATOM      8  C   UNL     1      34.109 -16.232 -23.905  0.00  0.00    +0.143 C 
ATOM      9  C   UNL     1      34.218 -15.177 -21.317  0.00  0.00    +0.074 C 
ATOM     10  C   UNL     1      34.687 -16.466 -21.567  0.00  0.00    +0.140 C 
ATOM     11  C   UNL     1      34.633 -16.993 -22.858  0.00  0.00    +0.073 C 
ENDROOT
BRANCH   4  12
ATOM     12  C   UNL     1      32.274 -11.036 -22.632  0.00  0.00    +0.038 C 
ATOM     13  C   UNL     1      32.725  -9.888 -23.288  0.00  0.00    +0.043 C 
ATOM     14  C   UNL     1      31.392 -10.915 -21.555  0.00  0.00    +0.006 C 
ATOM     15  C   UNL     1      32.296  -8.629 -22.872  0.00  0.00    +0.168 C 
ATOM     16  C   UNL     1      31.414  -8.512 -21.797  0.00  0.00    +0.172 C 
ATOM     17  C   UNL     1      30.963  -9.656 -21.139  0.00  0.00    +0.040 C 
BRANCH  16  18
ATOM     18  O   UNL     1      30.988  -7.287 -21.380  0.00  0.00    -0.468 OA
ATOM     19  C   UNL     1      31.595  -6.754 -20.205  0.00  0.00    +0.253 C 
ENDBRANCH  16  18
BRANCH  15  20
ATOM     20  O   UNL     1      32.744  -7.518 -23.522  0.00  0.00    -0.503 OA
ATOM     21  H   UNL     1      32.429  -7.320 -24.382  0.00  0.00    +0.292 HD
ENDBRANCH  15  20
ENDBRANCH   4  12
BRANCH   8  22
ATOM     22  O   UNL     1      34.078 -16.793 -25.146  0.00  0.00    -0.505 OA
ATOM     23  H   UNL     1      34.862 -16.842 -25.657  0.00  0.00    +0.292 HD
ENDBRANCH   8  22
BRANCH  10  24
ATOM     24  O   UNL     1      35.198 -17.213 -20.550  0.00  0.00    -0.505 OA
ATOM     25  H   UNL     1      34.772 -17.222 -19.715  0.00  0.00    +0.292 HD
ENDBRANCH  10  24
TORSDOF 5
ENDMDL
MODEL 3
REMARK VINA RESULT:     -10.8      1.587      7.566
REMARK  Name = 5281612
REMARK  5 active torsions:
REMARK  status: ('A' for Active; 'I' for Inactive)
REMARK    1  A    between atoms: C_4  and  C_12
REMARK    2  A    between atoms: C_8  and  O_22
REMARK    3  A    between atoms: C_10  and  O_24
REMARK    4  A    between atoms: C_15  and  O_20
REMARK    5  A    between atoms: C_16  and  O_18
REMARK                            x       y       z     vdW  Elec       q    Type
REMARK                         _______ _______ _______ _____ _____    ______ ____
ROOT
ATOM      1  O   UNL     1      35.228 -20.047 -19.552  0.00  0.00    -0.453 OA
ATOM      2  O   UNL     1      31.774 -21.937 -18.508  0.00  0.00    -0.286 OA
ATOM      3  C   UNL     1      34.076 -21.607 -18.090  0.00  0.00    +0.107 C 
ATOM      4  C   UNL     1      34.045 -19.833 -20.242  0.00  0.00    +0.149 C 
ATOM      5  C   UNL     1      35.221 -20.926 -18.499  0.00  0.00    +0.154 C 
ATOM      6  C   UNL     1      32.817 -21.377 -18.815  0.00  0.00    +0.205 C 
ATOM      7  C   UNL     1      32.877 -20.424 -19.941  0.00  0.00    +0.080 C 
ATOM      8  C   UNL     1      34.127 -22.491 -17.011  0.00  0.00    +0.143 C 
ATOM      9  C   UNL     1      36.428 -21.127 -17.828  0.00  0.00    +0.074 C 
ATOM     10  C   UNL     1      36.484 -22.008 -16.749  0.00  0.00    +0.140 C 
ATOM     11  C   UNL     1      35.336 -22.689 -16.341  0.00  0.00    +0.073 C 
ENDROOT
BRANCH   4  12
ATOM     12  C   UNL     1      34.163 -18.865 -21.351  0.00  0.00    +0.038 C 
ATOM     13  C   UNL     1      33.615 -19.161 -22.602  0.00  0.00    +0.043 C 
ATOM     14  C   UNL     1      34.825 -17.651 -21.156  0.00  0.00    +0.006 C 
ATOM     15  C   UNL     1      33.726 -18.247 -23.649  0.00  0.00    +0.168 C 
ATOM     16  C   UNL     1      34.387 -17.034 -23.450  0.00  0.00    +0.172 C 
ATOM     17  C   UNL     1      34.937 -16.737 -22.203  0.00  0.00    +0.040 C 
BRANCH  16  18
ATOM     18  O   UNL     1      34.504 -16.134 -24.465  0.00  0.00    -0.468 OA
ATOM     19  C   UNL     1      33.486 -15.140 -24.572  0.00  0.00    +0.253 C 
ENDBRANCH  16  18
BRANCH  15  20
ATOM     20  O   UNL     1      33.186 -18.549 -24.863  0.00  0.00    -0.503 OA
ATOM     21  H   UNL     1      32.365 -18.997 -24.912  0.00  0.00    +0.292 HD
ENDBRANCH  15  20
ENDBRANCH   4  12
BRANCH   8  22
ATOM     22  O   UNL     1      33.036 -23.179 -16.572  0.00  0.00    -0.505 OA
ATOM     23  H   UNL     1      32.303 -22.717 -16.217  0.00  0.00    +0.292 HD
ENDBRANCH   8  22
BRANCH  10  24
ATOM     24  O   UNL     1      37.659 -22.205 -16.092  0.00  0.00    -0.505 OA
ATOM     25  H   UNL     1      37.792 -22.985 -15.591  0.00  0.00    +0.292 HD
ENDBRANCH  10  24
TORSDOF 5
ENDMDL
MODEL 4
REMARK VINA RESULT:     -10.8      3.450     10.168
REMARK  Name = 5281612
REMARK  5 active torsions:
REMARK  status: ('A' for Active; 'I' for Inactive)
REMARK    1  A    between atoms: C_4  and  C_12
REMARK    2  A    between atoms: C_8  and  O_22
REMARK    3  A    between atoms: C_10  and  O_24
REMARK    4  A    between atoms: C_15  and  O_20
REMARK    5  A    between atoms: C_16  and  O_18
REMARK                            x       y       z     vdW  Elec       q    Type
REMARK                         _______ _______ _______ _____ _____    ______ ____
ROOT
ATOM      1  O   UNL     1      36.063 -23.296 -15.740  0.00  0.00    -0.453 OA
ATOM      2  O   UNL     1      33.152 -23.398 -12.892  0.00  0.00    -0.286 OA
ATOM      3  C   UNL     1      35.345 -24.004 -13.531  0.00  0.00    +0.107 C 
ATOM      4  C   UNL     1      34.824 -22.708 -15.945  0.00  0.00    +0.149 C 
ATOM      5  C   UNL     1      36.296 -23.931 -14.547  0.00  0.00    +0.154 C 
ATOM      6  C   UNL     1      34.032 -23.375 -13.741  0.00  0.00    +0.205 C 
ATOM      7  C   UNL     1      33.830 -22.706 -15.042  0.00  0.00    +0.080 C 
ATOM      8  C   UNL     1      35.637 -24.665 -12.336  0.00  0.00    +0.143 C 
ATOM      9  C   UNL     1      37.549 -24.520 -14.373  0.00  0.00    +0.074 C 
ATOM     10  C   UNL     1      37.846 -25.180 -13.181  0.00  0.00    +0.140 C 
ATOM     11  C   UNL     1      36.891 -25.253 -12.165  0.00  0.00    +0.073 C 
ENDROOT
BRANCH   4  12
ATOM     12  C   UNL     1      34.683 -22.047 -17.258  0.00  0.00    +0.038 C 
ATOM     13  C   UNL     1      33.442 -22.019 -17.899  0.00  0.00    +0.043 C 
ATOM     14  C   UNL     1      35.788 -21.448 -17.866  0.00  0.00    +0.006 C 
ATOM     15  C   UNL     1      33.308 -21.396 -19.139  0.00  0.00    +0.168 C 
ATOM     16  C   UNL     1      34.414 -20.798 -19.743  0.00  0.00    +0.172 C 
ATOM     17  C   UNL     1      35.655 -20.824 -19.105  0.00  0.00    +0.040 C 
BRANCH  16  18
ATOM     18  O   UNL     1      34.296 -20.186 -20.954  0.00  0.00    -0.468 OA
ATOM     19  C   UNL     1      34.535 -18.781 -20.998  0.00  0.00    +0.253 C 
ENDBRANCH  16  18
BRANCH  15  20
ATOM     20  O   UNL     1      32.091 -21.377 -19.753  0.00  0.00    -0.503 OA
ATOM     21  H   UNL     1      31.447 -20.747 -19.495  0.00  0.00    +0.292 HD
ENDBRANCH  15  20
ENDBRANCH   4  12
BRANCH   8  22
ATOM     22  O   UNL     1      34.742 -24.764 -11.313  0.00  0.00    -0.505 OA
ATOM     23  H   UNL     1      34.377 -25.597 -11.091  0.00  0.00    +0.292 HD
ENDBRANCH   8  22
BRANCH  10  24
ATOM     24  O   UNL     1      39.067 -25.754 -13.007  0.00  0.00    -0.505 OA
ATOM     25  H   UNL     1      39.228 -26.301 -12.264  0.00  0.00    +0.292 HD
ENDBRANCH  10  24
TORSDOF 5
ENDMDL
MODEL 5
REMARK VINA RESULT:     -10.6      1.564      2.260
REMARK  Name = 5281612
REMARK  5 active torsions:
REMARK  status: ('A' for Active; 'I' for Inactive)
REMARK    1  A    between atoms: C_4  and  C_12
REMARK    2  A    between atoms: C_8  and  O_22
REMARK    3  A    between atoms: C_10  and  O_24
REMARK    4  A    between atoms: C_15  and  O_20
REMARK    5  A    between atoms: C_16  and  O_18
REMARK                            x       y       z     vdW  Elec       q    Type
REMARK                         _______ _______ _______ _____ _____    ______ ____
ROOT
ATOM      1  O   UNL     1      33.900 -15.731 -21.329  0.00  0.00    -0.453 OA
ATOM      2  O   UNL     1      33.943 -15.428 -25.391  0.00  0.00    -0.286 OA
ATOM      3  C   UNL     1      33.456 -14.408 -23.316  0.00  0.00    +0.107 C 
ATOM      4  C   UNL     1      34.335 -16.775 -22.131  0.00  0.00    +0.149 C 
ATOM      5  C   UNL     1      33.469 -14.578 -21.933  0.00  0.00    +0.154 C 
ATOM      6  C   UNL     1      33.924 -15.510 -24.171  0.00  0.00    +0.205 C 
ATOM      7  C   UNL     1      34.375 -16.730 -23.473  0.00  0.00    +0.080 C 
ATOM      8  C   UNL     1      33.006 -13.211 -23.877  0.00  0.00    +0.143 C 
ATOM      9  C   UNL     1      33.030 -13.547 -21.100  0.00  0.00    +0.074 C 
ATOM     10  C   UNL     1      32.580 -12.350 -21.656  0.00  0.00    +0.140 C 
ATOM     11  C   UNL     1      32.568 -12.182 -23.041  0.00  0.00    +0.073 C 
ENDROOT
BRANCH   4  12
ATOM     12  C   UNL     1      34.782 -17.964 -21.379  0.00  0.00    +0.038 C 
ATOM     13  C   UNL     1      33.853 -18.923 -20.965  0.00  0.00    +0.043 C 
ATOM     14  C   UNL     1      36.135 -18.137 -21.076  0.00  0.00    +0.006 C 
ATOM     15  C   UNL     1      34.275 -20.046 -20.254  0.00  0.00    +0.168 C 
ATOM     16  C   UNL     1      35.627 -20.215 -19.955  0.00  0.00    +0.172 C 
ATOM     17  C   UNL     1      36.556 -19.260 -20.366  0.00  0.00    +0.040 C 
BRANCH  16  18
ATOM     18  O   UNL     1      36.051 -21.308 -19.261  0.00  0.00    -0.468 OA
ATOM     19  C   UNL     1      36.178 -21.170 -17.848  0.00  0.00    +0.253 C 
ENDBRANCH  16  18
BRANCH  15  20
ATOM     20  O   UNL     1      33.357 -20.972 -19.857  0.00  0.00    -0.503 OA
ATOM     21  H   UNL     1      33.419 -21.854 -20.167  0.00  0.00    +0.292 HD
ENDBRANCH  15  20
ENDBRANCH   4  12
BRANCH   8  22
ATOM     22  O   UNL     1      32.974 -12.996 -25.222  0.00  0.00    -0.505 OA
ATOM     23  H   UNL     1      32.685 -12.171 -25.557  0.00  0.00    +0.292 HD
ENDBRANCH   8  22
BRANCH  10  24
ATOM     24  O   UNL     1      32.153 -11.343 -20.846  0.00  0.00    -0.505 OA
ATOM     25  H   UNL     1      32.736 -10.646 -20.617  0.00  0.00    +0.292 HD
ENDBRANCH  10  24
TORSDOF 5
ENDMDL
MODEL 6
REMARK VINA RESULT:     -10.6      2.042      8.485
REMARK  Name = 5281612
REMARK  5 active torsions:
REMARK  status: ('A' for Active; 'I' for Inactive)
REMARK    1  A    between atoms: C_4  and  C_12
REMARK    2  A    between atoms: C_8  and  O_22
REMARK    3  A    between atoms: C_10  and  O_24
REMARK    4  A    between atoms: C_15  and  O_20
REMARK    5  A    between atoms: C_16  and  O_18
REMARK                            x       y       z     vdW  Elec       q    Type
REMARK                         _______ _______ _______ _____ _____    ______ ____
ROOT
ATOM      1  O   UNL     1      35.694 -21.344 -17.746  0.00  0.00    -0.453 OA
ATOM      2  O   UNL     1      32.248 -23.248 -16.698  0.00  0.00    -0.286 OA
ATOM      3  C   UNL     1      34.525 -22.831 -16.222  0.00  0.00    +0.107 C 
ATOM      4  C   UNL     1      34.532 -21.208 -18.491  0.00  0.00    +0.149 C 
ATOM      5  C   UNL     1      35.668 -22.150 -16.637  0.00  0.00    +0.154 C 
ATOM      6  C   UNL     1      33.288 -22.682 -17.005  0.00  0.00    +0.205 C 
ATOM      7  C   UNL     1      33.368 -21.806 -18.191  0.00  0.00    +0.080 C 
ATOM      8  C   UNL     1      34.556 -23.638 -15.084  0.00  0.00    +0.143 C 
ATOM      9  C   UNL     1      36.854 -22.273 -15.911  0.00  0.00    +0.074 C 
ATOM     10  C   UNL     1      36.890 -23.078 -14.773  0.00  0.00    +0.140 C 
ATOM     11  C   UNL     1      35.744 -23.760 -14.360  0.00  0.00    +0.073 C 
ENDROOT
BRANCH   4  12
ATOM     12  C   UNL     1      34.669 -20.314 -19.658  0.00  0.00    +0.038 C 
ATOM     13  C   UNL     1      35.889 -19.685 -19.922  0.00  0.00    +0.043 C 
ATOM     14  C   UNL     1      33.579 -20.091 -20.504  0.00  0.00    +0.006 C 
ATOM     15  C   UNL     1      36.017 -18.841 -21.024  0.00  0.00    +0.168 C 
ATOM     16  C   UNL     1      34.927 -18.622 -21.867  0.00  0.00    +0.172 C 
ATOM     17  C   UNL     1      33.708 -19.247 -21.606  0.00  0.00    +0.040 C 
BRANCH  16  18
ATOM     18  O   UNL     1      35.040 -17.799 -22.946  0.00  0.00    -0.468 OA
ATOM     19  C   UNL     1      34.542 -16.470 -22.805  0.00  0.00    +0.253 C 
ENDBRANCH  16  18
BRANCH  15  20
ATOM     20  O   UNL     1      37.213 -18.236 -21.269  0.00  0.00    -0.503 OA
ATOM     21  H   UNL     1      37.807 -18.071 -20.564  0.00  0.00    +0.292 HD
ENDBRANCH  15  20
ENDBRANCH   4  12
BRANCH   8  22
ATOM     22  O   UNL     1      33.466 -24.323 -14.639  0.00  0.00    -0.505 OA
ATOM     23  H   UNL     1      32.706 -24.395 -15.181  0.00  0.00    +0.292 HD
ENDBRANCH   8  22
BRANCH  10  24
ATOM     24  O   UNL     1      38.045 -23.200 -14.063  0.00  0.00    -0.505 OA
ATOM     25  H   UNL     1      38.265 -24.017 -13.661  0.00  0.00    +0.292 HD
ENDBRANCH  10  24
TORSDOF 5
ENDMDL
MODEL 7
REMARK VINA RESULT:     -10.4      2.843      4.790
REMARK  Name = 5281612
REMARK  5 active torsions:
REMARK  status: ('A' for Active; 'I' for Inactive)
REMARK    1  A    between atoms: C_4  and  C_12
REMARK    2  A    between atoms: C_8  and  O_22
REMARK    3  A    between atoms: C_10  and  O_24
REMARK    4  A    between atoms: C_15  and  O_20
REMARK    5  A    between atoms: C_16  and  O_18
REMARK                            x       y       z     vdW  Elec       q    Type
REMARK                         _______ _______ _______ _____ _____    ______ ____
ROOT
ATOM      1  O   UNL     1      35.586 -20.660 -18.791  0.00  0.00    -0.453 OA
ATOM      2  O   UNL     1      31.929 -20.504 -20.579  0.00  0.00    -0.286 OA
ATOM      3  C   UNL     1      34.197 -19.839 -20.605  0.00  0.00    +0.107 C 
ATOM      4  C   UNL     1      34.488 -21.319 -18.259  0.00  0.00    +0.149 C 
ATOM      5  C   UNL     1      35.419 -19.935 -19.943  0.00  0.00    +0.154 C 
ATOM      6  C   UNL     1      33.031 -20.543 -20.049  0.00  0.00    +0.205 C 
ATOM      7  C   UNL     1      33.261 -21.307 -18.807  0.00  0.00    +0.080 C 
ATOM      8  C   UNL     1      34.084 -19.086 -21.776  0.00  0.00    +0.143 C 
ATOM      9  C   UNL     1      36.541 -19.278 -20.450  0.00  0.00    +0.074 C 
ATOM     10  C   UNL     1      36.434 -18.525 -21.620  0.00  0.00    +0.140 C 
ATOM     11  C   UNL     1      35.208 -18.430 -22.281  0.00  0.00    +0.073 C 
ENDROOT
BRANCH   4  12
ATOM     12  C   UNL     1      34.779 -22.072 -17.023  0.00  0.00    +0.038 C 
ATOM     13  C   UNL     1      36.064 -22.051 -16.474  0.00  0.00    +0.043 C 
ATOM     14  C   UNL     1      33.773 -22.811 -16.397  0.00  0.00    +0.006 C 
ATOM     15  C   UNL     1      36.340 -22.762 -15.308  0.00  0.00    +0.168 C 
ATOM     16  C   UNL     1      35.332 -23.499 -14.685  0.00  0.00    +0.172 C 
ATOM     17  C   UNL     1      34.048 -23.523 -15.230  0.00  0.00    +0.040 C 
BRANCH  16  18
ATOM     18  O   UNL     1      35.589 -24.199 -13.545  0.00  0.00    -0.468 OA
ATOM     19  C   UNL     1      34.732 -23.960 -12.430  0.00  0.00    +0.253 C 
ENDBRANCH  16  18
BRANCH  15  20
ATOM     20  O   UNL     1      37.598 -22.732 -14.785  0.00  0.00    -0.503 OA
ATOM     21  H   UNL     1      38.131 -23.501 -14.804  0.00  0.00    +0.292 HD
ENDBRANCH  15  20
ENDBRANCH   4  12
BRANCH   8  22
ATOM     22  O   UNL     1      32.913 -18.962 -22.460  0.00  0.00    -0.505 OA
ATOM     23  H   UNL     1      32.885 -18.463 -23.252  0.00  0.00    +0.292 HD
ENDBRANCH   8  22
BRANCH  10  24
ATOM     24  O   UNL     1      37.526 -17.884 -22.117  0.00  0.00    -0.505 OA
ATOM     25  H   UNL     1      37.547 -17.622 -23.016  0.00  0.00    +0.292 HD
ENDBRANCH  10  24
TORSDOF 5
ENDMDL
MODEL 8
REMARK VINA RESULT:     -10.3      2.671      9.042
REMARK  Name = 5281612
REMARK  5 active torsions:
REMARK  status: ('A' for Active; 'I' for Inactive)
REMARK    1  A    between atoms: C_4  and  C_12
REMARK    2  A    between atoms: C_8  and  O_22
REMARK    3  A    between atoms: C_10  and  O_24
REMARK    4  A    between atoms: C_15  and  O_20
REMARK    5  A    between atoms: C_16  and  O_18
REMARK                            x       y       z     vdW  Elec       q    Type
REMARK                         _______ _______ _______ _____ _____    ______ ____
ROOT
ATOM      1  O   UNL     1      34.170 -22.212 -16.671  0.00  0.00    -0.453 OA
ATOM      2  O   UNL     1      38.035 -22.575 -15.435  0.00  0.00    -0.286 OA
ATOM      3  C   UNL     1      35.752 -23.010 -15.009  0.00  0.00    +0.107 C 
ATOM      4  C   UNL     1      35.222 -21.695 -17.411  0.00  0.00    +0.149 C 
ATOM      5  C   UNL     1      34.454 -22.851 -15.491  0.00  0.00    +0.154 C 
ATOM      6  C   UNL     1      36.872 -22.470 -15.796  0.00  0.00    +0.205 C 
ATOM      7  C   UNL     1      36.514 -21.789 -17.056  0.00  0.00    +0.080 C 
ATOM      8  C   UNL     1      35.982 -23.670 -13.800  0.00  0.00    +0.143 C 
ATOM      9  C   UNL     1      33.374 -23.355 -14.763  0.00  0.00    +0.074 C 
ATOM     10  C   UNL     1      33.599 -24.015 -13.556  0.00  0.00    +0.140 C 
ATOM     11  C   UNL     1      34.900 -24.172 -13.075  0.00  0.00    +0.073 C 
ENDROOT
BRANCH   4  12
ATOM     12  C   UNL     1      34.807 -21.034 -18.664  0.00  0.00    +0.038 C 
ATOM     13  C   UNL     1      33.457 -20.997 -19.025  0.00  0.00    +0.043 C 
ATOM     14  C   UNL     1      35.761 -20.443 -19.497  0.00  0.00    +0.006 C 
ATOM     15  C   UNL     1      33.065 -20.373 -20.208  0.00  0.00    +0.168 C 
ATOM     16  C   UNL     1      34.020 -19.783 -21.036  0.00  0.00    +0.172 C 
ATOM     17  C   UNL     1      35.368 -19.819 -20.680  0.00  0.00    +0.040 C 
BRANCH  16  18
ATOM     18  O   UNL     1      33.649 -19.171 -22.195  0.00  0.00    -0.468 OA
ATOM     19  C   UNL     1      34.465 -18.094 -22.650  0.00  0.00    +0.253 C 
ENDBRANCH  16  18
BRANCH  15  20
ATOM     20  O   UNL     1      31.745 -20.346 -20.546  0.00  0.00    -0.503 OA
ATOM     21  H   UNL     1      31.142 -19.840 -20.038  0.00  0.00    +0.292 HD
ENDBRANCH  15  20
ENDBRANCH   4  12
BRANCH   8  22
ATOM     22  O   UNL     1      37.231 -23.850 -13.288  0.00  0.00    -0.505 OA
ATOM     23  H   UNL     1      37.514 -23.339 -12.556  0.00  0.00    +0.292 HD
ENDBRANCH   8  22
BRANCH  10  24
ATOM     24  O   UNL     1      32.548 -24.508 -12.846  0.00  0.00    -0.505 OA
ATOM     25  H   UNL     1      31.727 -24.058 -12.848  0.00  0.00    +0.292 HD
ENDBRANCH  10  24
TORSDOF 5
ENDMDL
MODEL 9
REMARK VINA RESULT:     -10.3      1.656      7.570
REMARK  Name = 5281612
REMARK  5 active torsions:
REMARK  status: ('A' for Active; 'I' for Inactive)
REMARK    1  A    between atoms: C_4  and  C_12
REMARK    2  A    between atoms: C_8  and  O_22
REMARK    3  A    between atoms: C_10  and  O_24
REMARK    4  A    between atoms: C_15  and  O_20
REMARK    5  A    between atoms: C_16  and  O_18
REMARK                            x       y       z     vdW  Elec       q    Type
REMARK                         _______ _______ _______ _____ _____    ______ ____
ROOT
ATOM      1  O   UNL     1      33.070 -20.096 -19.877  0.00  0.00    -0.453 OA
ATOM      2  O   UNL     1      36.444 -21.665 -18.220  0.00  0.00    -0.286 OA
ATOM      3  C   UNL     1      34.084 -21.545 -18.213  0.00  0.00    +0.107 C 
ATOM      4  C   UNL     1      34.332 -19.760 -20.342  0.00  0.00    +0.149 C 
ATOM      5  C   UNL     1      32.972 -20.972 -18.827  0.00  0.00    +0.154 C 
ATOM      6  C   UNL     1      35.425 -21.198 -18.709  0.00  0.00    +0.205 C 
ATOM      7  C   UNL     1      35.477 -20.249 -19.839  0.00  0.00    +0.080 C 
ATOM      8  C   UNL     1      33.925 -22.432 -17.147  0.00  0.00    +0.143 C 
ATOM      9  C   UNL     1      31.689 -21.285 -18.375  0.00  0.00    +0.074 C 
ATOM     10  C   UNL     1      31.524 -22.171 -17.311  0.00  0.00    +0.140 C 
ATOM     11  C   UNL     1      32.640 -22.743 -16.698  0.00  0.00    +0.073 C 
ENDROOT
BRANCH   4  12
ATOM     12  C   UNL     1      34.322 -18.815 -21.477  0.00  0.00    +0.038 C 
ATOM     13  C   UNL     1      33.684 -19.160 -22.671  0.00  0.00    +0.043 C 
ATOM     14  C   UNL     1      34.952 -17.574 -21.363  0.00  0.00    +0.006 C 
ATOM     15  C   UNL     1      33.676 -18.268 -23.743  0.00  0.00    +0.168 C 
ATOM     16  C   UNL     1      34.305 -17.029 -23.625  0.00  0.00    +0.172 C 
ATOM     17  C   UNL     1      34.944 -16.682 -22.435  0.00  0.00    +0.040 C 
BRANCH  16  18
ATOM     18  O   UNL     1      34.304 -16.149 -24.665  0.00  0.00    -0.468 OA
ATOM     19  C   UNL     1      33.426 -15.030 -24.568  0.00  0.00    +0.253 C 
ENDBRANCH  16  18
BRANCH  15  20
ATOM     20  O   UNL     1      33.049 -18.618 -24.902  0.00  0.00    -0.503 OA
ATOM     21  H   UNL     1      33.550 -18.755 -25.681  0.00  0.00    +0.292 HD
ENDBRANCH  15  20
ENDBRANCH   4  12
BRANCH   8  22
ATOM     22  O   UNL     1      34.980 -23.018 -16.515  0.00  0.00    -0.505 OA
ATOM     23  H   UNL     1      34.910 -23.258 -15.612  0.00  0.00    +0.292 HD
ENDBRANCH   8  22
BRANCH  10  24
ATOM     24  O   UNL     1      30.275 -22.479 -16.870  0.00  0.00    -0.505 OA
ATOM     25  H   UNL     1      30.112 -23.308 -16.463  0.00  0.00    +0.292 HD
ENDBRANCH  10  24
TORSDOF 5
ENDMDL
