MODEL 1
REMARK VINA RESULT:     -10.6      0.000      0.000
REMARK  Name = 9547919
REMARK  12 active torsions:
REMARK  status: ('A' for Active; 'I' for Inactive)
REMARK    1  A    between atoms: C_1  and  C_4
REMARK    2  A    between atoms: C_1  and  N_8
REMARK    3  A    between atoms: C_1  and  C_24
REMARK    4  A    between atoms: C_9  and  C_11
REMARK    5  A    between atoms: C_11  and  N_13
REMARK    6  A    between atoms: C_11  and  C_17
REMARK    7  A    between atoms: C_17  and  C_18
REMARK    8  A    between atoms: C_24  and  C_25
REMARK    9  A    between atoms: C_28  and  C_33
REMARK   10  A    between atoms: C_33  and  P_34
REMARK   11  A    between atoms: P_34  and  O_36
REMARK   12  A    between atoms: P_34  and  O_38
REMARK                            x       y       z     vdW  Elec       q    Type
REMARK                         _______ _______ _______ _____ _____    ______ ____
ROOT
ATOM      1  C   UNL     1      32.965 -22.159 -16.182  0.00  0.00    +0.153 C 
ENDROOT
BRANCH   1   4
ATOM      2  O   UNL     1      30.606 -22.729 -16.050  0.00  0.00    -0.274 OA
ATOM      3  N   UNL     1      31.769 -22.407 -14.096  0.00  0.00    -0.327 N 
ATOM      4  C   UNL     1      31.652 -22.446 -15.469  0.00  0.00    +0.238 C 
ATOM      5  H   UNL     1      30.982 -22.578 -13.529  0.00  0.00    +0.145 HD
ATOM      6  H   UNL     1      32.641 -22.207 -13.682  0.00  0.00    +0.145 HD
ENDBRANCH   1   4
BRANCH   1   8
ATOM      7  O   UNL     1      35.618 -21.056 -15.846  0.00  0.00    -0.273 OA
ATOM      8  N   UNL     1      34.025 -22.669 -15.343  0.00  0.00    -0.297 N 
ATOM      9  C   UNL     1      35.273 -22.070 -15.243  0.00  0.00    +0.241 C 
ATOM     10  H   UNL     1      33.853 -23.482 -14.815  0.00  0.00    +0.150 HD
BRANCH   9  11
ATOM     11  C   UNL     1      36.211 -22.852 -14.332  0.00  0.00    +0.153 C 
BRANCH  11  13
ATOM     12  O   UNL     1      37.594 -22.790 -11.780  0.00  0.00    -0.275 OA
ATOM     13  N   UNL     1      35.623 -22.858 -13.016  0.00  0.00    -0.298 N 
ATOM     14  C   UNL     1      36.369 -22.826 -11.849  0.00  0.00    +0.223 C 
ATOM     15  C   UNL     1      35.504 -22.813 -10.617  0.00  0.00    +0.095 C 
ATOM     16  H   UNL     1      34.641 -22.885 -12.943  0.00  0.00    +0.150 HD
ENDBRANCH  11  13
BRANCH  11  17
ATOM     17  C   UNL     1      36.425 -24.270 -14.877  0.00  0.00    +0.055 C 
BRANCH  17  18
ATOM     18  C   UNL     1      37.808 -24.802 -14.594  0.00  0.00    -0.020 C 
ATOM     19  C   UNL     1      37.949 -26.001 -13.911  0.00  0.00    -0.004 C 
ATOM     20  C   UNL     1      38.913 -24.083 -15.022  0.00  0.00    -0.004 C 
ATOM     21  C   UNL     1      39.227 -26.493 -13.650  0.00  0.00    -0.000 C 
ATOM     22  C   UNL     1      40.192 -24.576 -14.761  0.00  0.00    -0.000 C 
ATOM     23  C   UNL     1      40.349 -25.781 -14.074  0.00  0.00    -0.000 C 
ENDBRANCH  17  18
ENDBRANCH  11  17
ENDBRANCH   9  11
ENDBRANCH   1   8
BRANCH   1  24
ATOM     24  C   UNL     1      32.968 -22.801 -17.574  0.00  0.00    +0.055 C 
BRANCH  24  25
ATOM     25  C   UNL     1      33.348 -21.829 -18.664  0.00  0.00    -0.020 C 
ATOM     26  C   UNL     1      34.673 -21.737 -19.062  0.00  0.00    -0.004 C 
ATOM     27  C   UNL     1      32.365 -21.046 -19.248  0.00  0.00    -0.004 C 
ATOM     28  C   UNL     1      34.045 -20.045 -20.667  0.00  0.00    +0.049 C 
ATOM     29  C   UNL     1      35.024 -20.839 -20.069  0.00  0.00    +0.001 C 
ATOM     30  C   UNL     1      32.716 -20.148 -20.256  0.00  0.00    +0.001 C 
BRANCH  28  33
ATOM     31  F   UNL     1      35.259 -19.592 -22.685  0.00  0.00    -0.187 F 
ATOM     32  F   UNL     1      33.372 -18.543 -22.416  0.00  0.00    -0.187 F 
ATOM     33  C   UNL     1      34.422 -19.084 -21.745  0.00  0.00    +0.372 C 
BRANCH  33  34
ATOM     34  P   UNL     1      35.314 -17.620 -21.303  0.00  0.00    +0.401 P 
ATOM     35  O   UNL     1      34.638 -16.759 -20.275  0.00  0.00    -0.252 OA
BRANCH  34  36
ATOM     36  O   UNL     1      35.593 -16.892 -22.719  0.00  0.00    -0.320 OA
ATOM     37  H   UNL     1      35.531 -17.544 -23.435  0.00  0.00    +0.220 HD
ENDBRANCH  34  36
BRANCH  34  38
ATOM     38  O   UNL     1      36.776 -18.161 -20.874  0.00  0.00    -0.320 OA
ATOM     39  H   UNL     1      36.683 -18.817 -20.165  0.00  0.00    +0.220 HD
ENDBRANCH  34  38
ENDBRANCH  33  34
ENDBRANCH  28  33
ENDBRANCH  24  25
ENDBRANCH   1  24
TORSDOF 12
ENDMDL
MODEL 2
REMARK VINA RESULT:     -10.5      1.374      3.049
REMARK  Name = 9547919
REMARK  12 active torsions:
REMARK  status: ('A' for Active; 'I' for Inactive)
REMARK    1  A    between atoms: C_1  and  C_4
REMARK    2  A    between atoms: C_1  and  N_8
REMARK    3  A    between atoms: C_1  and  C_24
REMARK    4  A    between atoms: C_9  and  C_11
REMARK    5  A    between atoms: C_11  and  N_13
REMARK    6  A    between atoms: C_11  and  C_17
REMARK    7  A    between atoms: C_17  and  C_18
REMARK    8  A    between atoms: C_24  and  C_25
REMARK    9  A    between atoms: C_28  and  C_33
REMARK   10  A    between atoms: C_33  and  P_34
REMARK   11  A    between atoms: P_34  and  O_36
REMARK   12  A    between atoms: P_34  and  O_38
REMARK                            x       y       z     vdW  Elec       q    Type
REMARK                         _______ _______ _______ _____ _____    ______ ____
ROOT
ATOM      1  C   UNL     1      33.307 -22.655 -15.864  0.00  0.00    +0.153 C 
ENDROOT
BRANCH   1   4
ATOM      2  O   UNL     1      31.069 -22.220 -15.019  0.00  0.00    -0.274 OA
ATOM      3  N   UNL     1      32.667 -22.981 -13.555  0.00  0.00    -0.327 N 
ATOM      4  C   UNL     1      32.226 -22.571 -14.795  0.00  0.00    +0.238 C 
ATOM      5  H   UNL     1      32.053 -22.971 -12.785  0.00  0.00    +0.145 HD
ATOM      6  H   UNL     1      33.597 -23.285 -13.440  0.00  0.00    +0.145 HD
ENDBRANCH   1   4
BRANCH   1   8
ATOM      7  O   UNL     1      36.184 -22.437 -15.664  0.00  0.00    -0.273 OA
ATOM      8  N   UNL     1      34.235 -23.682 -15.449  0.00  0.00    -0.297 N 
ATOM      9  C   UNL     1      35.608 -23.485 -15.383  0.00  0.00    +0.241 C 
ATOM     10  H   UNL     1      33.877 -24.564 -15.201  0.00  0.00    +0.150 HD
BRANCH   9  11
ATOM     11  C   UNL     1      36.347 -24.753 -14.970  0.00  0.00    +0.153 C 
BRANCH  11  13
ATOM     12  O   UNL     1      38.573 -26.557 -14.503  0.00  0.00    -0.275 OA
ATOM     13  N   UNL     1      37.737 -24.407 -14.814  0.00  0.00    -0.298 N 
ATOM     14  C   UNL     1      38.735 -25.342 -14.594  0.00  0.00    +0.223 C 
ATOM     15  C   UNL     1      40.098 -24.713 -14.494  0.00  0.00    +0.095 C 
ATOM     16  H   UNL     1      37.990 -23.456 -14.868  0.00  0.00    +0.150 HD
ENDBRANCH  11  13
BRANCH  11  17
ATOM     17  C   UNL     1      35.744 -25.326 -13.682  0.00  0.00    +0.055 C 
BRANCH  17  18
ATOM     18  C   UNL     1      35.917 -24.406 -12.498  0.00  0.00    -0.020 C 
ATOM     19  C   UNL     1      36.775 -23.323 -12.598  0.00  0.00    -0.004 C 
ATOM     20  C   UNL     1      35.213 -24.662 -11.331  0.00  0.00    -0.004 C 
ATOM     21  C   UNL     1      36.935 -22.473 -11.504  0.00  0.00    -0.000 C 
ATOM     22  C   UNL     1      35.371 -23.811 -10.237  0.00  0.00    -0.000 C 
ATOM     23  C   UNL     1      36.233 -22.717 -10.323  0.00  0.00    -0.000 C 
ENDBRANCH  17  18
ENDBRANCH  11  17
ENDBRANCH   9  11
ENDBRANCH   1   8
BRANCH   1  24
ATOM     24  C   UNL     1      32.683 -22.955 -17.231  0.00  0.00    +0.055 C 
BRANCH  24  25
ATOM     25  C   UNL     1      33.141 -21.997 -18.304  0.00  0.00    -0.020 C 
ATOM     26  C   UNL     1      32.219 -21.150 -18.898  0.00  0.00    -0.004 C 
ATOM     27  C   UNL     1      34.476 -21.983 -18.675  0.00  0.00    -0.004 C 
ATOM     28  C   UNL     1      33.985 -20.239 -20.273  0.00  0.00    +0.049 C 
ATOM     29  C   UNL     1      32.643 -20.265 -19.890  0.00  0.00    +0.001 C 
ATOM     30  C   UNL     1      34.900 -21.098 -19.666  0.00  0.00    +0.001 C 
BRANCH  28  33
ATOM     31  F   UNL     1      34.994 -19.887 -22.419  0.00  0.00    -0.187 F 
ATOM     32  F   UNL     1      33.471 -18.460 -21.803  0.00  0.00    -0.187 F 
ATOM     33  C   UNL     1      34.437 -19.292 -21.333  0.00  0.00    +0.372 C 
BRANCH  33  34
ATOM     34  P   UNL     1      35.709 -18.124 -20.941  0.00  0.00    +0.401 P 
ATOM     35  O   UNL     1      36.686 -18.585 -19.900  0.00  0.00    -0.252 OA
BRANCH  34  36
ATOM     36  O   UNL     1      34.897 -16.779 -20.560  0.00  0.00    -0.320 OA
ATOM     37  H   UNL     1      34.057 -17.017 -20.136  0.00  0.00    +0.220 HD
ENDBRANCH  34  36
BRANCH  34  38
ATOM     38  O   UNL     1      36.368 -17.761 -22.373  0.00  0.00    -0.320 OA
ATOM     39  H   UNL     1      36.051 -16.891 -22.663  0.00  0.00    +0.220 HD
ENDBRANCH  34  38
ENDBRANCH  33  34
ENDBRANCH  28  33
ENDBRANCH  24  25
ENDBRANCH   1  24
TORSDOF 12
ENDMDL
MODEL 3
REMARK VINA RESULT:     -10.2      5.039      9.869
REMARK  Name = 9547919
REMARK  12 active torsions:
REMARK  status: ('A' for Active; 'I' for Inactive)
REMARK    1  A    between atoms: C_1  and  C_4
REMARK    2  A    between atoms: C_1  and  N_8
REMARK    3  A    between atoms: C_1  and  C_24
REMARK    4  A    between atoms: C_9  and  C_11
REMARK    5  A    between atoms: C_11  and  N_13
REMARK    6  A    between atoms: C_11  and  C_17
REMARK    7  A    between atoms: C_17  and  C_18
REMARK    8  A    between atoms: C_24  and  C_25
REMARK    9  A    between atoms: C_28  and  C_33
REMARK   10  A    between atoms: C_33  and  P_34
REMARK   11  A    between atoms: P_34  and  O_36
REMARK   12  A    between atoms: P_34  and  O_38
REMARK                            x       y       z     vdW  Elec       q    Type
REMARK                         _______ _______ _______ _____ _____    ______ ____
ROOT
ATOM      1  C   UNL     1      34.981 -20.762 -18.433  0.00  0.00    +0.153 C 
ENDROOT
BRANCH   1   4
ATOM      2  O   UNL     1      36.788 -22.113 -17.528  0.00  0.00    -0.274 OA
ATOM      3  N   UNL     1      36.967 -19.826 -17.419  0.00  0.00    -0.327 N 
ATOM      4  C   UNL     1      36.316 -20.998 -17.740  0.00  0.00    +0.238 C 
ATOM      5  H   UNL     1      37.841 -19.855 -16.967  0.00  0.00    +0.145 HD
ATOM      6  H   UNL     1      36.556 -18.959 -17.642  0.00  0.00    +0.145 HD
ENDBRANCH   1   4
BRANCH   1   8
ATOM      7  O   UNL     1      33.084 -19.669 -20.323  0.00  0.00    -0.273 OA
ATOM      8  N   UNL     1      35.270 -20.173 -19.721  0.00  0.00    -0.297 N 
ATOM      9  C   UNL     1      34.289 -19.672 -20.565  0.00  0.00    +0.241 C 
ATOM     10  H   UNL     1      36.208 -20.126 -20.014  0.00  0.00    +0.150 HD
BRANCH   9  11
ATOM     11  C   UNL     1      34.872 -19.165 -21.879  0.00  0.00    +0.153 C 
BRANCH  11  13
ATOM     12  O   UNL     1      34.548 -19.936 -24.659  0.00  0.00    -0.275 OA
ATOM     13  N   UNL     1      33.764 -18.860 -22.749  0.00  0.00    -0.298 N 
ATOM     14  C   UNL     1      33.697 -19.274 -24.070  0.00  0.00    +0.223 C 
ATOM     15  C   UNL     1      32.421 -18.842 -24.742  0.00  0.00    +0.095 C 
ATOM     16  H   UNL     1      33.017 -18.331 -22.386  0.00  0.00    +0.150 HD
ENDBRANCH  11  13
BRANCH  11  17
ATOM     17  C   UNL     1      35.765 -17.944 -21.630  0.00  0.00    +0.055 C 
BRANCH  17  18
ATOM     18  C   UNL     1      35.025 -16.638 -21.780  0.00  0.00    -0.020 C 
ATOM     19  C   UNL     1      34.960 -16.032 -23.025  0.00  0.00    -0.004 C 
ATOM     20  C   UNL     1      34.422 -16.067 -20.670  0.00  0.00    -0.004 C 
ATOM     21  C   UNL     1      34.276 -14.825 -23.164  0.00  0.00    -0.000 C 
ATOM     22  C   UNL     1      33.736 -14.860 -20.809  0.00  0.00    -0.000 C 
ATOM     23  C   UNL     1      33.664 -14.238 -22.056  0.00  0.00    -0.000 C 
ENDBRANCH  17  18
ENDBRANCH  11  17
ENDBRANCH   9  11
ENDBRANCH   1   8
BRANCH   1  24
ATOM     24  C   UNL     1      34.204 -22.077 -18.556  0.00  0.00    +0.055 C 
BRANCH  24  25
ATOM     25  C   UNL     1      33.271 -22.315 -17.394  0.00  0.00    -0.020 C 
ATOM     26  C   UNL     1      31.905 -22.174 -17.580  0.00  0.00    -0.004 C 
ATOM     27  C   UNL     1      33.798 -22.670 -16.163  0.00  0.00    -0.004 C 
ATOM     28  C   UNL     1      31.558 -22.753 -15.260  0.00  0.00    +0.049 C 
ATOM     29  C   UNL     1      31.043 -22.394 -16.505  0.00  0.00    +0.001 C 
ATOM     30  C   UNL     1      32.936 -22.890 -15.088  0.00  0.00    +0.001 C 
BRANCH  28  33
ATOM     31  F   UNL     1      31.055 -22.459 -12.934  0.00  0.00    -0.187 F 
ATOM     32  F   UNL     1      29.366 -22.545 -14.303  0.00  0.00    -0.187 F 
ATOM     33  C   UNL     1      30.636 -22.988 -14.112  0.00  0.00    +0.372 C 
BRANCH  33  34
ATOM     34  P   UNL     1      30.323 -24.655 -13.602  0.00  0.00    +0.401 P 
ATOM     35  O   UNL     1      29.435 -25.438 -14.524  0.00  0.00    -0.252 OA
BRANCH  34  36
ATOM     36  O   UNL     1      29.766 -24.502 -12.092  0.00  0.00    -0.320 OA
ATOM     37  H   UNL     1      28.925 -24.978 -12.008  0.00  0.00    +0.220 HD
ENDBRANCH  34  36
BRANCH  34  38
ATOM     38  O   UNL     1      31.797 -25.286 -13.386  0.00  0.00    -0.320 OA
ATOM     39  H   UNL     1      32.169 -25.539 -14.246  0.00  0.00    +0.220 HD
ENDBRANCH  34  38
ENDBRANCH  33  34
ENDBRANCH  28  33
ENDBRANCH  24  25
ENDBRANCH   1  24
TORSDOF 12
ENDMDL
MODEL 4
REMARK VINA RESULT:     -10.0      1.786      2.433
REMARK  Name = 9547919
REMARK  12 active torsions:
REMARK  status: ('A' for Active; 'I' for Inactive)
REMARK    1  A    between atoms: C_1  and  C_4
REMARK    2  A    between atoms: C_1  and  N_8
REMARK    3  A    between atoms: C_1  and  C_24
REMARK    4  A    between atoms: C_9  and  C_11
REMARK    5  A    between atoms: C_11  and  N_13
REMARK    6  A    between atoms: C_11  and  C_17
REMARK    7  A    between atoms: C_17  and  C_18
REMARK    8  A    between atoms: C_24  and  C_25
REMARK    9  A    between atoms: C_28  and  C_33
REMARK   10  A    between atoms: C_33  and  P_34
REMARK   11  A    between atoms: P_34  and  O_36
REMARK   12  A    between atoms: P_34  and  O_38
REMARK                            x       y       z     vdW  Elec       q    Type
REMARK                         _______ _______ _______ _____ _____    ______ ____
ROOT
ATOM      1  C   UNL     1      32.737 -22.302 -16.896  0.00  0.00    +0.153 C 
ENDROOT
BRANCH   1   4
ATOM      2  O   UNL     1      30.564 -21.477 -17.605  0.00  0.00    -0.274 OA
ATOM      3  N   UNL     1      30.644 -23.155 -16.039  0.00  0.00    -0.327 N 
ATOM      4  C   UNL     1      31.216 -22.236 -16.892  0.00  0.00    +0.238 C 
ATOM      5  H   UNL     1      29.664 -23.205 -15.953  0.00  0.00    +0.145 HD
ATOM      6  H   UNL     1      31.215 -23.763 -15.515  0.00  0.00    +0.145 HD
ENDBRANCH   1   4
BRANCH   1   8
ATOM      7  O   UNL     1      35.113 -22.144 -15.253  0.00  0.00    -0.273 OA
ATOM      8  N   UNL     1      33.126 -23.199 -15.831  0.00  0.00    -0.297 N 
ATOM      9  C   UNL     1      34.291 -23.043 -15.092  0.00  0.00    +0.241 C 
ATOM     10  H   UNL     1      32.536 -23.958 -15.619  0.00  0.00    +0.150 HD
BRANCH   9  11
ATOM     11  C   UNL     1      34.476 -24.164 -14.075  0.00  0.00    +0.153 C 
BRANCH  11  13
ATOM     12  O   UNL     1      32.329 -22.922 -12.568  0.00  0.00    -0.275 OA
ATOM     13  N   UNL     1      33.171 -24.709 -13.798  0.00  0.00    -0.298 N 
ATOM     14  C   UNL     1      32.205 -24.038 -13.066  0.00  0.00    +0.223 C 
ATOM     15  C   UNL     1      30.927 -24.823 -12.948  0.00  0.00    +0.095 C 
ATOM     16  H   UNL     1      32.955 -25.604 -14.148  0.00  0.00    +0.150 HD
ENDBRANCH  11  13
BRANCH  11  17
ATOM     17  C   UNL     1      35.443 -25.222 -14.619  0.00  0.00    +0.055 C 
BRANCH  17  18
ATOM     18  C   UNL     1      36.862 -25.011 -14.154  0.00  0.00    -0.020 C 
ATOM     19  C   UNL     1      37.095 -24.340 -12.963  0.00  0.00    -0.004 C 
ATOM     20  C   UNL     1      37.909 -25.492 -14.925  0.00  0.00    -0.004 C 
ATOM     21  C   UNL     1      38.407 -24.144 -12.533  0.00  0.00    -0.000 C 
ATOM     22  C   UNL     1      39.222 -25.297 -14.494  0.00  0.00    -0.000 C 
ATOM     23  C   UNL     1      39.470 -24.622 -13.298  0.00  0.00    -0.000 C 
ENDBRANCH  17  18
ENDBRANCH  11  17
ENDBRANCH   9  11
ENDBRANCH   1   8
BRANCH   1  24
ATOM     24  C   UNL     1      33.247 -22.770 -18.264  0.00  0.00    +0.055 C 
BRANCH  24  25
ATOM     25  C   UNL     1      33.895 -21.661 -19.056  0.00  0.00    -0.020 C 
ATOM     26  C   UNL     1      33.100 -20.795 -19.789  0.00  0.00    -0.004 C 
ATOM     27  C   UNL     1      35.274 -21.529 -19.034  0.00  0.00    -0.004 C 
ATOM     28  C   UNL     1      35.087 -19.624 -20.508  0.00  0.00    +0.049 C 
ATOM     29  C   UNL     1      33.700 -19.769 -20.520  0.00  0.00    +0.001 C 
ATOM     30  C   UNL     1      35.874 -20.504 -19.766  0.00  0.00    +0.001 C 
BRANCH  28  33
ATOM     31  F   UNL     1      36.793 -17.948 -20.681  0.00  0.00    -0.187 F 
ATOM     32  F   UNL     1      36.142 -18.883 -22.534  0.00  0.00    -0.187 F 
ATOM     33  C   UNL     1      35.727 -18.527 -21.290  0.00  0.00    +0.372 C 
BRANCH  33  34
ATOM     34  P   UNL     1      34.772 -17.084 -21.668  0.00  0.00    +0.401 P 
ATOM     35  O   UNL     1      34.383 -16.259 -20.475  0.00  0.00    -0.252 OA
BRANCH  34  36
ATOM     36  O   UNL     1      33.531 -17.655 -22.531  0.00  0.00    -0.320 OA
ATOM     37  H   UNL     1      33.309 -18.549 -22.227  0.00  0.00    +0.220 HD
ENDBRANCH  34  36
BRANCH  34  38
ATOM     38  O   UNL     1      35.658 -16.301 -22.771  0.00  0.00    -0.320 OA
ATOM     39  H   UNL     1      36.186 -15.614 -22.333  0.00  0.00    +0.220 HD
ENDBRANCH  34  38
ENDBRANCH  33  34
ENDBRANCH  28  33
ENDBRANCH  24  25
ENDBRANCH   1  24
TORSDOF 12
ENDMDL
MODEL 5
REMARK VINA RESULT:      -9.9      4.729      9.881
REMARK  Name = 9547919
REMARK  12 active torsions:
REMARK  status: ('A' for Active; 'I' for Inactive)
REMARK    1  A    between atoms: C_1  and  C_4
REMARK    2  A    between atoms: C_1  and  N_8
REMARK    3  A    between atoms: C_1  and  C_24
REMARK    4  A    between atoms: C_9  and  C_11
REMARK    5  A    between atoms: C_11  and  N_13
REMARK    6  A    between atoms: C_11  and  C_17
REMARK    7  A    between atoms: C_17  and  C_18
REMARK    8  A    between atoms: C_24  and  C_25
REMARK    9  A    between atoms: C_28  and  C_33
REMARK   10  A    between atoms: C_33  and  P_34
REMARK   11  A    between atoms: P_34  and  O_36
REMARK   12  A    between atoms: P_34  and  O_38
REMARK                            x       y       z     vdW  Elec       q    Type
REMARK                         _______ _______ _______ _____ _____    ______ ____
ROOT
ATOM      1  C   UNL     1      34.996 -21.737 -19.118  0.00  0.00    +0.153 C 
ENDROOT
BRANCH   1   4
ATOM      2  O   UNL     1      33.561 -23.410 -20.142  0.00  0.00    -0.274 OA
ATOM      3  N   UNL     1      32.595 -21.783 -18.841  0.00  0.00    -0.327 N 
ATOM      4  C   UNL     1      33.667 -22.402 -19.448  0.00  0.00    +0.238 C 
ATOM      5  H   UNL     1      31.683 -22.127 -18.983  0.00  0.00    +0.145 HD
ATOM      6  H   UNL     1      32.741 -20.996 -18.267  0.00  0.00    +0.145 HD
ENDBRANCH   1   4
BRANCH   1   8
ATOM      7  O   UNL     1      33.259 -19.685 -20.187  0.00  0.00    -0.273 OA
ATOM      8  N   UNL     1      35.288 -20.815 -20.192  0.00  0.00    -0.297 N 
ATOM      9  C   UNL     1      34.388 -19.858 -20.641  0.00  0.00    +0.241 C 
ATOM     10  H   UNL     1      36.170 -20.869 -20.627  0.00  0.00    +0.150 HD
BRANCH   9  11
ATOM     11  C   UNL     1      34.940 -19.065 -21.819  0.00  0.00    +0.153 C 
BRANCH  11  13
ATOM     12  O   UNL     1      34.520 -19.880 -24.573  0.00  0.00    -0.275 OA
ATOM     13  N   UNL     1      33.825 -18.734 -22.671  0.00  0.00    -0.298 N 
ATOM     14  C   UNL     1      33.711 -19.172 -23.980  0.00  0.00    +0.223 C 
ATOM     15  C   UNL     1      32.438 -18.703 -24.632  0.00  0.00    +0.095 C 
ATOM     16  H   UNL     1      33.108 -18.167 -22.303  0.00  0.00    +0.150 HD
ENDBRANCH  11  13
BRANCH  11  17
ATOM     17  C   UNL     1      35.680 -17.817 -21.322  0.00  0.00    +0.055 C 
BRANCH  17  18
ATOM     18  C   UNL     1      34.944 -16.538 -21.637  0.00  0.00    -0.020 C 
ATOM     19  C   UNL     1      34.299 -15.855 -20.617  0.00  0.00    -0.004 C 
ATOM     20  C   UNL     1      34.926 -16.067 -22.941  0.00  0.00    -0.004 C 
ATOM     21  C   UNL     1      33.619 -14.673 -20.908  0.00  0.00    -0.000 C 
ATOM     22  C   UNL     1      34.247 -14.883 -23.232  0.00  0.00    -0.000 C 
ATOM     23  C   UNL     1      33.593 -14.187 -22.215  0.00  0.00    -0.000 C 
ENDBRANCH  17  18
ENDBRANCH  11  17
ENDBRANCH   9  11
ENDBRANCH   1   8
BRANCH   1  24
ATOM     24  C   UNL     1      34.918 -21.036 -17.757  0.00  0.00    +0.055 C 
BRANCH  24  25
ATOM     25  C   UNL     1      35.464 -21.881 -16.633  0.00  0.00    -0.020 C 
ATOM     26  C   UNL     1      36.826 -21.875 -16.377  0.00  0.00    -0.004 C 
ATOM     27  C   UNL     1      34.592 -22.648 -15.876  0.00  0.00    -0.004 C 
ATOM     28  C   UNL     1      36.464 -23.434 -14.566  0.00  0.00    +0.049 C 
ATOM     29  C   UNL     1      37.329 -22.657 -15.337  0.00  0.00    +0.001 C 
ATOM     30  C   UNL     1      35.095 -23.430 -14.837  0.00  0.00    +0.001 C 
BRANCH  28  33
ATOM     31  F   UNL     1      38.120 -23.770 -12.865  0.00  0.00    -0.187 F 
ATOM     32  F   UNL     1      36.121 -24.523 -12.454  0.00  0.00    -0.187 F 
ATOM     33  C   UNL     1      37.004 -24.270 -13.455  0.00  0.00    +0.372 C 
BRANCH  33  34
ATOM     34  P   UNL     1      37.560 -25.910 -13.820  0.00  0.00    +0.401 P 
ATOM     35  O   UNL     1      39.025 -26.143 -13.587  0.00  0.00    -0.252 OA
BRANCH  34  36
ATOM     36  O   UNL     1      37.068 -26.159 -15.339  0.00  0.00    -0.320 OA
ATOM     37  H   UNL     1      37.819 -26.450 -15.879  0.00  0.00    +0.220 HD
ENDBRANCH  34  36
BRANCH  34  38
ATOM     38  O   UNL     1      36.580 -26.863 -12.955  0.00  0.00    -0.320 OA
ATOM     39  H   UNL     1      35.729 -26.951 -13.414  0.00  0.00    +0.220 HD
ENDBRANCH  34  38
ENDBRANCH  33  34
ENDBRANCH  28  33
ENDBRANCH  24  25
ENDBRANCH   1  24
TORSDOF 12
ENDMDL
MODEL 6
REMARK VINA RESULT:      -9.8      2.184      5.110
REMARK  Name = 9547919
REMARK  12 active torsions:
REMARK  status: ('A' for Active; 'I' for Inactive)
REMARK    1  A    between atoms: C_1  and  C_4
REMARK    2  A    between atoms: C_1  and  N_8
REMARK    3  A    between atoms: C_1  and  C_24
REMARK    4  A    between atoms: C_9  and  C_11
REMARK    5  A    between atoms: C_11  and  N_13
REMARK    6  A    between atoms: C_11  and  C_17
REMARK    7  A    between atoms: C_17  and  C_18
REMARK    8  A    between atoms: C_24  and  C_25
REMARK    9  A    between atoms: C_28  and  C_33
REMARK   10  A    between atoms: C_33  and  P_34
REMARK   11  A    between atoms: P_34  and  O_36
REMARK   12  A    between atoms: P_34  and  O_38
REMARK                            x       y       z     vdW  Elec       q    Type
REMARK                         _______ _______ _______ _____ _____    ______ ____
ROOT
ATOM      1  C   UNL     1      36.515 -23.114 -15.383  0.00  0.00    +0.153 C 
ENDROOT
BRANCH   1   4
ATOM      2  O   UNL     1      38.751 -23.547 -14.535  0.00  0.00    -0.274 OA
ATOM      3  N   UNL     1      37.322 -25.322 -14.820  0.00  0.00    -0.327 N 
ATOM      4  C   UNL     1      37.658 -23.986 -14.886  0.00  0.00    +0.238 C 
ATOM      5  H   UNL     1      37.984 -25.982 -14.511  0.00  0.00    +0.145 HD
ATOM      6  H   UNL     1      36.419 -25.615 -15.083  0.00  0.00    +0.145 HD
ENDBRANCH   1   4
BRANCH   1   8
ATOM      7  O   UNL     1      34.205 -24.845 -15.207  0.00  0.00    -0.273 OA
ATOM      8  N   UNL     1      35.500 -23.116 -14.355  0.00  0.00    -0.297 N 
ATOM      9  C   UNL     1      34.420 -23.989 -14.352  0.00  0.00    +0.241 C 
ATOM     10  H   UNL     1      35.578 -22.466 -13.620  0.00  0.00    +0.150 HD
BRANCH   9  11
ATOM     11  C   UNL     1      33.479 -23.730 -13.181  0.00  0.00    +0.153 C 
BRANCH  11  13
ATOM     12  O   UNL     1      35.692 -25.149 -11.950  0.00  0.00    -0.275 OA
ATOM     13  N   UNL     1      34.288 -23.296 -12.071  0.00  0.00    -0.298 N 
ATOM     14  C   UNL     1      35.330 -24.046 -11.549  0.00  0.00    +0.223 C 
ATOM     15  C   UNL     1      36.025 -23.348 -10.411  0.00  0.00    +0.095 C 
ATOM     16  H   UNL     1      34.091 -22.421 -11.662  0.00  0.00    +0.150 HD
ENDBRANCH  11  13
BRANCH  11  17
ATOM     17  C   UNL     1      32.421 -22.689 -13.568  0.00  0.00    +0.055 C 
BRANCH  17  18
ATOM     18  C   UNL     1      31.175 -23.312 -14.147  0.00  0.00    -0.020 C 
ATOM     19  C   UNL     1      30.521 -22.679 -15.194  0.00  0.00    -0.004 C 
ATOM     20  C   UNL     1      30.706 -24.506 -13.623  0.00  0.00    -0.004 C 
ATOM     21  C   UNL     1      29.370 -23.255 -15.729  0.00  0.00    -0.000 C 
ATOM     22  C   UNL     1      29.553 -25.083 -14.159  0.00  0.00    -0.000 C 
ATOM     23  C   UNL     1      28.885 -24.457 -15.211  0.00  0.00    -0.000 C 
ENDBRANCH  17  18
ENDBRANCH  11  17
ENDBRANCH   9  11
ENDBRANCH   1   8
BRANCH   1  24
ATOM     24  C   UNL     1      37.020 -21.701 -15.697  0.00  0.00    +0.055 C 
BRANCH  24  25
ATOM     25  C   UNL     1      36.482 -21.165 -17.002  0.00  0.00    -0.020 C 
ATOM     26  C   UNL     1      37.036 -20.017 -17.545  0.00  0.00    -0.004 C 
ATOM     27  C   UNL     1      35.444 -21.833 -17.632  0.00  0.00    -0.004 C 
ATOM     28  C   UNL     1      35.494 -20.184 -19.398  0.00  0.00    +0.049 C 
ATOM     29  C   UNL     1      36.538 -19.523 -18.751  0.00  0.00    +0.001 C 
ATOM     30  C   UNL     1      34.946 -21.338 -18.838  0.00  0.00    +0.001 C 
BRANCH  28  33
ATOM     31  F   UNL     1      35.245 -20.423 -21.771  0.00  0.00    -0.187 F 
ATOM     32  F   UNL     1      33.621 -19.442 -20.705  0.00  0.00    -0.187 F 
ATOM     33  C   UNL     1      34.963 -19.654 -20.687  0.00  0.00    +0.372 C 
BRANCH  33  34
ATOM     34  P   UNL     1      35.548 -18.086 -21.266  0.00  0.00    +0.401 P 
ATOM     35  O   UNL     1      35.084 -16.907 -20.461  0.00  0.00    -0.252 OA
BRANCH  34  36
ATOM     36  O   UNL     1      35.112 -18.059 -22.822  0.00  0.00    -0.320 OA
ATOM     37  H   UNL     1      35.458 -18.848 -23.269  0.00  0.00    +0.220 HD
ENDBRANCH  34  36
BRANCH  34  38
ATOM     38  O   UNL     1      37.154 -18.265 -21.338  0.00  0.00    -0.320 OA
ATOM     39  H   UNL     1      37.527 -18.189 -20.445  0.00  0.00    +0.220 HD
ENDBRANCH  34  38
ENDBRANCH  33  34
ENDBRANCH  28  33
ENDBRANCH  24  25
ENDBRANCH   1  24
TORSDOF 12
ENDMDL
MODEL 7
REMARK VINA RESULT:      -9.8      2.477      3.927
REMARK  Name = 9547919
REMARK  12 active torsions:
REMARK  status: ('A' for Active; 'I' for Inactive)
REMARK    1  A    between atoms: C_1  and  C_4
REMARK    2  A    between atoms: C_1  and  N_8
REMARK    3  A    between atoms: C_1  and  C_24
REMARK    4  A    between atoms: C_9  and  C_11
REMARK    5  A    between atoms: C_11  and  N_13
REMARK    6  A    between atoms: C_11  and  C_17
REMARK    7  A    between atoms: C_17  and  C_18
REMARK    8  A    between atoms: C_24  and  C_25
REMARK    9  A    between atoms: C_28  and  C_33
REMARK   10  A    between atoms: C_33  and  P_34
REMARK   11  A    between atoms: P_34  and  O_36
REMARK   12  A    between atoms: P_34  and  O_38
REMARK                            x       y       z     vdW  Elec       q    Type
REMARK                         _______ _______ _______ _____ _____    ______ ____
ROOT
ATOM      1  C   UNL     1      34.440 -21.475 -18.239  0.00  0.00    +0.153 C 
ENDROOT
BRANCH   1   4
ATOM      2  O   UNL     1      33.483 -23.389 -19.390  0.00  0.00    -0.274 OA
ATOM      3  N   UNL     1      32.063 -21.873 -18.411  0.00  0.00    -0.327 N 
ATOM      4  C   UNL     1      33.309 -22.348 -18.762  0.00  0.00    +0.238 C 
ATOM      5  H   UNL     1      31.253 -22.358 -18.695  0.00  0.00    +0.145 HD
ATOM      6  H   UNL     1      31.982 -21.049 -17.878  0.00  0.00    +0.145 HD
ENDBRANCH   1   4
BRANCH   1   8
ATOM      7  O   UNL     1      36.915 -20.871 -16.867  0.00  0.00    -0.273 OA
ATOM      8  N   UNL     1      34.968 -22.123 -17.060  0.00  0.00    -0.297 N 
ATOM      9  C   UNL     1      36.171 -21.764 -16.468  0.00  0.00    +0.241 C 
ATOM     10  H   UNL     1      34.448 -22.856 -16.658  0.00  0.00    +0.150 HD
BRANCH   9  11
ATOM     11  C   UNL     1      36.507 -22.652 -15.275  0.00  0.00    +0.153 C 
BRANCH  11  13
ATOM     12  O   UNL     1      37.644 -25.075 -14.150  0.00  0.00    -0.275 OA
ATOM     13  N   UNL     1      37.827 -23.185 -15.498  0.00  0.00    -0.298 N 
ATOM     14  C   UNL     1      38.284 -24.356 -14.914  0.00  0.00    +0.223 C 
ATOM     15  C   UNL     1      39.688 -24.697 -15.336  0.00  0.00    +0.095 C 
ATOM     16  H   UNL     1      38.435 -22.693 -16.096  0.00  0.00    +0.150 HD
ENDBRANCH  11  13
BRANCH  11  17
ATOM     17  C   UNL     1      36.418 -21.850 -13.972  0.00  0.00    +0.055 C 
BRANCH  17  18
ATOM     18  C   UNL     1      35.970 -22.688 -12.800  0.00  0.00    -0.020 C 
ATOM     19  C   UNL     1      36.723 -22.688 -11.636  0.00  0.00    -0.004 C 
ATOM     20  C   UNL     1      34.812 -23.442 -12.908  0.00  0.00    -0.004 C 
ATOM     21  C   UNL     1      36.308 -23.463 -10.553  0.00  0.00    -0.000 C 
ATOM     22  C   UNL     1      34.396 -24.217 -11.823  0.00  0.00    -0.000 C 
ATOM     23  C   UNL     1      35.145 -24.227 -10.646  0.00  0.00    -0.000 C 
ENDBRANCH  17  18
ENDBRANCH  11  17
ENDBRANCH   9  11
ENDBRANCH   1   8
BRANCH   1  24
ATOM     24  C   UNL     1      35.508 -21.281 -19.322  0.00  0.00    +0.055 C 
BRANCH  24  25
ATOM     25  C   UNL     1      35.275 -20.045 -20.156  0.00  0.00    -0.020 C 
ATOM     26  C   UNL     1      33.994 -19.751 -20.594  0.00  0.00    -0.004 C 
ATOM     27  C   UNL     1      36.349 -19.227 -20.469  0.00  0.00    -0.004 C 
ATOM     28  C   UNL     1      34.850 -17.774 -21.687  0.00  0.00    +0.049 C 
ATOM     29  C   UNL     1      33.779 -18.608 -21.365  0.00  0.00    +0.001 C 
ATOM     30  C   UNL     1      36.135 -18.084 -21.240  0.00  0.00    +0.001 C 
BRANCH  28  33
ATOM     31  F   UNL     1      33.812 -15.627 -21.934  0.00  0.00    -0.187 F 
ATOM     32  F   UNL     1      35.750 -15.898 -22.886  0.00  0.00    -0.187 F 
ATOM     33  C   UNL     1      34.620 -16.553 -22.512  0.00  0.00    +0.372 C 
BRANCH  33  34
ATOM     34  P   UNL     1      33.811 -16.726 -24.078  0.00  0.00    +0.401 P 
ATOM     35  O   UNL     1      33.408 -18.130 -24.424  0.00  0.00    -0.252 OA
BRANCH  34  36
ATOM     36  O   UNL     1      34.835 -16.037 -25.122  0.00  0.00    -0.320 OA
ATOM     37  H   UNL     1      35.341 -15.345 -24.670  0.00  0.00    +0.220 HD
ENDBRANCH  34  36
BRANCH  34  38
ATOM     38  O   UNL     1      32.589 -15.669 -24.011  0.00  0.00    -0.320 OA
ATOM     39  H   UNL     1      32.333 -15.529 -23.085  0.00  0.00    +0.220 HD
ENDBRANCH  34  38
ENDBRANCH  33  34
ENDBRANCH  28  33
ENDBRANCH  24  25
ENDBRANCH   1  24
TORSDOF 12
ENDMDL
MODEL 8
REMARK VINA RESULT:      -9.7      2.543      3.282
REMARK  Name = 9547919
REMARK  12 active torsions:
REMARK  status: ('A' for Active; 'I' for Inactive)
REMARK    1  A    between atoms: C_1  and  C_4
REMARK    2  A    between atoms: C_1  and  N_8
REMARK    3  A    between atoms: C_1  and  C_24
REMARK    4  A    between atoms: C_9  and  C_11
REMARK    5  A    between atoms: C_11  and  N_13
REMARK    6  A    between atoms: C_11  and  C_17
REMARK    7  A    between atoms: C_17  and  C_18
REMARK    8  A    between atoms: C_24  and  C_25
REMARK    9  A    between atoms: C_28  and  C_33
REMARK   10  A    between atoms: C_33  and  P_34
REMARK   11  A    between atoms: P_34  and  O_36
REMARK   12  A    between atoms: P_34  and  O_38
REMARK                            x       y       z     vdW  Elec       q    Type
REMARK                         _______ _______ _______ _____ _____    ______ ____
ROOT
ATOM      1  C   UNL     1      34.497 -21.321 -18.500  0.00  0.00    +0.153 C 
ENDROOT
BRANCH   1   4
ATOM      2  O   UNL     1      33.498 -23.320 -19.456  0.00  0.00    -0.274 OA
ATOM      3  N   UNL     1      32.119 -21.753 -18.498  0.00  0.00    -0.327 N 
ATOM      4  C   UNL     1      33.348 -22.239 -18.891  0.00  0.00    +0.238 C 
ATOM      5  H   UNL     1      31.300 -22.264 -18.697  0.00  0.00    +0.145 HD
ATOM      6  H   UNL     1      32.060 -20.895 -18.018  0.00  0.00    +0.145 HD
ENDBRANCH   1   4
BRANCH   1   8
ATOM      7  O   UNL     1      36.759 -20.276 -17.029  0.00  0.00    -0.273 OA
ATOM      8  N   UNL     1      35.137 -21.908 -17.345  0.00  0.00    -0.297 N 
ATOM      9  C   UNL     1      36.223 -21.332 -16.701  0.00  0.00    +0.241 C 
ATOM     10  H   UNL     1      34.785 -22.760 -16.998  0.00  0.00    +0.150 HD
BRANCH   9  11
ATOM     11  C   UNL     1      36.728 -22.196 -15.550  0.00  0.00    +0.153 C 
BRANCH  11  13
ATOM     12  O   UNL     1      34.868 -22.602 -13.359  0.00  0.00    -0.275 OA
ATOM     13  N   UNL     1      35.792 -23.279 -15.386  0.00  0.00    -0.298 N 
ATOM     14  C   UNL     1      34.938 -23.389 -14.300  0.00  0.00    +0.223 C 
ATOM     15  C   UNL     1      34.049 -24.600 -14.391  0.00  0.00    +0.095 C 
ATOM     16  H   UNL     1      35.757 -23.976 -16.081  0.00  0.00    +0.150 HD
ENDBRANCH  11  13
BRANCH  11  17
ATOM     17  C   UNL     1      38.147 -22.696 -15.843  0.00  0.00    +0.055 C 
BRANCH  17  18
ATOM     18  C   UNL     1      38.593 -23.779 -14.892  0.00  0.00    -0.020 C 
ATOM     19  C   UNL     1      38.051 -23.829 -13.617  0.00  0.00    -0.004 C 
ATOM     20  C   UNL     1      39.536 -24.705 -15.310  0.00  0.00    -0.004 C 
ATOM     21  C   UNL     1      38.462 -24.830 -12.737  0.00  0.00    -0.000 C 
ATOM     22  C   UNL     1      39.947 -25.707 -14.430  0.00  0.00    -0.000 C 
ATOM     23  C   UNL     1      39.411 -25.769 -13.143  0.00  0.00    -0.000 C 
ENDBRANCH  17  18
ENDBRANCH  11  17
ENDBRANCH   9  11
ENDBRANCH   1   8
BRANCH   1  24
ATOM     24  C   UNL     1      35.466 -21.150 -19.676  0.00  0.00    +0.055 C 
BRANCH  24  25
ATOM     25  C   UNL     1      35.213 -19.886 -20.461  0.00  0.00    -0.020 C 
ATOM     26  C   UNL     1      33.933 -19.612 -20.915  0.00  0.00    -0.004 C 
ATOM     27  C   UNL     1      36.267 -19.022 -20.713  0.00  0.00    -0.004 C 
ATOM     28  C   UNL     1      34.751 -17.564 -21.902  0.00  0.00    +0.049 C 
ATOM     29  C   UNL     1      33.700 -18.444 -21.641  0.00  0.00    +0.001 C 
ATOM     30  C   UNL     1      36.034 -17.854 -21.439  0.00  0.00    +0.001 C 
BRANCH  28  33
ATOM     31  F   UNL     1      33.616 -15.461 -22.102  0.00  0.00    -0.187 F 
ATOM     32  F   UNL     1      35.613 -15.587 -22.957  0.00  0.00    -0.187 F 
ATOM     33  C   UNL     1      34.501 -16.315 -22.678  0.00  0.00    +0.372 C 
BRANCH  33  34
ATOM     34  P   UNL     1      33.786 -16.448 -24.293  0.00  0.00    +0.401 P 
ATOM     35  O   UNL     1      33.385 -17.840 -24.689  0.00  0.00    -0.252 OA
BRANCH  34  36
ATOM     36  O   UNL     1      34.880 -15.757 -25.260  0.00  0.00    -0.320 OA
ATOM     37  H   UNL     1      34.465 -15.031 -25.752  0.00  0.00    +0.220 HD
ENDBRANCH  34  36
BRANCH  34  38
ATOM     38  O   UNL     1      32.577 -15.375 -24.280  0.00  0.00    -0.320 OA
ATOM     39  H   UNL     1      31.745 -15.828 -24.068  0.00  0.00    +0.220 HD
ENDBRANCH  34  38
ENDBRANCH  33  34
ENDBRANCH  28  33
ENDBRANCH  24  25
ENDBRANCH   1  24
TORSDOF 12
ENDMDL
MODEL 9
REMARK VINA RESULT:      -9.7      4.513      9.868
REMARK  Name = 9547919
REMARK  12 active torsions:
REMARK  status: ('A' for Active; 'I' for Inactive)
REMARK    1  A    between atoms: C_1  and  C_4
REMARK    2  A    between atoms: C_1  and  N_8
REMARK    3  A    between atoms: C_1  and  C_24
REMARK    4  A    between atoms: C_9  and  C_11
REMARK    5  A    between atoms: C_11  and  N_13
REMARK    6  A    between atoms: C_11  and  C_17
REMARK    7  A    between atoms: C_17  and  C_18
REMARK    8  A    between atoms: C_24  and  C_25
REMARK    9  A    between atoms: C_28  and  C_33
REMARK   10  A    between atoms: C_33  and  P_34
REMARK   11  A    between atoms: P_34  and  O_36
REMARK   12  A    between atoms: P_34  and  O_38
REMARK                            x       y       z     vdW  Elec       q    Type
REMARK                         _______ _______ _______ _____ _____    ______ ____
ROOT
ATOM      1  C   UNL     1      35.000 -21.797 -19.190  0.00  0.00    +0.153 C 
ENDROOT
BRANCH   1   4
ATOM      2  O   UNL     1      33.660 -23.603 -20.113  0.00  0.00    -0.274 OA
ATOM      3  N   UNL     1      32.592 -21.896 -19.008  0.00  0.00    -0.327 N 
ATOM      4  C   UNL     1      33.706 -22.533 -19.510  0.00  0.00    +0.238 C 
ATOM      5  H   UNL     1      31.696 -22.281 -19.154  0.00  0.00    +0.145 HD
ATOM      6  H   UNL     1      32.690 -21.056 -18.503  0.00  0.00    +0.145 HD
ENDBRANCH   1   4
BRANCH   1   8
ATOM      7  O   UNL     1      33.384 -19.592 -20.135  0.00  0.00    -0.273 OA
ATOM      8  N   UNL     1      35.280 -20.923 -20.306  0.00  0.00    -0.297 N 
ATOM      9  C   UNL     1      34.442 -19.885 -20.689  0.00  0.00    +0.241 C 
ATOM     10  H   UNL     1      36.106 -21.071 -20.820  0.00  0.00    +0.150 HD
BRANCH   9  11
ATOM     11  C   UNL     1      34.955 -19.165 -21.930  0.00  0.00    +0.153 C 
BRANCH  11  13
ATOM     12  O   UNL     1      34.470 -19.858 -24.707  0.00  0.00    -0.275 OA
ATOM     13  N   UNL     1      33.807 -18.821 -22.731  0.00  0.00    -0.298 N 
ATOM     14  C   UNL     1      33.662 -19.200 -24.056  0.00  0.00    +0.223 C 
ATOM     15  C   UNL     1      32.360 -18.732 -24.646  0.00  0.00    +0.095 C 
ATOM     16  H   UNL     1      33.089 -18.291 -22.315  0.00  0.00    +0.150 HD
ENDBRANCH  11  13
BRANCH  11  17
ATOM     17  C   UNL     1      35.773 -17.931 -21.530  0.00  0.00    +0.055 C 
BRANCH  17  18
ATOM     18  C   UNL     1      35.015 -16.640 -21.722  0.00  0.00    -0.020 C 
ATOM     19  C   UNL     1      34.968 -16.060 -22.980  0.00  0.00    -0.004 C 
ATOM     20  C   UNL     1      34.377 -16.059 -20.637  0.00  0.00    -0.004 C 
ATOM     21  C   UNL     1      34.267 -14.867 -23.158  0.00  0.00    -0.000 C 
ATOM     22  C   UNL     1      33.675 -14.866 -20.815  0.00  0.00    -0.000 C 
ATOM     23  C   UNL     1      33.621 -14.270 -22.075  0.00  0.00    -0.000 C 
ENDBRANCH  17  18
ENDBRANCH  11  17
ENDBRANCH   9  11
ENDBRANCH   1   8
BRANCH   1  24
ATOM     24  C   UNL     1      34.863 -21.029 -17.871  0.00  0.00    +0.055 C 
BRANCH  24  25
ATOM     25  C   UNL     1      35.382 -21.806 -16.686  0.00  0.00    -0.020 C 
ATOM     26  C   UNL     1      34.502 -22.570 -15.935  0.00  0.00    -0.004 C 
ATOM     27  C   UNL     1      36.730 -21.742 -16.371  0.00  0.00    -0.004 C 
ATOM     28  C   UNL     1      36.338 -23.235 -14.511  0.00  0.00    +0.049 C 
ATOM     29  C   UNL     1      34.983 -23.289 -14.841  0.00  0.00    +0.001 C 
ATOM     30  C   UNL     1      37.211 -22.461 -15.276  0.00  0.00    +0.001 C 
BRANCH  28  33
ATOM     31  F   UNL     1      36.282 -25.226 -13.176  0.00  0.00    -0.187 F 
ATOM     32  F   UNL     1      38.195 -24.200 -13.334  0.00  0.00    -0.187 F 
ATOM     33  C   UNL     1      36.850 -24.004 -13.341  0.00  0.00    +0.372 C 
BRANCH  33  34
ATOM     34  P   UNL     1      36.612 -23.337 -11.718  0.00  0.00    +0.401 P 
ATOM     35  O   UNL     1      35.177 -23.145 -11.322  0.00  0.00    -0.252 OA
BRANCH  34  36
ATOM     36  O   UNL     1      37.502 -21.988 -11.717  0.00  0.00    -0.320 OA
ATOM     37  H   UNL     1      38.407 -22.198 -11.437  0.00  0.00    +0.220 HD
ENDBRANCH  34  36
BRANCH  34  38
ATOM     38  O   UNL     1      37.451 -24.330 -10.755  0.00  0.00    -0.320 OA
ATOM     39  H   UNL     1      36.846 -24.757 -10.126  0.00  0.00    +0.220 HD
ENDBRANCH  34  38
ENDBRANCH  33  34
ENDBRANCH  28  33
ENDBRANCH  24  25
ENDBRANCH   1  24
TORSDOF 12
ENDMDL
