MODEL 1
REMARK VINA RESULT:     -12.6      0.000      0.000
REMARK  Name = 9823454
REMARK  7 active torsions:
REMARK  status: ('A' for Active; 'I' for Inactive)
REMARK    1  A    between atoms: C_1  and  C_4
REMARK    2  A    between atoms: C_1  and  N_8
REMARK    3  A    between atoms: C_1  and  C_23
REMARK    4  A    between atoms: N_3  and  O_6
REMARK    5  A    between atoms: N_8  and  S_10
REMARK    6  A    between atoms: S_10  and  C_13
REMARK    7  A    between atoms: C_23  and  C_24
REMARK                            x       y       z     vdW  Elec       q    Type
REMARK                         _______ _______ _______ _____ _____    ______ ____
ROOT
ATOM      1  C   UNL     1      34.066 -23.626 -13.176  0.00  0.00    +0.158 C 
ENDROOT
BRANCH   1   4
ATOM      2  O   UNL     1      34.770 -23.562 -10.865  0.00  0.00    -0.272 OA
ATOM      3  N   UNL     1      35.764 -25.082 -12.290  0.00  0.00    -0.196 N 
ATOM      4  C   UNL     1      34.888 -24.072 -11.978  0.00  0.00    +0.260 C 
ATOM      5  H   UNL     1      35.825 -25.461 -13.197  0.00  0.00    +0.182 HD
BRANCH   3   6
ATOM      6  O   UNL     1      36.567 -25.542 -11.237  0.00  0.00    -0.295 OA
ATOM      7  H   UNL     1      37.450 -25.760 -11.576  0.00  0.00    +0.241 HD
ENDBRANCH   3   6
ENDBRANCH   1   4
BRANCH   1   8
ATOM      8  N   UNL     1      34.920 -22.661 -13.908  0.00  0.00    -0.172 NA
ATOM      9  H   UNL     1      34.309 -21.909 -14.227  0.00  0.00    +0.149 HD
BRANCH   8  10
ATOM     10  S   UNL     1      35.811 -23.176 -15.259  0.00  0.00    +0.061 S 
ATOM     11  O   UNL     1      35.727 -24.620 -15.371  0.00  0.00    -0.153 OA
ATOM     12  O   UNL     1      37.104 -22.519 -15.243  0.00  0.00    -0.153 OA
BRANCH  10  13
ATOM     13  C   UNL     1      34.891 -22.471 -16.593  0.00  0.00    +0.122 C 
ATOM     14  C   UNL     1      35.554 -21.719 -17.548  0.00  0.00    +0.020 C 
ATOM     15  C   UNL     1      34.838 -21.151 -18.615  0.00  0.00    +0.001 C 
ATOM     16  C   UNL     1      33.528 -22.683 -16.659  0.00  0.00    +0.020 C 
ATOM     17  C   UNL     1      33.440 -21.359 -18.697  0.00  0.00    +0.000 C 
ATOM     18  C   UNL     1      32.801 -22.127 -17.712  0.00  0.00    +0.001 C 
ATOM     19  C   UNL     1      35.478 -20.383 -19.600  0.00  0.00    +0.000 C 
ATOM     20  C   UNL     1      32.723 -20.790 -19.763  0.00  0.00    +0.000 C 
ATOM     21  C   UNL     1      34.750 -19.826 -20.653  0.00  0.00    +0.000 C 
ATOM     22  C   UNL     1      33.376 -20.030 -20.734  0.00  0.00    +0.000 C 
ENDBRANCH  10  13
ENDBRANCH   8  10
ENDBRANCH   1   8
BRANCH   1  23
ATOM     23  C   UNL     1      32.764 -22.938 -12.733  0.00  0.00    +0.053 C 
BRANCH  23  24
ATOM     24  C   UNL     1      31.575 -23.348 -13.535  0.00  0.00    -0.020 C 
ATOM     25  C   UNL     1      30.887 -22.403 -14.297  0.00  0.00    -0.004 C 
ATOM     26  C   UNL     1      29.766 -22.774 -15.058  0.00  0.00    -0.000 C 
ATOM     27  C   UNL     1      31.152 -24.674 -13.523  0.00  0.00    -0.004 C 
ATOM     28  C   UNL     1      29.337 -24.123 -15.045  0.00  0.00    -0.000 C 
ATOM     29  C   UNL     1      30.041 -25.060 -14.273  0.00  0.00    -0.000 C 
ATOM     30  C   UNL     1      29.063 -21.836 -15.830  0.00  0.00    -0.000 C 
ATOM     31  C   UNL     1      28.216 -24.494 -15.805  0.00  0.00    -0.000 C 
ATOM     32  C   UNL     1      27.951 -22.222 -16.580  0.00  0.00    -0.000 C 
ATOM     33  C   UNL     1      27.528 -23.548 -16.567  0.00  0.00    -0.000 C 
ENDBRANCH  23  24
ENDBRANCH   1  23
TORSDOF 7
ENDMDL
MODEL 2
REMARK VINA RESULT:     -12.6      1.507      6.102
REMARK  Name = 9823454
REMARK  7 active torsions:
REMARK  status: ('A' for Active; 'I' for Inactive)
REMARK    1  A    between atoms: C_1  and  C_4
REMARK    2  A    between atoms: C_1  and  N_8
REMARK    3  A    between atoms: C_1  and  C_23
REMARK    4  A    between atoms: N_3  and  O_6
REMARK    5  A    between atoms: N_8  and  S_10
REMARK    6  A    between atoms: S_10  and  C_13
REMARK    7  A    between atoms: C_23  and  C_24
REMARK                            x       y       z     vdW  Elec       q    Type
REMARK                         _______ _______ _______ _____ _____    ______ ____
ROOT
ATOM      1  C   UNL     1      35.454 -22.001 -15.305  0.00  0.00    +0.158 C 
ENDROOT
BRANCH   1   4
ATOM      2  O   UNL     1      37.121 -22.282 -13.578  0.00  0.00    -0.272 OA
ATOM      3  N   UNL     1      37.528 -23.164 -15.673  0.00  0.00    -0.196 N 
ATOM      4  C   UNL     1      36.778 -22.489 -14.741  0.00  0.00    +0.260 C 
ATOM      5  H   UNL     1      37.212 -23.307 -16.595  0.00  0.00    +0.182 HD
BRANCH   3   6
ATOM      6  O   UNL     1      38.770 -23.639 -15.231  0.00  0.00    -0.295 OA
ATOM      7  H   UNL     1      39.463 -23.004 -15.471  0.00  0.00    +0.241 HD
ENDBRANCH   3   6
ENDBRANCH   1   4
BRANCH   1   8
ATOM      8  N   UNL     1      34.467 -22.172 -14.212  0.00  0.00    -0.172 NA
ATOM      9  H   UNL     1      34.819 -21.648 -13.412  0.00  0.00    +0.149 HD
BRANCH   8  10
ATOM     10  S   UNL     1      34.089 -23.730 -13.651  0.00  0.00    +0.061 S 
ATOM     11  O   UNL     1      34.235 -23.772 -12.208  0.00  0.00    -0.153 OA
ATOM     12  O   UNL     1      34.772 -24.704 -14.483  0.00  0.00    -0.153 OA
BRANCH  10  13
ATOM     13  C   UNL     1      32.367 -23.846 -14.029  0.00  0.00    +0.122 C 
ATOM     14  C   UNL     1      31.829 -23.011 -14.993  0.00  0.00    +0.020 C 
ATOM     15  C   UNL     1      30.462 -23.090 -15.304  0.00  0.00    +0.001 C 
ATOM     16  C   UNL     1      31.590 -24.767 -13.355  0.00  0.00    +0.020 C 
ATOM     17  C   UNL     1      29.650 -24.029 -14.623  0.00  0.00    +0.000 C 
ATOM     18  C   UNL     1      30.230 -24.860 -13.652  0.00  0.00    +0.001 C 
ATOM     19  C   UNL     1      29.882 -22.258 -16.276  0.00  0.00    +0.000 C 
ATOM     20  C   UNL     1      28.283 -24.107 -14.934  0.00  0.00    +0.000 C 
ATOM     21  C   UNL     1      28.521 -22.350 -16.572  0.00  0.00    +0.000 C 
ATOM     22  C   UNL     1      27.724 -23.273 -15.903  0.00  0.00    +0.000 C 
ENDBRANCH  10  13
ENDBRANCH   8  10
ENDBRANCH   1   8
BRANCH   1  23
ATOM     23  C   UNL     1      35.028 -22.833 -16.526  0.00  0.00    +0.053 C 
BRANCH  23  24
ATOM     24  C   UNL     1      34.621 -22.001 -17.696  0.00  0.00    -0.020 C 
ATOM     25  C   UNL     1      35.567 -21.219 -18.360  0.00  0.00    -0.004 C 
ATOM     26  C   UNL     1      35.199 -20.431 -19.463  0.00  0.00    -0.000 C 
ATOM     27  C   UNL     1      33.298 -22.007 -18.126  0.00  0.00    -0.004 C 
ATOM     28  C   UNL     1      33.852 -20.438 -19.899  0.00  0.00    -0.000 C 
ATOM     29  C   UNL     1      32.915 -21.231 -19.220  0.00  0.00    -0.000 C 
ATOM     30  C   UNL     1      36.138 -19.638 -20.141  0.00  0.00    -0.000 C 
ATOM     31  C   UNL     1      33.485 -19.650 -21.002  0.00  0.00    -0.000 C 
ATOM     32  C   UNL     1      35.755 -18.861 -21.236  0.00  0.00    -0.000 C 
ATOM     33  C   UNL     1      34.431 -18.867 -21.664  0.00  0.00    -0.000 C 
ENDBRANCH  23  24
ENDBRANCH   1  23
TORSDOF 7
ENDMDL
MODEL 3
REMARK VINA RESULT:     -11.9      1.205      2.017
REMARK  Name = 9823454
REMARK  7 active torsions:
REMARK  status: ('A' for Active; 'I' for Inactive)
REMARK    1  A    between atoms: C_1  and  C_4
REMARK    2  A    between atoms: C_1  and  N_8
REMARK    3  A    between atoms: C_1  and  C_23
REMARK    4  A    between atoms: N_3  and  O_6
REMARK    5  A    between atoms: N_8  and  S_10
REMARK    6  A    between atoms: S_10  and  C_13
REMARK    7  A    between atoms: C_23  and  C_24
REMARK                            x       y       z     vdW  Elec       q    Type
REMARK                         _______ _______ _______ _____ _____    ______ ____
ROOT
ATOM      1  C   UNL     1      34.706 -24.545 -12.846  0.00  0.00    +0.158 C 
ENDROOT
BRANCH   1   4
ATOM      2  O   UNL     1      36.414 -25.440 -11.388  0.00  0.00    -0.272 OA
ATOM      3  N   UNL     1      35.257 -23.557 -10.723  0.00  0.00    -0.196 N 
ATOM      4  C   UNL     1      35.560 -24.578 -11.589  0.00  0.00    +0.260 C 
ATOM      5  H   UNL     1      34.563 -22.887 -10.925  0.00  0.00    +0.182 HD
BRANCH   3   6
ATOM      6  O   UNL     1      35.996 -23.524  -9.532  0.00  0.00    -0.295 OA
ATOM      7  H   UNL     1      36.215 -22.605  -9.312  0.00  0.00    +0.241 HD
ENDBRANCH   3   6
ENDBRANCH   1   4
BRANCH   1   8
ATOM      8  N   UNL     1      35.664 -24.497 -13.976  0.00  0.00    -0.172 NA
ATOM      9  H   UNL     1      36.239 -25.336 -13.913  0.00  0.00    +0.149 HD
BRANCH   8  10
ATOM     10  S   UNL     1      36.729 -23.182 -14.126  0.00  0.00    +0.061 S 
ATOM     11  O   UNL     1      38.081 -23.674 -14.308  0.00  0.00    -0.153 OA
ATOM     12  O   UNL     1      36.436 -22.222 -13.079  0.00  0.00    -0.153 OA
BRANCH  10  13
ATOM     13  C   UNL     1      36.202 -22.459 -15.650  0.00  0.00    +0.122 C 
ATOM     14  C   UNL     1      34.909 -22.678 -16.091  0.00  0.00    +0.020 C 
ATOM     15  C   UNL     1      34.475 -22.110 -17.301  0.00  0.00    +0.001 C 
ATOM     16  C   UNL     1      37.091 -21.688 -16.373  0.00  0.00    +0.020 C 
ATOM     17  C   UNL     1      35.373 -21.318 -18.054  0.00  0.00    +0.000 C 
ATOM     18  C   UNL     1      36.677 -21.116 -17.577  0.00  0.00    +0.001 C 
ATOM     19  C   UNL     1      33.170 -22.313 -17.778  0.00  0.00    +0.000 C 
ATOM     20  C   UNL     1      34.940 -20.751 -19.264  0.00  0.00    +0.000 C 
ATOM     21  C   UNL     1      32.756 -21.742 -18.983  0.00  0.00    +0.000 C 
ATOM     22  C   UNL     1      33.639 -20.962 -19.723  0.00  0.00    +0.000 C 
ENDBRANCH  10  13
ENDBRANCH   8  10
ENDBRANCH   1   8
BRANCH   1  23
ATOM     23  C   UNL     1      33.804 -23.301 -12.874  0.00  0.00    +0.053 C 
BRANCH  23  24
ATOM     24  C   UNL     1      32.440 -23.570 -13.415  0.00  0.00    -0.020 C 
ATOM     25  C   UNL     1      31.891 -22.723 -14.379  0.00  0.00    -0.004 C 
ATOM     26  C   UNL     1      30.609 -22.963 -14.898  0.00  0.00    -0.000 C 
ATOM     27  C   UNL     1      31.716 -24.668 -12.960  0.00  0.00    -0.004 C 
ATOM     28  C   UNL     1      29.873 -24.080 -14.435  0.00  0.00    -0.000 C 
ATOM     29  C   UNL     1      30.441 -24.922 -13.466  0.00  0.00    -0.000 C 
ATOM     30  C   UNL     1      30.042 -22.120 -15.867  0.00  0.00    -0.000 C 
ATOM     31  C   UNL     1      28.591 -24.321 -14.954  0.00  0.00    -0.000 C 
ATOM     32  C   UNL     1      28.766 -22.375 -16.373  0.00  0.00    -0.000 C 
ATOM     33  C   UNL     1      28.043 -23.472 -15.917  0.00  0.00    -0.000 C 
ENDBRANCH  23  24
ENDBRANCH   1  23
TORSDOF 7
ENDMDL
MODEL 4
REMARK VINA RESULT:     -11.7      4.950      7.859
REMARK  Name = 9823454
REMARK  7 active torsions:
REMARK  status: ('A' for Active; 'I' for Inactive)
REMARK    1  A    between atoms: C_1  and  C_4
REMARK    2  A    between atoms: C_1  and  N_8
REMARK    3  A    between atoms: C_1  and  C_23
REMARK    4  A    between atoms: N_3  and  O_6
REMARK    5  A    between atoms: N_8  and  S_10
REMARK    6  A    between atoms: S_10  and  C_13
REMARK    7  A    between atoms: C_23  and  C_24
REMARK                            x       y       z     vdW  Elec       q    Type
REMARK                         _______ _______ _______ _____ _____    ______ ____
ROOT
ATOM      1  C   UNL     1      34.078 -20.015 -19.813  0.00  0.00    +0.158 C 
ENDROOT
BRANCH   1   4
ATOM      2  O   UNL     1      31.814 -20.253 -20.626  0.00  0.00    -0.272 OA
ATOM      3  N   UNL     1      32.337 -21.069 -18.530  0.00  0.00    -0.196 N 
ATOM      4  C   UNL     1      32.625 -20.451 -19.722  0.00  0.00    +0.260 C 
ATOM      5  H   UNL     1      33.019 -21.207 -17.834  0.00  0.00    +0.182 HD
BRANCH   3   6
ATOM      6  O   UNL     1      31.011 -21.493 -18.366  0.00  0.00    -0.295 OA
ATOM      7  H   UNL     1      30.428 -20.719 -18.315  0.00  0.00    +0.241 HD
ENDBRANCH   3   6
ENDBRANCH   1   4
BRANCH   1   8
ATOM      8  N   UNL     1      34.233 -19.426 -21.165  0.00  0.00    -0.172 NA
ATOM      9  H   UNL     1      34.267 -20.203 -21.823  0.00  0.00    +0.149 HD
BRANCH   8  10
ATOM     10  S   UNL     1      35.568 -18.433 -21.506  0.00  0.00    +0.061 S 
ATOM     11  O   UNL     1      36.307 -18.986 -22.626  0.00  0.00    -0.153 OA
ATOM     12  O   UNL     1      36.250 -18.124 -20.263  0.00  0.00    -0.153 OA
BRANCH  10  13
ATOM     13  C   UNL     1      34.787 -16.945 -22.050  0.00  0.00    +0.122 C 
ATOM     14  C   UNL     1      34.405 -16.000 -21.112  0.00  0.00    +0.020 C 
ATOM     15  C   UNL     1      33.782 -14.812 -21.528  0.00  0.00    +0.001 C 
ATOM     16  C   UNL     1      34.572 -16.751 -23.400  0.00  0.00    +0.020 C 
ATOM     17  C   UNL     1      33.554 -14.597 -22.908  0.00  0.00    +0.000 C 
ATOM     18  C   UNL     1      33.955 -15.576 -23.831  0.00  0.00    +0.001 C 
ATOM     19  C   UNL     1      33.381 -13.833 -20.604  0.00  0.00    +0.000 C 
ATOM     20  C   UNL     1      32.930 -13.409 -23.324  0.00  0.00    +0.000 C 
ATOM     21  C   UNL     1      32.763 -12.659 -21.035  0.00  0.00    +0.000 C 
ATOM     22  C   UNL     1      32.539 -12.447 -22.392  0.00  0.00    +0.000 C 
ENDBRANCH  10  13
ENDBRANCH   8  10
ENDBRANCH   1   8
BRANCH   1  23
ATOM     23  C   UNL     1      35.030 -21.212 -19.654  0.00  0.00    +0.053 C 
BRANCH  23  24
ATOM     24  C   UNL     1      35.425 -21.470 -18.239  0.00  0.00    -0.020 C 
ATOM     25  C   UNL     1      34.651 -22.312 -17.440  0.00  0.00    -0.004 C 
ATOM     26  C   UNL     1      35.010 -22.565 -16.106  0.00  0.00    -0.000 C 
ATOM     27  C   UNL     1      36.566 -20.870 -17.716  0.00  0.00    -0.004 C 
ATOM     28  C   UNL     1      36.171 -21.954 -15.575  0.00  0.00    -0.000 C 
ATOM     29  C   UNL     1      36.938 -21.110 -16.393  0.00  0.00    -0.000 C 
ATOM     30  C   UNL     1      34.242 -23.409 -15.288  0.00  0.00    -0.000 C 
ATOM     31  C   UNL     1      36.530 -22.207 -14.241  0.00  0.00    -0.000 C 
ATOM     32  C   UNL     1      34.614 -23.650 -13.965  0.00  0.00    -0.000 C 
ATOM     33  C   UNL     1      35.755 -23.049 -13.442  0.00  0.00    -0.000 C 
ENDBRANCH  23  24
ENDBRANCH   1  23
TORSDOF 7
ENDMDL
MODEL 5
REMARK VINA RESULT:     -11.6      1.931      3.214
REMARK  Name = 9823454
REMARK  7 active torsions:
REMARK  status: ('A' for Active; 'I' for Inactive)
REMARK    1  A    between atoms: C_1  and  C_4
REMARK    2  A    between atoms: C_1  and  N_8
REMARK    3  A    between atoms: C_1  and  C_23
REMARK    4  A    between atoms: N_3  and  O_6
REMARK    5  A    between atoms: N_8  and  S_10
REMARK    6  A    between atoms: S_10  and  C_13
REMARK    7  A    between atoms: C_23  and  C_24
REMARK                            x       y       z     vdW  Elec       q    Type
REMARK                         _______ _______ _______ _____ _____    ______ ____
ROOT
ATOM      1  C   UNL     1      34.052 -23.737 -15.627  0.00  0.00    +0.158 C 
ENDROOT
BRANCH   1   4
ATOM      2  O   UNL     1      36.264 -24.578 -15.134  0.00  0.00    -0.272 OA
ATOM      3  N   UNL     1      35.902 -22.298 -15.080  0.00  0.00    -0.196 N 
ATOM      4  C   UNL     1      35.522 -23.605 -15.259  0.00  0.00    +0.260 C 
ATOM      5  H   UNL     1      35.272 -21.550 -15.191  0.00  0.00    +0.182 HD
BRANCH   3   6
ATOM      6  O   UNL     1      37.244 -22.094 -14.728  0.00  0.00    -0.295 OA
ATOM      7  H   UNL     1      37.815 -22.371 -15.462  0.00  0.00    +0.241 HD
ENDBRANCH   3   6
ENDBRANCH   1   4
BRANCH   1   8
ATOM      8  N   UNL     1      33.701 -22.475 -16.322  0.00  0.00    -0.172 NA
ATOM      9  H   UNL     1      33.052 -21.975 -15.716  0.00  0.00    +0.149 HD
BRANCH   8  10
ATOM     10  S   UNL     1      32.992 -22.530 -17.864  0.00  0.00    +0.061 S 
ATOM     11  O   UNL     1      31.667 -21.942 -17.807  0.00  0.00    -0.153 OA
ATOM     12  O   UNL     1      33.179 -23.858 -18.417  0.00  0.00    -0.153 OA
BRANCH  10  13
ATOM     13  C   UNL     1      34.034 -21.437 -18.783  0.00  0.00    +0.122 C 
ATOM     14  C   UNL     1      33.486 -20.680 -19.803  0.00  0.00    +0.020 C 
ATOM     15  C   UNL     1      34.300 -19.807 -20.544  0.00  0.00    +0.001 C 
ATOM     16  C   UNL     1      35.376 -21.359 -18.466  0.00  0.00    +0.020 C 
ATOM     17  C   UNL     1      35.678 -19.715 -20.232  0.00  0.00    +0.000 C 
ATOM     18  C   UNL     1      36.200 -20.497 -19.190  0.00  0.00    +0.001 C 
ATOM     19  C   UNL     1      33.777 -19.024 -21.586  0.00  0.00    +0.000 C 
ATOM     20  C   UNL     1      36.492 -18.843 -20.973  0.00  0.00    +0.000 C 
ATOM     21  C   UNL     1      34.602 -18.163 -22.311  0.00  0.00    +0.000 C 
ATOM     22  C   UNL     1      35.956 -18.072 -22.005  0.00  0.00    +0.000 C 
ENDBRANCH  10  13
ENDBRANCH   8  10
ENDBRANCH   1   8
BRANCH   1  23
ATOM     23  C   UNL     1      33.178 -23.902 -14.373  0.00  0.00    +0.053 C 
BRANCH  23  24
ATOM     24  C   UNL     1      31.801 -23.352 -14.535  0.00  0.00    -0.020 C 
ATOM     25  C   UNL     1      30.891 -23.986 -15.381  0.00  0.00    -0.004 C 
ATOM     26  C   UNL     1      29.591 -23.481 -15.545  0.00  0.00    -0.000 C 
ATOM     27  C   UNL     1      31.424 -22.206 -13.842  0.00  0.00    -0.004 C 
ATOM     28  C   UNL     1      29.208 -22.315 -14.839  0.00  0.00    -0.000 C 
ATOM     29  C   UNL     1      30.137 -21.690 -13.991  0.00  0.00    -0.000 C 
ATOM     30  C   UNL     1      28.663 -24.107 -16.393  0.00  0.00    -0.000 C 
ATOM     31  C   UNL     1      27.908 -21.810 -15.002  0.00  0.00    -0.000 C 
ATOM     32  C   UNL     1      27.375 -23.591 -16.543  0.00  0.00    -0.000 C 
ATOM     33  C   UNL     1      26.999 -22.444 -15.850  0.00  0.00    -0.000 C 
ENDBRANCH  23  24
ENDBRANCH   1  23
TORSDOF 7
ENDMDL
MODEL 6
REMARK VINA RESULT:     -11.4      3.025      5.690
REMARK  Name = 9823454
REMARK  7 active torsions:
REMARK  status: ('A' for Active; 'I' for Inactive)
REMARK    1  A    between atoms: C_1  and  C_4
REMARK    2  A    between atoms: C_1  and  N_8
REMARK    3  A    between atoms: C_1  and  C_23
REMARK    4  A    between atoms: N_3  and  O_6
REMARK    5  A    between atoms: N_8  and  S_10
REMARK    6  A    between atoms: S_10  and  C_13
REMARK    7  A    between atoms: C_23  and  C_24
REMARK                            x       y       z     vdW  Elec       q    Type
REMARK                         _______ _______ _______ _____ _____    ______ ____
ROOT
ATOM      1  C   UNL     1      31.887 -22.524 -15.799  0.00  0.00    +0.158 C 
ENDROOT
BRANCH   1   4
ATOM      2  O   UNL     1      29.893 -22.480 -14.434  0.00  0.00    -0.272 OA
ATOM      3  N   UNL     1      29.689 -22.170 -16.713  0.00  0.00    -0.196 N 
ATOM      4  C   UNL     1      30.393 -22.390 -15.554  0.00  0.00    +0.260 C 
ATOM      5  H   UNL     1      30.132 -22.105 -17.590  0.00  0.00    +0.182 HD
BRANCH   3   6
ATOM      6  O   UNL     1      28.300 -22.045 -16.570  0.00  0.00    -0.295 OA
ATOM      7  H   UNL     1      27.939 -22.864 -16.196  0.00  0.00    +0.241 HD
ENDBRANCH   3   6
ENDBRANCH   1   4
BRANCH   1   8
ATOM      8  N   UNL     1      32.088 -22.187 -17.229  0.00  0.00    -0.172 NA
ATOM      9  H   UNL     1      31.337 -22.642 -17.748  0.00  0.00    +0.149 HD
BRANCH   8  10
ATOM     10  S   UNL     1      33.541 -22.606 -18.000  0.00  0.00    +0.061 S 
ATOM     11  O   UNL     1      33.359 -23.844 -18.735  0.00  0.00    -0.153 OA
ATOM     12  O   UNL     1      34.629 -22.476 -17.049  0.00  0.00    -0.153 OA
BRANCH  10  13
ATOM     13  C   UNL     1      33.723 -21.297 -19.173  0.00  0.00    +0.122 C 
ATOM     14  C   UNL     1      34.986 -20.796 -19.436  0.00  0.00    +0.020 C 
ATOM     15  C   UNL     1      35.148 -19.755 -20.365  0.00  0.00    +0.001 C 
ATOM     16  C   UNL     1      32.602 -20.799 -19.806  0.00  0.00    +0.020 C 
ATOM     17  C   UNL     1      34.009 -19.232 -21.022  0.00  0.00    +0.000 C 
ATOM     18  C   UNL     1      32.743 -19.765 -20.732  0.00  0.00    +0.001 C 
ATOM     19  C   UNL     1      36.414 -19.222 -20.655  0.00  0.00    +0.000 C 
ATOM     20  C   UNL     1      34.170 -18.190 -21.951  0.00  0.00    +0.000 C 
ATOM     21  C   UNL     1      36.556 -18.187 -21.581  0.00  0.00    +0.000 C 
ATOM     22  C   UNL     1      35.437 -17.673 -22.227  0.00  0.00    +0.000 C 
ENDBRANCH  10  13
ENDBRANCH   8  10
ENDBRANCH   1   8
BRANCH   1  23
ATOM     23  C   UNL     1      32.368 -23.959 -15.530  0.00  0.00    +0.053 C 
BRANCH  23  24
ATOM     24  C   UNL     1      33.440 -24.039 -14.496  0.00  0.00    -0.020 C 
ATOM     25  C   UNL     1      34.679 -24.596 -14.816  0.00  0.00    -0.004 C 
ATOM     26  C   UNL     1      35.699 -24.678 -13.854  0.00  0.00    -0.000 C 
ATOM     27  C   UNL     1      33.205 -23.558 -13.212  0.00  0.00    -0.004 C 
ATOM     28  C   UNL     1      35.459 -24.188 -12.548  0.00  0.00    -0.000 C 
ATOM     29  C   UNL     1      34.207 -23.631 -12.244  0.00  0.00    -0.000 C 
ATOM     30  C   UNL     1      36.950 -25.236 -14.160  0.00  0.00    -0.000 C 
ATOM     31  C   UNL     1      36.478 -24.271 -11.586  0.00  0.00    -0.000 C 
ATOM     32  C   UNL     1      37.953 -25.310 -13.191  0.00  0.00    -0.000 C 
ATOM     33  C   UNL     1      37.716 -24.829 -11.907  0.00  0.00    -0.000 C 
ENDBRANCH  23  24
ENDBRANCH   1  23
TORSDOF 7
ENDMDL
MODEL 7
REMARK VINA RESULT:     -11.4      3.113      6.100
REMARK  Name = 9823454
REMARK  7 active torsions:
REMARK  status: ('A' for Active; 'I' for Inactive)
REMARK    1  A    between atoms: C_1  and  C_4
REMARK    2  A    between atoms: C_1  and  N_8
REMARK    3  A    between atoms: C_1  and  C_23
REMARK    4  A    between atoms: N_3  and  O_6
REMARK    5  A    between atoms: N_8  and  S_10
REMARK    6  A    between atoms: S_10  and  C_13
REMARK    7  A    between atoms: C_23  and  C_24
REMARK                            x       y       z     vdW  Elec       q    Type
REMARK                         _______ _______ _______ _____ _____    ______ ____
ROOT
ATOM      1  C   UNL     1      33.121 -22.415 -15.251  0.00  0.00    +0.158 C 
ENDROOT
BRANCH   1   4
ATOM      2  O   UNL     1      32.788 -24.522 -14.115  0.00  0.00    -0.272 OA
ATOM      3  N   UNL     1      30.982 -23.511 -15.138  0.00  0.00    -0.196 N 
ATOM      4  C   UNL     1      32.300 -23.598 -14.764  0.00  0.00    +0.260 C 
ATOM      5  H   UNL     1      30.635 -22.750 -15.659  0.00  0.00    +0.182 HD
BRANCH   3   6
ATOM      6  O   UNL     1      30.160 -24.572 -14.734  0.00  0.00    -0.295 OA
ATOM      7  H   UNL     1      30.380 -25.365 -15.248  0.00  0.00    +0.241 HD
ENDBRANCH   3   6
ENDBRANCH   1   4
BRANCH   1   8
ATOM      8  N   UNL     1      33.799 -22.882 -16.484  0.00  0.00    -0.172 NA
ATOM      9  H   UNL     1      34.671 -22.358 -16.558  0.00  0.00    +0.149 HD
BRANCH   8  10
ATOM     10  S   UNL     1      33.015 -22.745 -17.984  0.00  0.00    +0.061 S 
ATOM     11  O   UNL     1      31.710 -22.141 -17.793  0.00  0.00    -0.153 OA
ATOM     12  O   UNL     1      33.139 -24.005 -18.693  0.00  0.00    -0.153 OA
BRANCH  10  13
ATOM     13  C   UNL     1      34.039 -21.577 -18.826  0.00  0.00    +0.122 C 
ATOM     14  C   UNL     1      33.493 -20.807 -19.839  0.00  0.00    +0.020 C 
ATOM     15  C   UNL     1      34.294 -19.874 -20.519  0.00  0.00    +0.001 C 
ATOM     16  C   UNL     1      35.364 -21.453 -18.458  0.00  0.00    +0.020 C 
ATOM     17  C   UNL     1      35.654 -19.735 -20.154  0.00  0.00    +0.000 C 
ATOM     18  C   UNL     1      36.174 -20.531 -19.122  0.00  0.00    +0.001 C 
ATOM     19  C   UNL     1      33.774 -19.078 -21.552  0.00  0.00    +0.000 C 
ATOM     20  C   UNL     1      36.455 -18.803 -20.835  0.00  0.00    +0.000 C 
ATOM     21  C   UNL     1      34.584 -18.156 -22.217  0.00  0.00    +0.000 C 
ATOM     22  C   UNL     1      35.921 -18.019 -21.858  0.00  0.00    +0.000 C 
ENDBRANCH  10  13
ENDBRANCH   8  10
ENDBRANCH   1   8
BRANCH   1  23
ATOM     23  C   UNL     1      34.169 -21.997 -14.207  0.00  0.00    +0.053 C 
BRANCH  23  24
ATOM     24  C   UNL     1      35.523 -22.567 -14.465  0.00  0.00    -0.020 C 
ATOM     25  C   UNL     1      35.982 -23.646 -13.709  0.00  0.00    -0.004 C 
ATOM     26  C   UNL     1      37.254 -24.195 -13.941  0.00  0.00    -0.000 C 
ATOM     27  C   UNL     1      36.328 -22.023 -15.462  0.00  0.00    -0.004 C 
ATOM     28  C   UNL     1      38.072 -23.640 -14.954  0.00  0.00    -0.000 C 
ATOM     29  C   UNL     1      37.594 -22.555 -15.706  0.00  0.00    -0.000 C 
ATOM     30  C   UNL     1      37.732 -25.280 -13.189  0.00  0.00    -0.000 C 
ATOM     31  C   UNL     1      39.344 -24.189 -15.186  0.00  0.00    -0.000 C 
ATOM     32  C   UNL     1      38.999 -25.813 -13.433  0.00  0.00    -0.000 C 
ATOM     33  C   UNL     1      39.803 -25.267 -14.429  0.00  0.00    -0.000 C 
ENDBRANCH  23  24
ENDBRANCH   1  23
TORSDOF 7
ENDMDL
MODEL 8
REMARK VINA RESULT:     -11.3      3.153      6.078
REMARK  Name = 9823454
REMARK  7 active torsions:
REMARK  status: ('A' for Active; 'I' for Inactive)
REMARK    1  A    between atoms: C_1  and  C_4
REMARK    2  A    between atoms: C_1  and  N_8
REMARK    3  A    between atoms: C_1  and  C_23
REMARK    4  A    between atoms: N_3  and  O_6
REMARK    5  A    between atoms: N_8  and  S_10
REMARK    6  A    between atoms: S_10  and  C_13
REMARK    7  A    between atoms: C_23  and  C_24
REMARK                            x       y       z     vdW  Elec       q    Type
REMARK                         _______ _______ _______ _____ _____    ______ ____
ROOT
ATOM      1  C   UNL     1      33.667 -22.594 -15.372  0.00  0.00    +0.158 C 
ENDROOT
BRANCH   1   4
ATOM      2  O   UNL     1      33.819 -24.939 -14.807  0.00  0.00    -0.272 OA
ATOM      3  N   UNL     1      32.384 -23.593 -13.598  0.00  0.00    -0.196 N 
ATOM      4  C   UNL     1      33.317 -23.841 -14.576  0.00  0.00    +0.260 C 
ATOM      5  H   UNL     1      32.008 -22.695 -13.449  0.00  0.00    +0.182 HD
BRANCH   3   6
ATOM      6  O   UNL     1      32.001 -24.698 -12.825  0.00  0.00    -0.295 OA
ATOM      7  H   UNL     1      31.033 -24.741 -12.782  0.00  0.00    +0.241 HD
ENDBRANCH   3   6
ENDBRANCH   1   4
BRANCH   1   8
ATOM      8  N   UNL     1      34.103 -23.081 -16.703  0.00  0.00    -0.172 NA
ATOM      9  H   UNL     1      35.023 -22.678 -16.878  0.00  0.00    +0.149 HD
BRANCH   8  10
ATOM     10  S   UNL     1      33.156 -22.758 -18.074  0.00  0.00    +0.061 S 
ATOM     11  O   UNL     1      31.914 -22.127 -17.665  0.00  0.00    -0.153 OA
ATOM     12  O   UNL     1      33.132 -23.940 -18.915  0.00  0.00    -0.153 OA
BRANCH  10  13
ATOM     13  C   UNL     1      34.131 -21.547 -18.914  0.00  0.00    +0.122 C 
ATOM     14  C   UNL     1      33.556 -20.803 -19.930  0.00  0.00    +0.020 C 
ATOM     15  C   UNL     1      34.318 -19.837 -20.608  0.00  0.00    +0.001 C 
ATOM     16  C   UNL     1      35.448 -21.365 -18.541  0.00  0.00    +0.020 C 
ATOM     17  C   UNL     1      35.670 -19.638 -20.239  0.00  0.00    +0.000 C 
ATOM     18  C   UNL     1      36.219 -20.410 -19.203  0.00  0.00    +0.001 C 
ATOM     19  C   UNL     1      33.768 -19.065 -21.645  0.00  0.00    +0.000 C 
ATOM     20  C   UNL     1      36.432 -18.673 -20.918  0.00  0.00    +0.000 C 
ATOM     21  C   UNL     1      34.540 -18.110 -22.308  0.00  0.00    +0.000 C 
ATOM     22  C   UNL     1      35.868 -17.914 -21.944  0.00  0.00    +0.000 C 
ENDBRANCH  10  13
ENDBRANCH   8  10
ENDBRANCH   1   8
BRANCH   1  23
ATOM     23  C   UNL     1      34.809 -21.810 -14.705  0.00  0.00    +0.053 C 
BRANCH  23  24
ATOM     24  C   UNL     1      35.910 -22.681 -14.201  0.00  0.00    -0.020 C 
ATOM     25  C   UNL     1      36.914 -23.111 -15.070  0.00  0.00    -0.004 C 
ATOM     26  C   UNL     1      37.957 -23.931 -14.611  0.00  0.00    -0.000 C 
ATOM     27  C   UNL     1      35.936 -23.065 -12.864  0.00  0.00    -0.004 C 
ATOM     28  C   UNL     1      37.983 -24.321 -13.251  0.00  0.00    -0.000 C 
ATOM     29  C   UNL     1      36.965 -23.879 -12.391  0.00  0.00    -0.000 C 
ATOM     30  C   UNL     1      38.974 -24.372 -15.473  0.00  0.00    -0.000 C 
ATOM     31  C   UNL     1      39.026 -25.141 -12.792  0.00  0.00    -0.000 C 
ATOM     32  C   UNL     1      40.004 -25.187 -15.000  0.00  0.00    -0.000 C 
ATOM     33  C   UNL     1      40.029 -25.571 -13.662  0.00  0.00    -0.000 C 
ENDBRANCH  23  24
ENDBRANCH   1  23
TORSDOF 7
ENDMDL
MODEL 9
REMARK VINA RESULT:     -11.3      8.695     11.967
REMARK  Name = 9823454
REMARK  7 active torsions:
REMARK  status: ('A' for Active; 'I' for Inactive)
REMARK    1  A    between atoms: C_1  and  C_4
REMARK    2  A    between atoms: C_1  and  N_8
REMARK    3  A    between atoms: C_1  and  C_23
REMARK    4  A    between atoms: N_3  and  O_6
REMARK    5  A    between atoms: N_8  and  S_10
REMARK    6  A    between atoms: S_10  and  C_13
REMARK    7  A    between atoms: C_23  and  C_24
REMARK                            x       y       z     vdW  Elec       q    Type
REMARK                         _______ _______ _______ _____ _____    ______ ____
ROOT
ATOM      1  C   UNL     1      33.835 -15.502 -22.974  0.00  0.00    +0.158 C 
ENDROOT
BRANCH   1   4
ATOM      2  O   UNL     1      33.053 -16.304 -25.115  0.00  0.00    -0.272 OA
ATOM      3  N   UNL     1      32.872 -14.053 -24.636  0.00  0.00    -0.196 N 
ATOM      4  C   UNL     1      33.213 -15.353 -24.353  0.00  0.00    +0.260 C 
ATOM      5  H   UNL     1      33.019 -13.321 -23.993  0.00  0.00    +0.182 HD
BRANCH   3   6
ATOM      6  O   UNL     1      32.301 -13.832 -25.897  0.00  0.00    -0.295 OA
ATOM      7  H   UNL     1      31.432 -13.414 -25.789  0.00  0.00    +0.241 HD
ENDBRANCH   3   6
ENDBRANCH   1   4
BRANCH   1   8
ATOM      8  N   UNL     1      34.097 -14.121 -22.503  0.00  0.00    -0.172 NA
ATOM      9  H   UNL     1      35.109 -14.004 -22.479  0.00  0.00    +0.149 HD
BRANCH   8  10
ATOM     10  S   UNL     1      33.508 -13.616 -20.992  0.00  0.00    +0.061 S 
ATOM     11  O   UNL     1      34.618 -13.207 -20.153  0.00  0.00    -0.153 OA
ATOM     12  O   UNL     1      32.553 -14.597 -20.513  0.00  0.00    -0.153 OA
BRANCH  10  13
ATOM     13  C   UNL     1      32.589 -12.170 -21.423  0.00  0.00    +0.122 C 
ATOM     14  C   UNL     1      33.167 -11.224 -22.253  0.00  0.00    +0.020 C 
ATOM     15  C   UNL     1      32.450 -10.068 -22.604  0.00  0.00    +0.001 C 
ATOM     16  C   UNL     1      31.311 -12.010 -20.926  0.00  0.00    +0.020 C 
ATOM     17  C   UNL     1      31.139  -9.889 -22.103  0.00  0.00    +0.000 C 
ATOM     18  C   UNL     1      30.584 -10.868 -21.265  0.00  0.00    +0.001 C 
ATOM     19  C   UNL     1      33.006  -9.088 -23.442  0.00  0.00    +0.000 C 
ATOM     20  C   UNL     1      30.422  -8.733 -22.454  0.00  0.00    +0.000 C 
ATOM     21  C   UNL     1      32.279  -7.946 -23.781  0.00  0.00    +0.000 C 
ATOM     22  C   UNL     1      30.991  -7.769 -23.288  0.00  0.00    +0.000 C 
ENDBRANCH  10  13
ENDBRANCH   8  10
ENDBRANCH   1   8
BRANCH   1  23
ATOM     23  C   UNL     1      35.154 -16.289 -23.040  0.00  0.00    +0.053 C 
BRANCH  23  24
ATOM     24  C   UNL     1      35.192 -17.461 -22.118  0.00  0.00    -0.020 C 
ATOM     25  C   UNL     1      34.006 -18.099 -21.752  0.00  0.00    -0.004 C 
ATOM     26  C   UNL     1      34.025 -19.204 -20.886  0.00  0.00    -0.000 C 
ATOM     27  C   UNL     1      36.409 -17.918 -21.624  0.00  0.00    -0.004 C 
ATOM     28  C   UNL     1      35.264 -19.668 -20.383  0.00  0.00    -0.000 C 
ATOM     29  C   UNL     1      36.447 -19.014 -20.762  0.00  0.00    -0.000 C 
ATOM     30  C   UNL     1      32.841 -19.857 -20.507  0.00  0.00    -0.000 C 
ATOM     31  C   UNL     1      35.283 -20.773 -19.516  0.00  0.00    -0.000 C 
ATOM     32  C   UNL     1      32.878 -20.954 -19.644  0.00  0.00    -0.000 C 
ATOM     33  C   UNL     1      34.096 -21.410 -19.150  0.00  0.00    -0.000 C 
ENDBRANCH  23  24
ENDBRANCH   1  23
TORSDOF 7
ENDMDL
