MODEL 1
REMARK VINA RESULT:     -11.5      0.000      0.000
REMARK  Name = 3395
REMARK  7 active torsions:
REMARK  status: ('A' for Active; 'I' for Inactive)
REMARK    1  A    between atoms: C_2  and  C_14
REMARK    2  A    between atoms: C_5  and  C_8
REMARK    3  A    between atoms: C_14  and  C_17
REMARK    4  A    between atoms: C_17  and  O_18
REMARK    5  A    between atoms: O_18  and  C_19
REMARK    6  A    between atoms: C_19  and  O_21
REMARK    7  A    between atoms: O_21  and  C_23
REMARK                            x       y       z     vdW  Elec       q    Type
REMARK                         _______ _______ _______ _____ _____    ______ ____
ROOT
ATOM      1  F   UNL     1      36.982 -17.889 -21.515  0.00  0.00    -0.204 F 
ATOM      2  C   UNL     1      35.069 -20.471 -19.863  0.00  0.00    -0.010 C 
ATOM      3  C   UNL     1      36.152 -19.718 -20.273  0.00  0.00    +0.026 C 
ATOM      4  C   UNL     1      33.779 -20.174 -20.256  0.00  0.00    -0.004 C 
ATOM      5  C   UNL     1      34.641 -18.305 -21.522  0.00  0.00    +0.027 C 
ATOM      6  C   UNL     1      35.935 -18.624 -21.112  0.00  0.00    +0.140 C 
ATOM      7  C   UNL     1      33.563 -19.080 -21.094  0.00  0.00    +0.002 C 
ENDROOT
BRANCH   5   8
ATOM      8  C   UNL     1      34.411 -17.171 -22.391  0.00  0.00    +0.002 C 
ATOM      9  C   UNL     1      34.112 -17.375 -23.738  0.00  0.00    +0.000 C 
ATOM     10  C   UNL     1      34.488 -15.875 -21.882  0.00  0.00    +0.000 C 
ATOM     11  C   UNL     1      33.890 -16.282 -24.576  0.00  0.00    +0.000 C 
ATOM     12  C   UNL     1      34.267 -14.782 -22.720  0.00  0.00    +0.000 C 
ATOM     13  C   UNL     1      33.967 -14.986 -24.067  0.00  0.00    +0.000 C 
ENDBRANCH   5   8
BRANCH   2  14
ATOM     14  C   UNL     1      35.305 -21.663 -18.950  0.00  0.00    +0.121 C 
ATOM     15  C   UNL     1      36.060 -21.276 -17.675  0.00  0.00    +0.016 C 
BRANCH  14  17
ATOM     16  O   UNL     1      33.442 -23.196 -19.325  0.00  0.00    -0.250 OA
ATOM     17  C   UNL     1      34.006 -22.379 -18.609  0.00  0.00    +0.323 C 
BRANCH  17  18
ATOM     18  O   UNL     1      33.583 -21.984 -17.370  0.00  0.00    -0.413 OA
BRANCH  18  19
ATOM     19  C   UNL     1      33.031 -22.995 -16.503  0.00  0.00    +0.345 C 
ATOM     20  C   UNL     1      31.536 -22.752 -16.348  0.00  0.00    +0.100 C 
BRANCH  19  21
ATOM     21  O   UNL     1      33.613 -22.916 -15.186  0.00  0.00    -0.414 OA
BRANCH  21  23
ATOM     22  O   UNL     1      35.081 -24.684 -15.425  0.00  0.00    -0.250 OA
ATOM     23  C   UNL     1      34.797 -23.570 -15.009  0.00  0.00    +0.320 C 
ATOM     24  C   UNL     1      35.729 -22.710 -14.211  0.00  0.00    +0.121 C 
ENDBRANCH  21  23
ENDBRANCH  19  21
ENDBRANCH  18  19
ENDBRANCH  17  18
ENDBRANCH  14  17
ENDBRANCH   2  14
TORSDOF 7
ENDMDL
MODEL 2
REMARK VINA RESULT:     -11.4      2.669      4.783
REMARK  Name = 3395
REMARK  7 active torsions:
REMARK  status: ('A' for Active; 'I' for Inactive)
REMARK    1  A    between atoms: C_2  and  C_14
REMARK    2  A    between atoms: C_5  and  C_8
REMARK    3  A    between atoms: C_14  and  C_17
REMARK    4  A    between atoms: C_17  and  O_18
REMARK    5  A    between atoms: O_18  and  C_19
REMARK    6  A    between atoms: C_19  and  O_21
REMARK    7  A    between atoms: O_21  and  C_23
REMARK                            x       y       z     vdW  Elec       q    Type
REMARK                         _______ _______ _______ _____ _____    ______ ____
ROOT
ATOM      1  F   UNL     1      33.725 -14.344 -19.918  0.00  0.00    -0.204 F 
ATOM      2  C   UNL     1      34.765 -16.900 -22.251  0.00  0.00    -0.010 C 
ATOM      3  C   UNL     1      34.538 -16.248 -21.055  0.00  0.00    +0.026 C 
ATOM      4  C   UNL     1      34.428 -16.339 -23.467  0.00  0.00    -0.004 C 
ATOM      5  C   UNL     1      33.598 -14.397 -22.293  0.00  0.00    +0.027 C 
ATOM      6  C   UNL     1      33.948 -14.983 -21.076  0.00  0.00    +0.140 C 
ATOM      7  C   UNL     1      33.838 -15.074 -23.488  0.00  0.00    +0.002 C 
ENDROOT
BRANCH   5   8
ATOM      8  C   UNL     1      32.987 -13.086 -22.320  0.00  0.00    +0.002 C 
ATOM      9  C   UNL     1      32.002 -12.756 -21.387  0.00  0.00    +0.000 C 
ATOM     10  C   UNL     1      33.380 -12.152 -23.278  0.00  0.00    +0.000 C 
ATOM     11  C   UNL     1      31.413 -11.493 -21.413  0.00  0.00    +0.000 C 
ATOM     12  C   UNL     1      32.789 -10.888 -23.303  0.00  0.00    +0.000 C 
ATOM     13  C   UNL     1      31.806 -10.559 -22.371  0.00  0.00    +0.000 C 
ENDBRANCH   5   8
BRANCH   2  14
ATOM     14  C   UNL     1      35.408 -18.276 -22.228  0.00  0.00    +0.121 C 
ATOM     15  C   UNL     1      36.775 -18.267 -21.538  0.00  0.00    +0.016 C 
BRANCH  14  17
ATOM     16  O   UNL     1      33.276 -19.353 -21.719  0.00  0.00    -0.250 OA
ATOM     17  C   UNL     1      34.493 -19.316 -21.595  0.00  0.00    +0.323 C 
BRANCH  17  18
ATOM     18  O   UNL     1      35.247 -20.212 -20.888  0.00  0.00    -0.413 OA
BRANCH  18  19
ATOM     19  C   UNL     1      34.817 -20.533 -19.551  0.00  0.00    +0.345 C 
ATOM     20  C   UNL     1      36.023 -20.976 -18.735  0.00  0.00    +0.100 C 
BRANCH  19  21
ATOM     21  O   UNL     1      33.884 -21.634 -19.562  0.00  0.00    -0.414 OA
BRANCH  21  23
ATOM     22  O   UNL     1      31.866 -20.636 -19.038  0.00  0.00    -0.250 OA
ATOM     23  C   UNL     1      32.743 -21.465 -18.834  0.00  0.00    +0.320 C 
ATOM     24  C   UNL     1      32.710 -22.463 -17.717  0.00  0.00    +0.121 C 
ENDBRANCH  21  23
ENDBRANCH  19  21
ENDBRANCH  18  19
ENDBRANCH  17  18
ENDBRANCH  14  17
ENDBRANCH   2  14
TORSDOF 7
ENDMDL
MODEL 3
REMARK VINA RESULT:     -11.2      3.924      8.464
REMARK  Name = 3395
REMARK  7 active torsions:
REMARK  status: ('A' for Active; 'I' for Inactive)
REMARK    1  A    between atoms: C_2  and  C_14
REMARK    2  A    between atoms: C_5  and  C_8
REMARK    3  A    between atoms: C_14  and  C_17
REMARK    4  A    between atoms: C_17  and  O_18
REMARK    5  A    between atoms: O_18  and  C_19
REMARK    6  A    between atoms: C_19  and  O_21
REMARK    7  A    between atoms: O_21  and  C_23
REMARK                            x       y       z     vdW  Elec       q    Type
REMARK                         _______ _______ _______ _____ _____    ______ ____
ROOT
ATOM      1  F   UNL     1      36.393 -21.421 -18.398  0.00  0.00    -0.204 F 
ATOM      2  C   UNL     1      34.623 -19.598 -20.968  0.00  0.00    -0.010 C 
ATOM      3  C   UNL     1      35.669 -20.121 -20.232  0.00  0.00    +0.026 C 
ATOM      4  C   UNL     1      33.303 -19.832 -20.635  0.00  0.00    -0.004 C 
ATOM      5  C   UNL     1      34.057 -21.161 -18.762  0.00  0.00    +0.027 C 
ATOM      6  C   UNL     1      35.382 -20.910 -19.118  0.00  0.00    +0.140 C 
ATOM      7  C   UNL     1      33.018 -20.622 -19.520  0.00  0.00    +0.002 C 
ENDROOT
BRANCH   5   8
ATOM      8  C   UNL     1      33.755 -21.979 -17.608  0.00  0.00    +0.002 C 
ATOM      9  C   UNL     1      34.757 -22.282 -16.686  0.00  0.00    +0.000 C 
ATOM     10  C   UNL     1      32.462 -22.465 -17.416  0.00  0.00    +0.000 C 
ATOM     11  C   UNL     1      34.467 -23.071 -15.574  0.00  0.00    +0.000 C 
ATOM     12  C   UNL     1      32.171 -23.254 -16.303  0.00  0.00    +0.000 C 
ATOM     13  C   UNL     1      33.173 -23.557 -15.382  0.00  0.00    +0.000 C 
ENDBRANCH   5   8
BRANCH   2  14
ATOM     14  C   UNL     1      34.935 -18.738 -22.181  0.00  0.00    +0.121 C 
ATOM     15  C   UNL     1      34.011 -19.046 -23.363  0.00  0.00    +0.016 C 
BRANCH  14  17
ATOM     16  O   UNL     1      34.861 -16.787 -20.714  0.00  0.00    -0.250 OA
ATOM     17  C   UNL     1      34.901 -17.253 -21.845  0.00  0.00    +0.323 C 
BRANCH  17  18
ATOM     18  O   UNL     1      34.947 -16.526 -23.002  0.00  0.00    -0.413 OA
BRANCH  18  19
ATOM     19  C   UNL     1      33.949 -15.503 -23.184  0.00  0.00    +0.345 C 
ATOM     20  C   UNL     1      33.467 -15.531 -24.627  0.00  0.00    +0.100 C 
BRANCH  19  21
ATOM     21  O   UNL     1      34.506 -14.193 -22.948  0.00  0.00    -0.414 OA
BRANCH  21  23
ATOM     22  O   UNL     1      33.196 -12.290 -22.983  0.00  0.00    -0.250 OA
ATOM     23  C   UNL     1      33.662 -13.266 -22.412  0.00  0.00    +0.320 C 
ATOM     24  C   UNL     1      33.376 -13.617 -20.983  0.00  0.00    +0.121 C 
ENDBRANCH  21  23
ENDBRANCH  19  21
ENDBRANCH  18  19
ENDBRANCH  17  18
ENDBRANCH  14  17
ENDBRANCH   2  14
TORSDOF 7
ENDMDL
MODEL 4
REMARK VINA RESULT:     -11.1      5.123      8.976
REMARK  Name = 3395
REMARK  7 active torsions:
REMARK  status: ('A' for Active; 'I' for Inactive)
REMARK    1  A    between atoms: C_2  and  C_14
REMARK    2  A    between atoms: C_5  and  C_8
REMARK    3  A    between atoms: C_14  and  C_17
REMARK    4  A    between atoms: C_17  and  O_18
REMARK    5  A    between atoms: O_18  and  C_19
REMARK    6  A    between atoms: C_19  and  O_21
REMARK    7  A    between atoms: O_21  and  C_23
REMARK                            x       y       z     vdW  Elec       q    Type
REMARK                         _______ _______ _______ _____ _____    ______ ____
ROOT
ATOM      1  F   UNL     1      34.041 -19.419 -23.414  0.00  0.00    -0.204 F 
ATOM      2  C   UNL     1      34.253 -15.833 -23.016  0.00  0.00    -0.010 C 
ATOM      3  C   UNL     1      34.093 -17.067 -23.618  0.00  0.00    +0.026 C 
ATOM      4  C   UNL     1      34.510 -15.705 -21.665  0.00  0.00    -0.004 C 
ATOM      5  C   UNL     1      34.453 -18.113 -21.469  0.00  0.00    +0.027 C 
ATOM      6  C   UNL     1      34.194 -18.218 -22.836  0.00  0.00    +0.140 C 
ATOM      7  C   UNL     1      34.611 -16.856 -20.884  0.00  0.00    +0.002 C 
ENDROOT
BRANCH   5   8
ATOM      8  C   UNL     1      34.559 -19.303 -20.655  0.00  0.00    +0.002 C 
ATOM      9  C   UNL     1      35.813 -19.763 -20.250  0.00  0.00    +0.000 C 
ATOM     10  C   UNL     1      33.408 -19.992 -20.273  0.00  0.00    +0.000 C 
ATOM     11  C   UNL     1      35.916 -20.910 -19.465  0.00  0.00    +0.000 C 
ATOM     12  C   UNL     1      33.511 -21.141 -19.487  0.00  0.00    +0.000 C 
ATOM     13  C   UNL     1      34.764 -21.599 -19.084  0.00  0.00    +0.000 C 
ENDBRANCH   5   8
BRANCH   2  14
ATOM     14  C   UNL     1      34.142 -14.580 -23.868  0.00  0.00    +0.121 C 
ATOM     15  C   UNL     1      33.224 -14.779 -25.077  0.00  0.00    +0.016 C 
BRANCH  14  17
ATOM     16  O   UNL     1      34.240 -12.280 -23.054  0.00  0.00    -0.250 OA
ATOM     17  C   UNL     1      33.698 -13.377 -23.047  0.00  0.00    +0.323 C 
BRANCH  17  18
ATOM     18  O   UNL     1      32.587 -13.709 -22.322  0.00  0.00    -0.413 OA
BRANCH  18  19
ATOM     19  C   UNL     1      32.256 -12.875 -21.194  0.00  0.00    +0.345 C 
ATOM     20  C   UNL     1      31.945 -13.762 -19.997  0.00  0.00    +0.100 C 
BRANCH  19  21
ATOM     21  O   UNL     1      31.073 -12.094 -21.462  0.00  0.00    -0.414 OA
BRANCH  21  23
ATOM     22  O   UNL     1      31.740 -10.204 -22.613  0.00  0.00    -0.250 OA
ATOM     23  C   UNL     1      31.261 -10.753 -21.631  0.00  0.00    +0.320 C 
ATOM     24  C   UNL     1      30.785 -10.024 -20.411  0.00  0.00    +0.121 C 
ENDBRANCH  21  23
ENDBRANCH  19  21
ENDBRANCH  18  19
ENDBRANCH  17  18
ENDBRANCH  14  17
ENDBRANCH   2  14
TORSDOF 7
ENDMDL
MODEL 5
REMARK VINA RESULT:     -10.9      2.781      4.676
REMARK  Name = 3395
REMARK  7 active torsions:
REMARK  status: ('A' for Active; 'I' for Inactive)
REMARK    1  A    between atoms: C_2  and  C_14
REMARK    2  A    between atoms: C_5  and  C_8
REMARK    3  A    between atoms: C_14  and  C_17
REMARK    4  A    between atoms: C_17  and  O_18
REMARK    5  A    between atoms: O_18  and  C_19
REMARK    6  A    between atoms: C_19  and  O_21
REMARK    7  A    between atoms: O_21  and  C_23
REMARK                            x       y       z     vdW  Elec       q    Type
REMARK                         _______ _______ _______ _____ _____    ______ ____
ROOT
ATOM      1  F   UNL     1      31.991 -20.388 -20.125  0.00  0.00    -0.204 F 
ATOM      2  C   UNL     1      33.435 -22.366 -17.468  0.00  0.00    -0.010 C 
ATOM      3  C   UNL     1      32.488 -21.805 -18.303  0.00  0.00    +0.026 C 
ATOM      4  C   UNL     1      34.783 -22.094 -17.602  0.00  0.00    -0.004 C 
ATOM      5  C   UNL     1      34.261 -20.648 -19.466  0.00  0.00    +0.027 C 
ATOM      6  C   UNL     1      32.906 -20.937 -19.312  0.00  0.00    +0.140 C 
ATOM      7  C   UNL     1      35.200 -21.226 -18.612  0.00  0.00    +0.002 C 
ENDROOT
BRANCH   5   8
ATOM      8  C   UNL     1      34.699 -19.748 -20.511  0.00  0.00    +0.002 C 
ATOM      9  C   UNL     1      33.853 -19.459 -21.583  0.00  0.00    +0.000 C 
ATOM     10  C   UNL     1      35.966 -19.169 -20.448  0.00  0.00    +0.000 C 
ATOM     11  C   UNL     1      34.275 -18.593 -22.590  0.00  0.00    +0.000 C 
ATOM     12  C   UNL     1      36.388 -18.302 -21.456  0.00  0.00    +0.000 C 
ATOM     13  C   UNL     1      35.543 -18.014 -22.527  0.00  0.00    +0.000 C 
ENDBRANCH   5   8
BRANCH   2  14
ATOM     14  C   UNL     1      32.981 -23.312 -16.369  0.00  0.00    +0.121 C 
ATOM     15  C   UNL     1      34.091 -23.597 -15.354  0.00  0.00    +0.016 C 
BRANCH  14  17
ATOM     16  O   UNL     1      31.703 -21.911 -14.830  0.00  0.00    -0.250 OA
ATOM     17  C   UNL     1      31.729 -22.803 -15.668  0.00  0.00    +0.323 C 
BRANCH  17  18
ATOM     18  O   UNL     1      30.638 -23.481 -16.140  0.00  0.00    -0.413 OA
BRANCH  18  19
ATOM     19  C   UNL     1      29.580 -23.768 -15.205  0.00  0.00    +0.345 C 
ATOM     20  C   UNL     1      30.005 -24.927 -14.315  0.00  0.00    +0.100 C 
BRANCH  19  21
ATOM     21  O   UNL     1      28.382 -24.181 -15.896  0.00  0.00    -0.414 OA
BRANCH  21  23
ATOM     22  O   UNL     1      27.251 -23.172 -17.640  0.00  0.00    -0.250 OA
ATOM     23  C   UNL     1      27.653 -23.190 -16.485  0.00  0.00    +0.320 C 
ATOM     24  C   UNL     1      27.405 -22.095 -15.493  0.00  0.00    +0.121 C 
ENDBRANCH  21  23
ENDBRANCH  19  21
ENDBRANCH  18  19
ENDBRANCH  17  18
ENDBRANCH  14  17
ENDBRANCH   2  14
TORSDOF 7
ENDMDL
MODEL 6
REMARK VINA RESULT:     -10.8      2.208      3.455
REMARK  Name = 3395
REMARK  7 active torsions:
REMARK  status: ('A' for Active; 'I' for Inactive)
REMARK    1  A    between atoms: C_2  and  C_14
REMARK    2  A    between atoms: C_5  and  C_8
REMARK    3  A    between atoms: C_14  and  C_17
REMARK    4  A    between atoms: C_17  and  O_18
REMARK    5  A    between atoms: O_18  and  C_19
REMARK    6  A    between atoms: C_19  and  O_21
REMARK    7  A    between atoms: O_21  and  C_23
REMARK                            x       y       z     vdW  Elec       q    Type
REMARK                         _______ _______ _______ _____ _____    ______ ____
ROOT
ATOM      1  F   UNL     1      36.314 -19.953 -20.279  0.00  0.00    -0.204 F 
ATOM      2  C   UNL     1      33.609 -21.613 -18.551  0.00  0.00    -0.010 C 
ATOM      3  C   UNL     1      34.893 -21.262 -18.921  0.00  0.00    +0.026 C 
ATOM      4  C   UNL     1      32.496 -21.040 -19.134  0.00  0.00    -0.004 C 
ATOM      5  C   UNL     1      33.960 -19.705 -20.517  0.00  0.00    +0.027 C 
ATOM      6  C   UNL     1      35.070 -20.298 -19.914  0.00  0.00    +0.140 C 
ATOM      7  C   UNL     1      32.674 -20.076 -20.127  0.00  0.00    +0.002 C 
ENDROOT
BRANCH   5   8
ATOM      8  C   UNL     1      34.139 -18.705 -21.547  0.00  0.00    +0.002 C 
ATOM      9  C   UNL     1      34.676 -17.458 -21.223  0.00  0.00    +0.000 C 
ATOM     10  C   UNL     1      33.775 -18.986 -22.863  0.00  0.00    +0.000 C 
ATOM     11  C   UNL     1      34.847 -16.494 -22.215  0.00  0.00    +0.000 C 
ATOM     12  C   UNL     1      33.947 -18.021 -23.856  0.00  0.00    +0.000 C 
ATOM     13  C   UNL     1      34.484 -16.775 -23.532  0.00  0.00    +0.000 C 
ENDBRANCH   5   8
BRANCH   2  14
ATOM     14  C   UNL     1      33.416 -22.663 -17.470  0.00  0.00    +0.121 C 
ATOM     15  C   UNL     1      34.500 -22.589 -16.390  0.00  0.00    +0.016 C 
BRANCH  14  17
ATOM     16  O   UNL     1      31.026 -22.169 -17.411  0.00  0.00    -0.250 OA
ATOM     17  C   UNL     1      32.030 -22.584 -16.847  0.00  0.00    +0.323 C 
BRANCH  17  18
ATOM     18  O   UNL     1      32.078 -23.071 -15.570  0.00  0.00    -0.413 OA
BRANCH  18  19
ATOM     19  C   UNL     1      30.840 -23.136 -14.836  0.00  0.00    +0.345 C 
ATOM     20  C   UNL     1      31.131 -22.934 -13.355  0.00  0.00    +0.100 C 
BRANCH  19  21
ATOM     21  O   UNL     1      30.228 -24.435 -14.975  0.00  0.00    -0.414 OA
BRANCH  21  23
ATOM     22  O   UNL     1      28.251 -25.212 -14.066  0.00  0.00    -0.250 OA
ATOM     23  C   UNL     1      28.873 -24.483 -14.826  0.00  0.00    +0.320 C 
ATOM     24  C   UNL     1      28.233 -23.490 -15.748  0.00  0.00    +0.121 C 
ENDBRANCH  21  23
ENDBRANCH  19  21
ENDBRANCH  18  19
ENDBRANCH  17  18
ENDBRANCH  14  17
ENDBRANCH   2  14
TORSDOF 7
ENDMDL
MODEL 7
REMARK VINA RESULT:     -10.8      2.716      4.528
REMARK  Name = 3395
REMARK  7 active torsions:
REMARK  status: ('A' for Active; 'I' for Inactive)
REMARK    1  A    between atoms: C_2  and  C_14
REMARK    2  A    between atoms: C_5  and  C_8
REMARK    3  A    between atoms: C_14  and  C_17
REMARK    4  A    between atoms: C_17  and  O_18
REMARK    5  A    between atoms: O_18  and  C_19
REMARK    6  A    between atoms: C_19  and  O_21
REMARK    7  A    between atoms: O_21  and  C_23
REMARK                            x       y       z     vdW  Elec       q    Type
REMARK                         _______ _______ _______ _____ _____    ______ ____
ROOT
ATOM      1  F   UNL     1      33.761 -14.145 -20.001  0.00  0.00    -0.204 F 
ATOM      2  C   UNL     1      34.685 -16.805 -22.265  0.00  0.00    -0.010 C 
ATOM      3  C   UNL     1      34.504 -16.105 -21.088  0.00  0.00    +0.026 C 
ATOM      4  C   UNL     1      34.325 -16.282 -23.492  0.00  0.00    -0.004 C 
ATOM      5  C   UNL     1      33.568 -14.281 -22.368  0.00  0.00    +0.027 C 
ATOM      6  C   UNL     1      33.939 -14.830 -21.140  0.00  0.00    +0.140 C 
ATOM      7  C   UNL     1      33.761 -15.007 -23.543  0.00  0.00    +0.002 C 
ENDROOT
BRANCH   5   8
ATOM      8  C   UNL     1      32.983 -12.960 -22.427  0.00  0.00    +0.002 C 
ATOM      9  C   UNL     1      33.476 -12.018 -23.330  0.00  0.00    +0.000 C 
ATOM     10  C   UNL     1      31.925 -12.627 -21.581  0.00  0.00    +0.000 C 
ATOM     11  C   UNL     1      32.912 -10.744 -23.387  0.00  0.00    +0.000 C 
ATOM     12  C   UNL     1      31.361 -11.352 -21.638  0.00  0.00    +0.000 C 
ATOM     13  C   UNL     1      31.854 -10.411 -22.541  0.00  0.00    +0.000 C 
ENDBRANCH   5   8
BRANCH   2  14
ATOM     14  C   UNL     1      35.299 -18.194 -22.209  0.00  0.00    +0.121 C 
ATOM     15  C   UNL     1      36.747 -18.166 -21.710  0.00  0.00    +0.016 C 
BRANCH  14  17
ATOM     16  O   UNL     1      33.345 -19.555 -21.672  0.00  0.00    -0.250 OA
ATOM     17  C   UNL     1      34.460 -19.149 -21.372  0.00  0.00    +0.323 C 
BRANCH  17  18
ATOM     18  O   UNL     1      35.157 -19.500 -20.249  0.00  0.00    -0.413 OA
BRANCH  18  19
ATOM     19  C   UNL     1      35.102 -20.879 -19.837  0.00  0.00    +0.345 C 
ATOM     20  C   UNL     1      33.835 -21.104 -19.024  0.00  0.00    +0.100 C 
BRANCH  19  21
ATOM     21  O   UNL     1      36.218 -21.205 -18.982  0.00  0.00    -0.414 OA
BRANCH  21  23
ATOM     22  O   UNL     1      35.091 -22.290 -17.282  0.00  0.00    -0.250 OA
ATOM     23  C   UNL     1      35.920 -21.484 -17.681  0.00  0.00    +0.320 C 
ATOM     24  C   UNL     1      36.773 -20.642 -16.780  0.00  0.00    +0.121 C 
ENDBRANCH  21  23
ENDBRANCH  19  21
ENDBRANCH  18  19
ENDBRANCH  17  18
ENDBRANCH  14  17
ENDBRANCH   2  14
TORSDOF 7
ENDMDL
MODEL 8
REMARK VINA RESULT:     -10.7      1.097      2.011
REMARK  Name = 3395
REMARK  7 active torsions:
REMARK  status: ('A' for Active; 'I' for Inactive)
REMARK    1  A    between atoms: C_2  and  C_14
REMARK    2  A    between atoms: C_5  and  C_8
REMARK    3  A    between atoms: C_14  and  C_17
REMARK    4  A    between atoms: C_17  and  O_18
REMARK    5  A    between atoms: O_18  and  C_19
REMARK    6  A    between atoms: C_19  and  O_21
REMARK    7  A    between atoms: O_21  and  C_23
REMARK                            x       y       z     vdW  Elec       q    Type
REMARK                         _______ _______ _______ _____ _____    ______ ____
ROOT
ATOM      1  F   UNL     1      36.964 -17.962 -21.473  0.00  0.00    -0.204 F 
ATOM      2  C   UNL     1      35.047 -20.522 -19.792  0.00  0.00    -0.010 C 
ATOM      3  C   UNL     1      36.130 -19.773 -20.208  0.00  0.00    +0.026 C 
ATOM      4  C   UNL     1      33.758 -20.234 -20.198  0.00  0.00    -0.004 C 
ATOM      5  C   UNL     1      34.623 -18.383 -21.488  0.00  0.00    +0.027 C 
ATOM      6  C   UNL     1      35.916 -18.693 -21.065  0.00  0.00    +0.140 C 
ATOM      7  C   UNL     1      33.545 -19.154 -21.055  0.00  0.00    +0.002 C 
ENDROOT
BRANCH   5   8
ATOM      8  C   UNL     1      34.396 -17.264 -22.376  0.00  0.00    +0.002 C 
ATOM      9  C   UNL     1      34.074 -17.489 -23.715  0.00  0.00    +0.000 C 
ATOM     10  C   UNL     1      34.499 -15.959 -21.894  0.00  0.00    +0.000 C 
ATOM     11  C   UNL     1      33.856 -16.411 -24.571  0.00  0.00    +0.000 C 
ATOM     12  C   UNL     1      34.280 -14.880 -22.751  0.00  0.00    +0.000 C 
ATOM     13  C   UNL     1      33.958 -15.106 -24.089  0.00  0.00    +0.000 C 
ENDBRANCH   5   8
BRANCH   2  14
ATOM     14  C   UNL     1      35.280 -21.698 -18.860  0.00  0.00    +0.121 C 
ATOM     15  C   UNL     1      36.153 -21.322 -17.659  0.00  0.00    +0.016 C 
BRANCH  14  17
ATOM     16  O   UNL     1      33.405 -23.260 -18.944  0.00  0.00    -0.250 OA
ATOM     17  C   UNL     1      33.970 -22.322 -18.398  0.00  0.00    +0.323 C 
BRANCH  17  18
ATOM     18  O   UNL     1      33.538 -21.684 -17.268  0.00  0.00    -0.413 OA
BRANCH  18  19
ATOM     19  C   UNL     1      33.044 -22.504 -16.191  0.00  0.00    +0.345 C 
ATOM     20  C   UNL     1      34.059 -23.600 -15.896  0.00  0.00    +0.100 C 
BRANCH  19  21
ATOM     21  O   UNL     1      31.812 -23.156 -16.564  0.00  0.00    -0.414 OA
BRANCH  21  23
ATOM     22  O   UNL     1      29.840 -22.016 -16.952  0.00  0.00    -0.250 OA
ATOM     23  C   UNL     1      30.660 -22.523 -16.200  0.00  0.00    +0.320 C 
ATOM     24  C   UNL     1      30.534 -22.535 -14.707  0.00  0.00    +0.121 C 
ENDBRANCH  21  23
ENDBRANCH  19  21
ENDBRANCH  18  19
ENDBRANCH  17  18
ENDBRANCH  14  17
ENDBRANCH   2  14
TORSDOF 7
ENDMDL
MODEL 9
REMARK VINA RESULT:     -10.6      5.640      9.455
REMARK  Name = 3395
REMARK  7 active torsions:
REMARK  status: ('A' for Active; 'I' for Inactive)
REMARK    1  A    between atoms: C_2  and  C_14
REMARK    2  A    between atoms: C_5  and  C_8
REMARK    3  A    between atoms: C_14  and  C_17
REMARK    4  A    between atoms: C_17  and  O_18
REMARK    5  A    between atoms: O_18  and  C_19
REMARK    6  A    between atoms: C_19  and  O_21
REMARK    7  A    between atoms: O_21  and  C_23
REMARK                            x       y       z     vdW  Elec       q    Type
REMARK                         _______ _______ _______ _____ _____    ______ ____
ROOT
ATOM      1  F   UNL     1      34.500 -15.640 -20.150  0.00  0.00    -0.204 F 
ATOM      2  C   UNL     1      33.918 -14.670 -23.581  0.00  0.00    -0.010 C 
ATOM      3  C   UNL     1      34.067 -14.574 -22.211  0.00  0.00    +0.026 C 
ATOM      4  C   UNL     1      34.045 -15.872 -24.249  0.00  0.00    -0.004 C 
ATOM      5  C   UNL     1      34.488 -16.952 -22.133  0.00  0.00    +0.027 C 
ATOM      6  C   UNL     1      34.355 -15.727 -21.480  0.00  0.00    +0.140 C 
ATOM      7  C   UNL     1      34.333 -17.025 -23.518  0.00  0.00    +0.002 C 
ENDROOT
BRANCH   5   8
ATOM      8  C   UNL     1      34.787 -18.150 -21.380  0.00  0.00    +0.002 C 
ATOM      9  C   UNL     1      33.767 -19.049 -21.066  0.00  0.00    +0.000 C 
ATOM     10  C   UNL     1      36.094 -18.407 -20.967  0.00  0.00    +0.000 C 
ATOM     11  C   UNL     1      34.054 -20.204 -20.339  0.00  0.00    +0.000 C 
ATOM     12  C   UNL     1      36.381 -19.563 -20.239  0.00  0.00    +0.000 C 
ATOM     13  C   UNL     1      35.362 -20.461 -19.926  0.00  0.00    +0.000 C 
ENDBRANCH   5   8
BRANCH   2  14
ATOM     14  C   UNL     1      33.604 -13.415 -24.378  0.00  0.00    +0.121 C 
ATOM     15  C   UNL     1      32.600 -13.678 -25.503  0.00  0.00    +0.016 C 
BRANCH  14  17
ATOM     16  O   UNL     1      33.590 -11.151 -23.462  0.00  0.00    -0.250 OA
ATOM     17  C   UNL     1      33.123 -12.282 -23.481  0.00  0.00    +0.323 C 
BRANCH  17  18
ATOM     18  O   UNL     1      32.075 -12.721 -22.720  0.00  0.00    -0.413 OA
BRANCH  18  19
ATOM     19  C   UNL     1      31.862 -12.078 -21.449  0.00  0.00    +0.345 C 
ATOM     20  C   UNL     1      31.706 -13.144 -20.374  0.00  0.00    +0.100 C 
BRANCH  19  21
ATOM     21  O   UNL     1      30.643 -11.306 -21.461  0.00  0.00    -0.414 OA
BRANCH  21  23
ATOM     22  O   UNL     1      30.828  -9.182 -22.353  0.00  0.00    -0.250 OA
ATOM     23  C   UNL     1      30.786  -9.951 -21.402  0.00  0.00    +0.320 C 
ATOM     24  C   UNL     1      30.888  -9.520 -19.970  0.00  0.00    +0.121 C 
ENDBRANCH  21  23
ENDBRANCH  19  21
ENDBRANCH  18  19
ENDBRANCH  17  18
ENDBRANCH  14  17
ENDBRANCH   2  14
TORSDOF 7
ENDMDL
