MODEL 1
REMARK VINA RESULT:     -11.7      0.000      0.000
REMARK  Name = 9926933
REMARK  4 active torsions:
REMARK  status: ('A' for Active; 'I' for Inactive)
REMARK    1  A    between atoms: N_2  and  C_15
REMARK    2  A    between atoms: C_3  and  C_9
REMARK    3  A    between atoms: C_16  and  S_21
REMARK    4  A    between atoms: S_21  and  N_24
REMARK                            x       y       z     vdW  Elec       q    Type
REMARK                         _______ _______ _______ _____ _____    ______ ____
ROOT
ATOM      1  O   UNL     1      35.687 -17.551 -20.474  0.00  0.00    -0.268 OA
ATOM      2  N   UNL     1      33.756 -18.662 -21.210  0.00  0.00    -0.279 N 
ATOM      3  C   UNL     1      34.724 -17.638 -21.265  0.00  0.00    +0.269 C 
ATOM      4  H   UNL     1      33.049 -18.613 -21.893  0.00  0.00    +0.155 HD
ENDROOT
BRANCH   3   9
ATOM      5  N   UNL     1      34.483 -15.827 -24.220  0.00  0.00    -0.276 N 
ATOM      6  N   UNL     1      34.729 -16.974 -23.565  0.00  0.00    -0.168 NA
ATOM      7  C   UNL     1      34.184 -15.288 -22.115  0.00  0.00    +0.041 A 
ATOM      8  C   UNL     1      34.150 -14.777 -23.408  0.00  0.00    +0.075 A 
ATOM      9  C   UNL     1      34.546 -16.642 -22.285  0.00  0.00    +0.155 A 
ATOM     10  C   UNL     1      33.883 -14.445 -21.033  0.00  0.00    +0.003 C 
ATOM     11  C   UNL     1      33.828 -13.448 -23.692  0.00  0.00    +0.019 C 
ATOM     12  C   UNL     1      33.558 -13.109 -21.297  0.00  0.00    +0.000 C 
ATOM     13  C   UNL     1      33.532 -12.620 -22.604  0.00  0.00    +0.002 C 
ATOM     14  H   UNL     1      34.537 -15.748 -25.200  0.00  0.00    +0.189 HD
ENDBRANCH   3   9
BRANCH   2  15
ATOM     15  C   UNL     1      33.658 -19.753 -20.310  0.00  0.00    +0.051 C 
ATOM     16  C   UNL     1      33.467 -21.882 -18.552  0.00  0.00    +0.122 C 
ATOM     17  C   UNL     1      32.413 -20.132 -19.843  0.00  0.00    +0.016 C 
ATOM     18  C   UNL     1      34.810 -20.412 -19.920  0.00  0.00    +0.016 C 
ATOM     19  C   UNL     1      32.316 -21.206 -18.957  0.00  0.00    +0.021 C 
ATOM     20  C   UNL     1      34.714 -21.485 -19.034  0.00  0.00    +0.021 C 
BRANCH  16  21
ATOM     21  S   UNL     1      33.347 -23.224 -17.443  0.00  0.00    +0.057 S 
ATOM     22  O   UNL     1      33.047 -24.427 -18.206  0.00  0.00    -0.153 OA
ATOM     23  O   UNL     1      34.502 -23.198 -16.557  0.00  0.00    -0.153 OA
BRANCH  21  24
ATOM     24  N   UNL     1      31.960 -22.781 -16.545  0.00  0.00    -0.203 NA
ATOM     25  H   UNL     1      31.510 -21.980 -16.989  0.00  0.00    +0.144 HD
ATOM     26  H   UNL     1      32.235 -22.534 -15.595  0.00  0.00    +0.144 HD
ENDBRANCH  21  24
ENDBRANCH  16  21
ENDBRANCH   2  15
TORSDOF 4
ENDMDL
MODEL 2
REMARK VINA RESULT:     -11.6      4.373      6.768
REMARK  Name = 9926933
REMARK  4 active torsions:
REMARK  status: ('A' for Active; 'I' for Inactive)
REMARK    1  A    between atoms: N_2  and  C_15
REMARK    2  A    between atoms: C_3  and  C_9
REMARK    3  A    between atoms: C_16  and  S_21
REMARK    4  A    between atoms: S_21  and  N_24
REMARK                            x       y       z     vdW  Elec       q    Type
REMARK                         _______ _______ _______ _____ _____    ______ ____
ROOT
ATOM      1  O   UNL     1      33.173 -23.812 -17.379  0.00  0.00    -0.268 OA
ATOM      2  N   UNL     1      34.359 -22.102 -16.295  0.00  0.00    -0.279 N 
ATOM      3  C   UNL     1      33.570 -22.627 -17.339  0.00  0.00    +0.269 C 
ATOM      4  H   UNL     1      34.603 -21.153 -16.386  0.00  0.00    +0.155 HD
ENDROOT
BRANCH   3   9
ATOM      5  N   UNL     1      32.033 -20.665 -19.759  0.00  0.00    -0.276 N 
ATOM      6  N   UNL     1      31.965 -21.548 -18.749  0.00  0.00    -0.168 NA
ATOM      7  C   UNL     1      34.132 -20.968 -19.201  0.00  0.00    +0.041 A 
ATOM      8  C   UNL     1      33.306 -20.277 -20.080  0.00  0.00    +0.075 A 
ATOM      9  C   UNL     1      33.243 -21.729 -18.412  0.00  0.00    +0.155 A 
ATOM     10  C   UNL     1      35.523 -20.783 -19.274  0.00  0.00    +0.003 C 
ATOM     11  C   UNL     1      33.792 -19.395 -21.048  0.00  0.00    +0.019 C 
ATOM     12  C   UNL     1      36.030 -19.904 -20.238  0.00  0.00    +0.000 C 
ATOM     13  C   UNL     1      35.179 -19.223 -21.109  0.00  0.00    +0.002 C 
ATOM     14  H   UNL     1      31.236 -20.326 -20.229  0.00  0.00    +0.189 HD
ENDBRANCH   3   9
BRANCH   2  15
ATOM     15  C   UNL     1      34.851 -22.748 -15.134  0.00  0.00    +0.051 C 
ATOM     16  C   UNL     1      35.811 -24.010 -12.865  0.00  0.00    +0.122 C 
ATOM     17  C   UNL     1      36.214 -22.941 -14.995  0.00  0.00    +0.016 C 
ATOM     18  C   UNL     1      33.957 -23.170 -14.166  0.00  0.00    +0.016 C 
ATOM     19  C   UNL     1      36.698 -23.577 -13.851  0.00  0.00    +0.021 C 
ATOM     20  C   UNL     1      34.441 -23.806 -13.023  0.00  0.00    +0.021 C 
BRANCH  16  21
ATOM     21  S   UNL     1      36.416 -24.807 -11.435  0.00  0.00    +0.057 S 
ATOM     22  O   UNL     1      36.656 -26.207 -11.755  0.00  0.00    -0.153 OA
ATOM     23  O   UNL     1      37.490 -23.999 -10.874  0.00  0.00    -0.153 OA
BRANCH  21  24
ATOM     24  N   UNL     1      35.057 -24.702 -10.404  0.00  0.00    -0.203 NA
ATOM     25  H   UNL     1      35.364 -24.465  -9.461  0.00  0.00    +0.144 HD
ATOM     26  H   UNL     1      34.572 -25.599 -10.389  0.00  0.00    +0.144 HD
ENDBRANCH  21  24
ENDBRANCH  16  21
ENDBRANCH   2  15
TORSDOF 4
ENDMDL
MODEL 3
REMARK VINA RESULT:     -11.5      1.880      2.357
REMARK  Name = 9926933
REMARK  4 active torsions:
REMARK  status: ('A' for Active; 'I' for Inactive)
REMARK    1  A    between atoms: N_2  and  C_15
REMARK    2  A    between atoms: C_3  and  C_9
REMARK    3  A    between atoms: C_16  and  S_21
REMARK    4  A    between atoms: S_21  and  N_24
REMARK                            x       y       z     vdW  Elec       q    Type
REMARK                         _______ _______ _______ _____ _____    ______ ____
ROOT
ATOM      1  O   UNL     1      36.151 -18.561 -20.449  0.00  0.00    -0.268 OA
ATOM      2  N   UNL     1      34.428 -20.153 -20.436  0.00  0.00    -0.279 N 
ATOM      3  C   UNL     1      35.147 -19.073 -20.989  0.00  0.00    +0.269 C 
ATOM      4  H   UNL     1      33.656 -20.461 -20.964  0.00  0.00    +0.155 HD
ENDROOT
BRANCH   3   9
ATOM      5  N   UNL     1      33.927 -18.554 -24.200  0.00  0.00    -0.276 N 
ATOM      6  N   UNL     1      34.344 -19.377 -23.223  0.00  0.00    -0.168 NA
ATOM      7  C   UNL     1      34.441 -17.188 -22.564  0.00  0.00    +0.041 A 
ATOM      8  C   UNL     1      33.961 -17.226 -23.868  0.00  0.00    +0.075 A 
ATOM      9  C   UNL     1      34.655 -18.542 -22.229  0.00  0.00    +0.155 A 
ATOM     10  C   UNL     1      34.593 -15.946 -21.923  0.00  0.00    +0.003 C 
ATOM     11  C   UNL     1      33.617 -16.080 -24.587  0.00  0.00    +0.019 C 
ATOM     12  C   UNL     1      34.255 -14.785 -22.627  0.00  0.00    +0.000 C 
ATOM     13  C   UNL     1      33.776 -14.852 -23.936  0.00  0.00    +0.002 C 
ATOM     14  H   UNL     1      33.623 -18.877 -25.079  0.00  0.00    +0.189 HD
ENDBRANCH   3   9
BRANCH   2  15
ATOM     15  C   UNL     1      34.659 -20.858 -19.229  0.00  0.00    +0.051 C 
ATOM     16  C   UNL     1      35.110 -22.233 -16.870  0.00  0.00    +0.122 C 
ATOM     17  C   UNL     1      33.621 -21.569 -18.654  0.00  0.00    +0.016 C 
ATOM     18  C   UNL     1      35.916 -20.817 -18.653  0.00  0.00    +0.016 C 
ATOM     19  C   UNL     1      33.849 -22.263 -17.465  0.00  0.00    +0.021 C 
ATOM     20  C   UNL     1      36.144 -21.510 -17.464  0.00  0.00    +0.021 C 
BRANCH  16  21
ATOM     21  S   UNL     1      35.394 -23.099 -15.382  0.00  0.00    +0.057 S 
ATOM     22  O   UNL     1      34.968 -24.480 -15.563  0.00  0.00    -0.153 OA
ATOM     23  O   UNL     1      36.749 -22.814 -14.931  0.00  0.00    -0.153 OA
BRANCH  21  24
ATOM     24  N   UNL     1      34.293 -22.317 -14.334  0.00  0.00    -0.203 NA
ATOM     25  H   UNL     1      34.784 -21.600 -13.800  0.00  0.00    +0.144 HD
ATOM     26  H   UNL     1      33.889 -23.000 -13.694  0.00  0.00    +0.144 HD
ENDBRANCH  21  24
ENDBRANCH  16  21
ENDBRANCH   2  15
TORSDOF 4
ENDMDL
MODEL 4
REMARK VINA RESULT:     -11.4      4.158      6.470
REMARK  Name = 9926933
REMARK  4 active torsions:
REMARK  status: ('A' for Active; 'I' for Inactive)
REMARK    1  A    between atoms: N_2  and  C_15
REMARK    2  A    between atoms: C_3  and  C_9
REMARK    3  A    between atoms: C_16  and  S_21
REMARK    4  A    between atoms: S_21  and  N_24
REMARK                            x       y       z     vdW  Elec       q    Type
REMARK                         _______ _______ _______ _____ _____    ______ ____
ROOT
ATOM      1  O   UNL     1      33.191 -23.537 -17.550  0.00  0.00    -0.268 OA
ATOM      2  N   UNL     1      34.739 -21.955 -16.773  0.00  0.00    -0.279 N 
ATOM      3  C   UNL     1      33.734 -22.416 -17.648  0.00  0.00    +0.269 C 
ATOM      4  H   UNL     1      35.082 -21.052 -16.962  0.00  0.00    +0.155 HD
ENDROOT
BRANCH   3   9
ATOM      5  N   UNL     1      32.081 -20.523 -20.048  0.00  0.00    -0.276 N 
ATOM      6  N   UNL     1      32.065 -21.414 -19.041  0.00  0.00    -0.168 NA
ATOM      7  C   UNL     1      34.196 -20.720 -19.504  0.00  0.00    +0.041 A 
ATOM      8  C   UNL     1      33.330 -20.068 -20.374  0.00  0.00    +0.075 A 
ATOM      9  C   UNL     1      33.354 -21.530 -18.713  0.00  0.00    +0.155 A 
ATOM     10  C   UNL     1      35.575 -20.463 -19.585  0.00  0.00    +0.003 C 
ATOM     11  C   UNL     1      33.764 -19.157 -21.340  0.00  0.00    +0.019 C 
ATOM     12  C   UNL     1      36.031 -19.553 -20.546  0.00  0.00    +0.000 C 
ATOM     13  C   UNL     1      35.139 -18.913 -21.409  0.00  0.00    +0.002 C 
ATOM     14  H   UNL     1      31.265 -20.224 -20.510  0.00  0.00    +0.189 HD
ENDBRANCH   3   9
BRANCH   2  15
ATOM     15  C   UNL     1      35.326 -22.608 -15.662  0.00  0.00    +0.051 C 
ATOM     16  C   UNL     1      36.473 -23.884 -13.489  0.00  0.00    +0.122 C 
ATOM     17  C   UNL     1      34.507 -23.154 -14.690  0.00  0.00    +0.016 C 
ATOM     18  C   UNL     1      36.705 -22.684 -15.574  0.00  0.00    +0.016 C 
ATOM     19  C   UNL     1      35.085 -23.798 -13.595  0.00  0.00    +0.021 C 
ATOM     20  C   UNL     1      37.283 -23.328 -14.479  0.00  0.00    +0.021 C 
BRANCH  16  21
ATOM     21  S   UNL     1      37.196 -24.687 -12.119  0.00  0.00    +0.057 S 
ATOM     22  O   UNL     1      37.921 -23.697 -11.334  0.00  0.00    -0.153 OA
ATOM     23  O   UNL     1      36.184 -25.516 -11.480  0.00  0.00    -0.153 OA
BRANCH  21  24
ATOM     24  N   UNL     1      38.327 -25.706 -12.898  0.00  0.00    -0.203 NA
ATOM     25  H   UNL     1      38.922 -25.148 -13.510  0.00  0.00    +0.144 HD
ATOM     26  H   UNL     1      37.830 -26.405 -13.451  0.00  0.00    +0.144 HD
ENDBRANCH  21  24
ENDBRANCH  16  21
ENDBRANCH   2  15
TORSDOF 4
ENDMDL
MODEL 5
REMARK VINA RESULT:     -11.2      4.601      8.509
REMARK  Name = 9926933
REMARK  4 active torsions:
REMARK  status: ('A' for Active; 'I' for Inactive)
REMARK    1  A    between atoms: N_2  and  C_15
REMARK    2  A    between atoms: C_3  and  C_9
REMARK    3  A    between atoms: C_16  and  S_21
REMARK    4  A    between atoms: S_21  and  N_24
REMARK                            x       y       z     vdW  Elec       q    Type
REMARK                         _______ _______ _______ _____ _____    ______ ____
ROOT
ATOM      1  O   UNL     1      34.204 -16.642 -23.078  0.00  0.00    -0.268 OA
ATOM      2  N   UNL     1      34.249 -15.600 -20.977  0.00  0.00    -0.279 N 
ATOM      3  C   UNL     1      34.524 -16.656 -21.870  0.00  0.00    +0.269 C 
ATOM      4  H   UNL     1      34.555 -15.738 -20.052  0.00  0.00    +0.155 HD
ENDROOT
BRANCH   3   9
ATOM      5  N   UNL     1      36.789 -19.042 -20.754  0.00  0.00    -0.276 N 
ATOM      6  N   UNL     1      36.522 -17.860 -21.336  0.00  0.00    -0.168 NA
ATOM      7  C   UNL     1      34.598 -18.944 -20.733  0.00  0.00    +0.041 A 
ATOM      8  C   UNL     1      35.677 -19.742 -20.369  0.00  0.00    +0.075 A 
ATOM      9  C   UNL     1      35.188 -17.805 -21.320  0.00  0.00    +0.155 A 
ATOM     10  C   UNL     1      33.293 -19.390 -20.468  0.00  0.00    +0.003 C 
ATOM     11  C   UNL     1      35.531 -20.982 -19.745  0.00  0.00    +0.019 C 
ATOM     12  C   UNL     1      33.124 -20.631 -19.843  0.00  0.00    +0.000 C 
ATOM     13  C   UNL     1      34.225 -21.413 -19.489  0.00  0.00    +0.002 C 
ATOM     14  H   UNL     1      37.705 -19.376 -20.617  0.00  0.00    +0.189 HD
ENDBRANCH   3   9
BRANCH   2  15
ATOM     15  C   UNL     1      33.593 -14.368 -21.223  0.00  0.00    +0.051 C 
ATOM     16  C   UNL     1      32.314 -11.961 -21.702  0.00  0.00    +0.122 C 
ATOM     17  C   UNL     1      33.928 -13.639 -22.350  0.00  0.00    +0.016 C 
ATOM     18  C   UNL     1      32.635 -13.923 -20.329  0.00  0.00    +0.016 C 
ATOM     19  C   UNL     1      33.282 -12.426 -22.592  0.00  0.00    +0.021 C 
ATOM     20  C   UNL     1      31.990 -12.710 -20.571  0.00  0.00    +0.021 C 
BRANCH  16  21
ATOM     21  S   UNL     1      31.507 -10.442 -22.004  0.00  0.00    +0.057 S 
ATOM     22  O   UNL     1      31.822  -9.530 -20.914  0.00  0.00    -0.153 OA
ATOM     23  O   UNL     1      31.770 -10.044 -23.380  0.00  0.00    -0.153 OA
BRANCH  21  24
ATOM     24  N   UNL     1      29.869 -10.912 -21.874  0.00  0.00    -0.203 NA
ATOM     25  H   UNL     1      29.805 -11.774 -21.332  0.00  0.00    +0.144 HD
ATOM     26  H   UNL     1      29.484 -11.066 -22.806  0.00  0.00    +0.144 HD
ENDBRANCH  21  24
ENDBRANCH  16  21
ENDBRANCH   2  15
TORSDOF 4
ENDMDL
MODEL 6
REMARK VINA RESULT:     -11.1      4.179      8.537
REMARK  Name = 9926933
REMARK  4 active torsions:
REMARK  status: ('A' for Active; 'I' for Inactive)
REMARK    1  A    between atoms: N_2  and  C_15
REMARK    2  A    between atoms: C_3  and  C_9
REMARK    3  A    between atoms: C_16  and  S_21
REMARK    4  A    between atoms: S_21  and  N_24
REMARK                            x       y       z     vdW  Elec       q    Type
REMARK                         _______ _______ _______ _____ _____    ______ ____
ROOT
ATOM      1  O   UNL     1      34.182 -17.923 -22.782  0.00  0.00    -0.268 OA
ATOM      2  N   UNL     1      34.556 -16.382 -21.053  0.00  0.00    -0.279 N 
ATOM      3  C   UNL     1      34.579 -17.671 -21.624  0.00  0.00    +0.269 C 
ATOM      4  H   UNL     1      34.898 -16.322 -20.132  0.00  0.00    +0.155 HD
ENDROOT
BRANCH   3   9
ATOM      5  N   UNL     1      36.470 -19.884 -19.727  0.00  0.00    -0.276 N 
ATOM      6  N   UNL     1      36.374 -18.795 -20.508  0.00  0.00    -0.168 NA
ATOM      7  C   UNL     1      34.331 -19.778 -20.197  0.00  0.00    +0.041 A 
ATOM      8  C   UNL     1      35.279 -20.520 -19.502  0.00  0.00    +0.075 A 
ATOM      9  C   UNL     1      35.071 -18.734 -20.792  0.00  0.00    +0.155 A 
ATOM     10  C   UNL     1      32.984 -20.178 -20.164  0.00  0.00    +0.003 C 
ATOM     11  C   UNL     1      34.959 -21.660 -18.761  0.00  0.00    +0.019 C 
ATOM     12  C   UNL     1      32.643 -21.318 -19.428  0.00  0.00    +0.000 C 
ATOM     13  C   UNL     1      33.615 -22.046 -18.739  0.00  0.00    +0.002 C 
ATOM     14  H   UNL     1      37.323 -20.198 -19.349  0.00  0.00    +0.189 HD
ENDBRANCH   3   9
BRANCH   2  15
ATOM     15  C   UNL     1      34.109 -15.162 -21.617  0.00  0.00    +0.051 C 
ATOM     16  C   UNL     1      33.234 -12.778 -22.718  0.00  0.00    +0.122 C 
ATOM     17  C   UNL     1      33.589 -14.185 -20.786  0.00  0.00    +0.016 C 
ATOM     18  C   UNL     1      34.200 -14.976 -22.984  0.00  0.00    +0.016 C 
ATOM     19  C   UNL     1      33.149 -12.983 -21.341  0.00  0.00    +0.021 C 
ATOM     20  C   UNL     1      33.760 -13.774 -23.540  0.00  0.00    +0.021 C 
BRANCH  16  21
ATOM     21  S   UNL     1      32.681 -11.275 -23.413  0.00  0.00    +0.057 S 
ATOM     22  O   UNL     1      32.308 -11.519 -24.799  0.00  0.00    -0.153 OA
ATOM     23  O   UNL     1      31.721 -10.669 -22.501  0.00  0.00    -0.153 OA
BRANCH  21  24
ATOM     24  N   UNL     1      34.121 -10.354 -23.384  0.00  0.00    -0.203 NA
ATOM     25  H   UNL     1      34.404 -10.137 -24.340  0.00  0.00    +0.144 HD
ATOM     26  H   UNL     1      34.858 -10.889 -22.924  0.00  0.00    +0.144 HD
ENDBRANCH  21  24
ENDBRANCH  16  21
ENDBRANCH   2  15
TORSDOF 4
ENDMDL
MODEL 7
REMARK VINA RESULT:     -10.8      6.111      9.411
REMARK  Name = 9926933
REMARK  4 active torsions:
REMARK  status: ('A' for Active; 'I' for Inactive)
REMARK    1  A    between atoms: N_2  and  C_15
REMARK    2  A    between atoms: C_3  and  C_9
REMARK    3  A    between atoms: C_16  and  S_21
REMARK    4  A    between atoms: S_21  and  N_24
REMARK                            x       y       z     vdW  Elec       q    Type
REMARK                         _______ _______ _______ _____ _____    ______ ____
ROOT
ATOM      1  O   UNL     1      33.097 -14.265 -25.484  0.00  0.00    -0.268 OA
ATOM      2  N   UNL     1      32.946 -14.040 -23.154  0.00  0.00    -0.279 N 
ATOM      3  C   UNL     1      33.141 -14.772 -24.343  0.00  0.00    +0.269 C 
ATOM      4  H   UNL     1      33.007 -14.561 -22.321  0.00  0.00    +0.155 HD
ENDROOT
BRANCH   3   9
ATOM      5  N   UNL     1      33.288 -18.228 -24.665  0.00  0.00    -0.276 N 
ATOM      6  N   UNL     1      32.883 -17.026 -25.107  0.00  0.00    -0.168 NA
ATOM      7  C   UNL     1      34.093 -16.836 -23.174  0.00  0.00    +0.041 A 
ATOM      8  C   UNL     1      34.019 -18.184 -23.509  0.00  0.00    +0.075 A 
ATOM      9  C   UNL     1      33.375 -16.182 -24.198  0.00  0.00    +0.155 A 
ATOM     10  C   UNL     1      34.791 -16.452 -22.017  0.00  0.00    +0.003 C 
ATOM     11  C   UNL     1      34.610 -19.192 -22.744  0.00  0.00    +0.019 C 
ATOM     12  C   UNL     1      35.391 -17.448 -21.236  0.00  0.00    +0.000 C 
ATOM     13  C   UNL     1      35.300 -18.794 -21.594  0.00  0.00    +0.002 C 
ATOM     14  H   UNL     1      33.077 -19.069 -25.133  0.00  0.00    +0.189 HD
ENDBRANCH   3   9
BRANCH   2  15
ATOM     15  C   UNL     1      32.676 -12.659 -22.988  0.00  0.00    +0.051 C 
ATOM     16  C   UNL     1      32.147  -9.961 -22.664  0.00  0.00    +0.122 C 
ATOM     17  C   UNL     1      31.674 -12.267 -22.118  0.00  0.00    +0.016 C 
ATOM     18  C   UNL     1      33.419 -11.735 -23.700  0.00  0.00    +0.016 C 
ATOM     19  C   UNL     1      31.408 -10.907 -21.954  0.00  0.00    +0.021 C 
ATOM     20  C   UNL     1      33.153 -10.375 -23.537  0.00  0.00    +0.021 C 
BRANCH  16  21
ATOM     21  S   UNL     1      31.813  -8.260 -22.461  0.00  0.00    +0.057 S 
ATOM     22  O   UNL     1      33.055  -7.522 -22.641  0.00  0.00    -0.153 OA
ATOM     23  O   UNL     1      30.646  -7.919 -23.262  0.00  0.00    -0.153 OA
BRANCH  21  24
ATOM     24  N   UNL     1      31.376  -8.209 -20.809  0.00  0.00    -0.203 NA
ATOM     25  H   UNL     1      32.206  -8.024 -20.244  0.00  0.00    +0.144 HD
ATOM     26  H   UNL     1      30.972  -9.105 -20.536  0.00  0.00    +0.144 HD
ENDBRANCH  21  24
ENDBRANCH  16  21
ENDBRANCH   2  15
TORSDOF 4
ENDMDL
MODEL 8
REMARK VINA RESULT:     -10.7      4.323      6.734
REMARK  Name = 9926933
REMARK  4 active torsions:
REMARK  status: ('A' for Active; 'I' for Inactive)
REMARK    1  A    between atoms: N_2  and  C_15
REMARK    2  A    between atoms: C_3  and  C_9
REMARK    3  A    between atoms: C_16  and  S_21
REMARK    4  A    between atoms: S_21  and  N_24
REMARK                            x       y       z     vdW  Elec       q    Type
REMARK                         _______ _______ _______ _____ _____    ______ ____
ROOT
ATOM      1  O   UNL     1      31.235 -12.574 -21.261  0.00  0.00    -0.268 OA
ATOM      2  N   UNL     1      33.336 -12.543 -22.306  0.00  0.00    -0.279 N 
ATOM      3  C   UNL     1      32.136 -11.950 -21.862  0.00  0.00    +0.269 C 
ATOM      4  H   UNL     1      33.961 -11.939 -22.766  0.00  0.00    +0.155 HD
ENDROOT
BRANCH   3   9
ATOM      5  N   UNL     1      31.833  -8.812 -23.323  0.00  0.00    -0.276 N 
ATOM      6  N   UNL     1      32.042 -10.136 -23.421  0.00  0.00    -0.168 NA
ATOM      7  C   UNL     1      31.705  -9.507 -21.247  0.00  0.00    +0.041 A 
ATOM      8  C   UNL     1      31.625  -8.371 -22.044  0.00  0.00    +0.075 A 
ATOM      9  C   UNL     1      31.963 -10.554 -22.156  0.00  0.00    +0.155 A 
ATOM     10  C   UNL     1      31.531  -9.386 -19.858  0.00  0.00    +0.003 C 
ATOM     11  C   UNL     1      31.376  -7.096 -21.531  0.00  0.00    +0.019 C 
ATOM     12  C   UNL     1      31.281  -8.117 -19.323  0.00  0.00    +0.000 C 
ATOM     13  C   UNL     1      31.206  -6.992 -20.146  0.00  0.00    +0.002 C 
ATOM     14  H   UNL     1      31.831  -8.212 -24.103  0.00  0.00    +0.189 HD
ENDBRANCH   3   9
BRANCH   2  15
ATOM     15  C   UNL     1      33.768 -13.887 -22.183  0.00  0.00    +0.051 C 
ATOM     16  C   UNL     1      34.613 -16.512 -21.943  0.00  0.00    +0.122 C 
ATOM     17  C   UNL     1      33.864 -14.453 -20.924  0.00  0.00    +0.016 C 
ATOM     18  C   UNL     1      34.085 -14.602 -23.324  0.00  0.00    +0.016 C 
ATOM     19  C   UNL     1      34.289 -15.776 -20.803  0.00  0.00    +0.021 C 
ATOM     20  C   UNL     1      34.510 -15.925 -23.203  0.00  0.00    +0.021 C 
BRANCH  16  21
ATOM     21  S   UNL     1      35.147 -18.167 -21.791  0.00  0.00    +0.057 S 
ATOM     22  O   UNL     1      34.689 -18.683 -20.509  0.00  0.00    -0.153 OA
ATOM     23  O   UNL     1      34.813 -18.876 -23.018  0.00  0.00    -0.153 OA
BRANCH  21  24
ATOM     24  N   UNL     1      36.843 -17.957 -21.726  0.00  0.00    -0.203 NA
ATOM     25  H   UNL     1      37.056 -17.027 -21.366  0.00  0.00    +0.144 HD
ATOM     26  H   UNL     1      37.234 -18.057 -22.662  0.00  0.00    +0.144 HD
ENDBRANCH  21  24
ENDBRANCH  16  21
ENDBRANCH   2  15
TORSDOF 4
ENDMDL
MODEL 9
REMARK VINA RESULT:     -10.5      4.325      6.727
REMARK  Name = 9926933
REMARK  4 active torsions:
REMARK  status: ('A' for Active; 'I' for Inactive)
REMARK    1  A    between atoms: N_2  and  C_15
REMARK    2  A    between atoms: C_3  and  C_9
REMARK    3  A    between atoms: C_16  and  S_21
REMARK    4  A    between atoms: S_21  and  N_24
REMARK                            x       y       z     vdW  Elec       q    Type
REMARK                         _______ _______ _______ _____ _____    ______ ____
ROOT
ATOM      1  O   UNL     1      32.724 -12.336 -24.260  0.00  0.00    -0.268 OA
ATOM      2  N   UNL     1      33.235 -12.615 -21.988  0.00  0.00    -0.279 N 
ATOM      3  C   UNL     1      32.765 -11.882 -23.097  0.00  0.00    +0.269 C 
ATOM      4  H   UNL     1      33.213 -12.139 -21.126  0.00  0.00    +0.155 HD
ENDROOT
BRANCH   3   9
ATOM      5  N   UNL     1      31.093  -8.975 -22.188  0.00  0.00    -0.276 N 
ATOM      6  N   UNL     1      31.154 -10.315 -22.273  0.00  0.00    -0.168 NA
ATOM      7  C   UNL     1      33.042  -9.341 -23.123  0.00  0.00    +0.041 A 
ATOM      8  C   UNL     1      32.195  -8.331 -22.680  0.00  0.00    +0.075 A 
ATOM      9  C   UNL     1      32.341 -10.533 -22.842  0.00  0.00    +0.155 A 
ATOM     10  C   UNL     1      34.281  -9.000 -23.692  0.00  0.00    +0.003 C 
ATOM     11  C   UNL     1      32.514  -6.974 -22.773  0.00  0.00    +0.019 C 
ATOM     12  C   UNL     1      34.619  -7.646 -23.794  0.00  0.00    +0.000 C 
ATOM     13  C   UNL     1      33.750  -6.651 -23.343  0.00  0.00    +0.002 C 
ATOM     14  H   UNL     1      30.322  -8.499 -21.803  0.00  0.00    +0.189 HD
ENDBRANCH   3   9
BRANCH   2  15
ATOM     15  C   UNL     1      33.733 -13.940 -21.937  0.00  0.00    +0.051 C 
ATOM     16  C   UNL     1      34.708 -16.529 -21.838  0.00  0.00    +0.122 C 
ATOM     17  C   UNL     1      33.796 -14.591 -20.718  0.00  0.00    +0.016 C 
ATOM     18  C   UNL     1      34.146 -14.552 -23.107  0.00  0.00    +0.016 C 
ATOM     19  C   UNL     1      34.287 -15.896 -20.668  0.00  0.00    +0.021 C 
ATOM     20  C   UNL     1      34.637 -15.857 -23.058  0.00  0.00    +0.021 C 
BRANCH  16  21
ATOM     21  S   UNL     1      35.324 -18.161 -21.776  0.00  0.00    +0.057 S 
ATOM     22  O   UNL     1      34.898 -18.766 -20.522  0.00  0.00    -0.153 OA
ATOM     23  O   UNL     1      35.018 -18.820 -23.038  0.00  0.00    -0.153 OA
BRANCH  21  24
ATOM     24  N   UNL     1      37.007 -17.871 -21.703  0.00  0.00    -0.203 NA
ATOM     25  H   UNL     1      37.289 -17.748 -20.731  0.00  0.00    +0.144 HD
ATOM     26  H   UNL     1      37.230 -17.028 -22.232  0.00  0.00    +0.144 HD
ENDBRANCH  21  24
ENDBRANCH  16  21
ENDBRANCH   2  15
TORSDOF 4
ENDMDL
