MODEL 1
REMARK VINA RESULT:      -9.5      0.000      0.000
REMARK  Name = 91885568
REMARK  5 active torsions:
REMARK  status: ('A' for Active; 'I' for Inactive)
REMARK    1  A    between atoms: N_2  and  C_10
REMARK    2  A    between atoms: C_3  and  C_25
REMARK    3  A    between atoms: C_5  and  N_12
REMARK    4  A    between atoms: C_25  and  C_27
REMARK    5  A    between atoms: C_28  and  C_33
REMARK                            x       y       z     vdW  Elec       q    Type
REMARK                         _______ _______ _______ _____ _____    ______ ____
ROOT
ATOM      1  O   UNL     1      36.020 -21.842 -15.349  0.00  0.00    -0.266 OA
ATOM      2  N   UNL     1      34.739 -22.840 -17.081  0.00  0.00    -0.278 N 
ATOM      3  C   UNL     1      35.404 -22.759 -15.863  0.00  0.00    +0.290 C 
ATOM      4  H   UNL     1      34.318 -23.704 -17.291  0.00  0.00    +0.155 HD
ENDROOT
BRANCH   2  10
ATOM      5  C   UNL     1      34.328 -19.832 -19.962  0.00  0.00    +0.048 C 
ATOM      6  C   UNL     1      35.595 -20.180 -19.492  0.00  0.00    +0.016 C 
ATOM      7  C   UNL     1      33.199 -20.488 -19.472  0.00  0.00    +0.016 C 
ATOM      8  C   UNL     1      35.731 -21.182 -18.531  0.00  0.00    +0.016 C 
ATOM      9  C   UNL     1      33.334 -21.490 -18.512  0.00  0.00    +0.016 C 
ATOM     10  C   UNL     1      34.601 -21.837 -18.041  0.00  0.00    +0.051 C 
BRANCH   5  12
ATOM     11  F   UNL     1      33.372 -12.863 -26.616  0.00  0.00    -0.205 F 
ATOM     12  N   UNL     1      34.191 -18.830 -20.918  0.00  0.00    -0.304 N 
ATOM     13  N   UNL     1      33.907 -16.758 -22.896  0.00  0.00    -0.250 N 
ATOM     14  N   UNL     1      33.486 -16.157 -25.107  0.00  0.00    -0.200 NA
ATOM     15  N   UNL     1      33.935 -14.490 -23.425  0.00  0.00    -0.178 NA
ATOM     16  C   UNL     1      33.275 -18.987 -22.049  0.00  0.00    +0.113 C 
ATOM     17  C   UNL     1      34.957 -17.587 -20.824  0.00  0.00    +0.113 C 
ATOM     18  C   UNL     1      34.216 -16.434 -21.504  0.00  0.00    +0.123 C 
ATOM     19  C   UNL     1      33.748 -18.168 -23.252  0.00  0.00    +0.123 C 
ATOM     20  C   UNL     1      33.769 -15.757 -23.853  0.00  0.00    +0.090 C 
ATOM     21  C   UNL     1      33.360 -15.161 -26.009  0.00  0.00    +0.195 C 
ATOM     22  C   UNL     1      33.795 -13.545 -24.378  0.00  0.00    +0.138 C 
ATOM     23  C   UNL     1      33.505 -13.824 -25.698  0.00  0.00    +0.163 C 
ENDBRANCH   5  12
ENDBRANCH   2  10
BRANCH   3  25
ATOM     24  O   UNL     1      35.519 -25.070 -15.736  0.00  0.00    -0.280 OA
ATOM     25  C   UNL     1      35.341 -24.045 -15.096  0.00  0.00    +0.262 C 
BRANCH  25  27
ATOM     26  N   UNL     1      36.075 -24.140 -12.692  0.00  0.00    -0.286 N 
ATOM     27  C   UNL     1      35.088 -24.035 -13.637  0.00  0.00    +0.095 C 
ATOM     28  C   UNL     1      33.883 -23.927 -12.978  0.00  0.00    +0.018 C 
ATOM     29  C   UNL     1      35.519 -24.101 -11.440  0.00  0.00    +0.029 C 
ATOM     30  C   UNL     1      34.157 -23.969 -11.588  0.00  0.00    +0.012 C 
ATOM     31  C   UNL     1      37.490 -24.273 -12.973  0.00  0.00    +0.117 C 
ATOM     32  C   UNL     1      36.334 -24.193 -10.211  0.00  0.00    +0.047 C 
BRANCH  28  33
ATOM     33  C   UNL     1      32.618 -23.800 -13.643  0.00  0.00    +0.001 C 
ATOM     34  C   UNL     1      31.655 -24.800 -13.506  0.00  0.00    +0.000 C 
ATOM     35  C   UNL     1      32.351 -22.678 -14.427  0.00  0.00    +0.000 C 
ATOM     36  C   UNL     1      30.425 -24.678 -14.154  0.00  0.00    +0.000 C 
ATOM     37  C   UNL     1      31.121 -22.555 -15.074  0.00  0.00    +0.000 C 
ATOM     38  C   UNL     1      30.158 -23.555 -14.937  0.00  0.00    +0.000 C 
ENDBRANCH  28  33
ENDBRANCH  25  27
ENDBRANCH   3  25
TORSDOF 5
ENDMDL
MODEL 2
REMARK VINA RESULT:      -9.4      1.402      3.505
REMARK  Name = 91885568
REMARK  5 active torsions:
REMARK  status: ('A' for Active; 'I' for Inactive)
REMARK    1  A    between atoms: N_2  and  C_10
REMARK    2  A    between atoms: C_3  and  C_25
REMARK    3  A    between atoms: C_5  and  N_12
REMARK    4  A    between atoms: C_25  and  C_27
REMARK    5  A    between atoms: C_28  and  C_33
REMARK                            x       y       z     vdW  Elec       q    Type
REMARK                         _______ _______ _______ _____ _____    ______ ____
ROOT
ATOM      1  O   UNL     1      34.950 -22.010 -14.717  0.00  0.00    -0.266 OA
ATOM      2  N   UNL     1      35.144 -23.133 -16.801  0.00  0.00    -0.278 N 
ATOM      3  C   UNL     1      35.118 -22.994 -15.417  0.00  0.00    +0.290 C 
ATOM      4  H   UNL     1      35.312 -24.040 -17.143  0.00  0.00    +0.155 HD
ENDROOT
BRANCH   2  10
ATOM      5  C   UNL     1      34.596 -20.141 -19.674  0.00  0.00    +0.048 C 
ATOM      6  C   UNL     1      35.856 -20.346 -19.112  0.00  0.00    +0.016 C 
ATOM      7  C   UNL     1      33.518 -20.934 -19.279  0.00  0.00    +0.016 C 
ATOM      8  C   UNL     1      36.038 -21.343 -18.153  0.00  0.00    +0.016 C 
ATOM      9  C   UNL     1      33.700 -21.931 -18.321  0.00  0.00    +0.016 C 
ATOM     10  C   UNL     1      34.960 -22.136 -17.758  0.00  0.00    +0.051 C 
BRANCH   5  12
ATOM     11  F   UNL     1      33.320 -13.207 -26.312  0.00  0.00    -0.205 F 
ATOM     12  N   UNL     1      34.413 -19.144 -20.628  0.00  0.00    -0.304 N 
ATOM     13  N   UNL     1      34.034 -17.083 -22.601  0.00  0.00    -0.250 N 
ATOM     14  N   UNL     1      33.386 -16.480 -24.757  0.00  0.00    -0.200 NA
ATOM     15  N   UNL     1      34.157 -14.830 -23.179  0.00  0.00    -0.178 NA
ATOM     16  C   UNL     1      33.355 -19.248 -21.634  0.00  0.00    +0.113 C 
ATOM     17  C   UNL     1      35.271 -17.959 -20.656  0.00  0.00    +0.113 C 
ATOM     18  C   UNL     1      34.535 -16.763 -21.265  0.00  0.00    +0.123 C 
ATOM     19  C   UNL     1      33.731 -18.482 -22.904  0.00  0.00    +0.123 C 
ATOM     20  C   UNL     1      33.850 -16.086 -23.555  0.00  0.00    +0.090 C 
ATOM     21  C   UNL     1      33.220 -15.489 -25.657  0.00  0.00    +0.195 C 
ATOM     22  C   UNL     1      33.968 -13.889 -24.128  0.00  0.00    +0.138 C 
ATOM     23  C   UNL     1      33.497 -14.163 -25.396  0.00  0.00    +0.163 C 
ENDBRANCH   5  12
ENDBRANCH   2  10
BRANCH   3  25
ATOM     24  O   UNL     1      35.219 -25.308 -15.377  0.00  0.00    -0.280 OA
ATOM     25  C   UNL     1      35.359 -24.293 -14.711  0.00  0.00    +0.262 C 
BRANCH  25  27
ATOM     26  N   UNL     1      34.889 -24.089 -12.249  0.00  0.00    -0.286 N 
ATOM     27  C   UNL     1      35.758 -24.308 -13.286  0.00  0.00    +0.095 C 
ATOM     28  C   UNL     1      37.007 -24.530 -12.750  0.00  0.00    +0.018 C 
ATOM     29  C   UNL     1      35.564 -24.166 -11.059  0.00  0.00    +0.029 C 
ATOM     30  C   UNL     1      36.884 -24.440 -11.340  0.00  0.00    +0.012 C 
ATOM     31  C   UNL     1      33.474 -23.815 -12.389  0.00  0.00    +0.117 C 
ATOM     32  C   UNL     1      34.894 -23.973  -9.757  0.00  0.00    +0.047 C 
BRANCH  28  33
ATOM     33  C   UNL     1      38.178 -24.796 -13.536  0.00  0.00    +0.001 C 
ATOM     34  C   UNL     1      39.030 -25.842 -13.185  0.00  0.00    +0.000 C 
ATOM     35  C   UNL     1      38.465 -24.006 -14.650  0.00  0.00    +0.000 C 
ATOM     36  C   UNL     1      40.169 -26.101 -13.948  0.00  0.00    +0.000 C 
ATOM     37  C   UNL     1      39.603 -24.265 -15.413  0.00  0.00    +0.000 C 
ATOM     38  C   UNL     1      40.455 -25.313 -15.062  0.00  0.00    +0.000 C 
ENDBRANCH  28  33
ENDBRANCH  25  27
ENDBRANCH   3  25
TORSDOF 5
ENDMDL
MODEL 3
REMARK VINA RESULT:      -8.2      7.832     16.289
REMARK  Name = 91885568
REMARK  5 active torsions:
REMARK  status: ('A' for Active; 'I' for Inactive)
REMARK    1  A    between atoms: N_2  and  C_10
REMARK    2  A    between atoms: C_3  and  C_25
REMARK    3  A    between atoms: C_5  and  N_12
REMARK    4  A    between atoms: C_25  and  C_27
REMARK    5  A    between atoms: C_28  and  C_33
REMARK                            x       y       z     vdW  Elec       q    Type
REMARK                         _______ _______ _______ _____ _____    ______ ____
ROOT
ATOM      1  O   UNL     1      32.820  -7.077 -22.952  0.00  0.00    -0.266 OA
ATOM      2  N   UNL     1      31.168  -8.641 -23.632  0.00  0.00    -0.278 N 
ATOM      3  C   UNL     1      31.748  -7.392 -23.438  0.00  0.00    +0.290 C 
ATOM      4  H   UNL     1      30.272  -8.646 -24.039  0.00  0.00    +0.155 HD
ENDROOT
BRANCH   2  10
ATOM      5  C   UNL     1      32.796 -12.379 -22.687  0.00  0.00    +0.048 C 
ATOM      6  C   UNL     1      33.255 -11.680 -23.803  0.00  0.00    +0.016 C 
ATOM      7  C   UNL     1      31.794 -11.831 -21.885  0.00  0.00    +0.016 C 
ATOM      8  C   UNL     1      32.711 -10.434 -24.119  0.00  0.00    +0.016 C 
ATOM      9  C   UNL     1      31.251 -10.586 -22.199  0.00  0.00    +0.016 C 
ATOM     10  C   UNL     1      31.710  -9.887 -23.316  0.00  0.00    +0.051 C 
BRANCH   5  12
ATOM     11  F   UNL     1      36.549 -21.034 -20.505  0.00  0.00    -0.205 F 
ATOM     12  N   UNL     1      33.336 -13.623 -22.373  0.00  0.00    -0.304 N 
ATOM     13  N   UNL     1      34.451 -16.196 -21.726  0.00  0.00    -0.250 N 
ATOM     14  N   UNL     1      35.359 -17.631 -20.130  0.00  0.00    -0.200 NA
ATOM     15  N   UNL     1      35.090 -18.324 -22.423  0.00  0.00    -0.178 NA
ATOM     16  C   UNL     1      33.145 -14.216 -21.049  0.00  0.00    +0.113 C 
ATOM     17  C   UNL     1      34.110 -14.379 -23.358  0.00  0.00    +0.113 C 
ATOM     18  C   UNL     1      34.021 -15.883 -23.088  0.00  0.00    +0.123 C 
ATOM     19  C   UNL     1      34.298 -15.161 -20.703  0.00  0.00    +0.123 C 
ATOM     20  C   UNL     1      34.991 -17.440 -21.412  0.00  0.00    +0.090 C 
ATOM     21  C   UNL     1      35.878 -18.848 -19.862  0.00  0.00    +0.195 C 
ATOM     22  C   UNL     1      35.618 -19.519 -22.084  0.00  0.00    +0.138 C 
ATOM     23  C   UNL     1      36.032 -19.840 -20.807  0.00  0.00    +0.163 C 
ENDBRANCH   5  12
ENDBRANCH   2  10
BRANCH   3  25
ATOM     24  O   UNL     1      29.837  -6.602 -24.483  0.00  0.00    -0.280 OA
ATOM     25  C   UNL     1      30.862  -6.277 -23.902  0.00  0.00    +0.262 C 
BRANCH  25  27
ATOM     26  N   UNL     1      30.655  -4.098 -22.663  0.00  0.00    -0.286 N 
ATOM     27  C   UNL     1      31.232  -4.868 -23.639  0.00  0.00    +0.095 C 
ATOM     28  C   UNL     1      32.171  -4.095 -24.286  0.00  0.00    +0.018 C 
ATOM     29  C   UNL     1      31.211  -2.845 -22.676  0.00  0.00    +0.029 C 
ATOM     30  C   UNL     1      32.157  -2.815 -23.676  0.00  0.00    +0.012 C 
ATOM     31  C   UNL     1      29.616  -4.540 -21.755  0.00  0.00    +0.117 C 
ATOM     32  C   UNL     1      30.793  -1.786 -21.735  0.00  0.00    +0.047 C 
BRANCH  28  33
ATOM     33  C   UNL     1      32.979  -4.565 -25.374  0.00  0.00    +0.001 C 
ATOM     34  C   UNL     1      32.381  -4.935 -26.578  0.00  0.00    +0.000 C 
ATOM     35  C   UNL     1      34.364  -4.653 -25.227  0.00  0.00    +0.000 C 
ATOM     36  C   UNL     1      33.167  -5.393 -27.636  0.00  0.00    +0.000 C 
ATOM     37  C   UNL     1      35.150  -5.111 -26.285  0.00  0.00    +0.000 C 
ATOM     38  C   UNL     1      34.551  -5.481 -27.489  0.00  0.00    +0.000 C 
ENDBRANCH  28  33
ENDBRANCH  25  27
ENDBRANCH   3  25
TORSDOF 5
ENDMDL
MODEL 4
REMARK VINA RESULT:      -8.1      8.909     17.050
REMARK  Name = 91885568
REMARK  5 active torsions:
REMARK  status: ('A' for Active; 'I' for Inactive)
REMARK    1  A    between atoms: N_2  and  C_10
REMARK    2  A    between atoms: C_3  and  C_25
REMARK    3  A    between atoms: C_5  and  N_12
REMARK    4  A    between atoms: C_25  and  C_27
REMARK    5  A    between atoms: C_28  and  C_33
REMARK                            x       y       z     vdW  Elec       q    Type
REMARK                         _______ _______ _______ _____ _____    ______ ____
ROOT
ATOM      1  O   UNL     1      34.130  -5.577 -22.907  0.00  0.00    -0.266 OA
ATOM      2  N   UNL     1      31.983  -6.593 -22.922  0.00  0.00    -0.278 N 
ATOM      3  C   UNL     1      32.911  -5.558 -22.889  0.00  0.00    +0.290 C 
ATOM      4  H   UNL     1      31.036  -6.330 -22.883  0.00  0.00    +0.155 HD
ENDROOT
BRANCH   2  10
ATOM      5  C   UNL     1      32.759 -10.698 -23.166  0.00  0.00    +0.048 C 
ATOM      6  C   UNL     1      33.711  -9.781 -23.608  0.00  0.00    +0.016 C 
ATOM      7  C   UNL     1      31.547 -10.247 -22.641  0.00  0.00    +0.016 C 
ATOM      8  C   UNL     1      33.452  -8.412 -23.527  0.00  0.00    +0.016 C 
ATOM      9  C   UNL     1      31.288  -8.880 -22.560  0.00  0.00    +0.016 C 
ATOM     10  C   UNL     1      32.241  -7.962 -23.003  0.00  0.00    +0.051 C 
BRANCH   5  12
ATOM     11  F   UNL     1      34.544 -20.199 -23.737  0.00  0.00    -0.205 F 
ATOM     12  N   UNL     1      33.016 -12.064 -23.248  0.00  0.00    -0.304 N 
ATOM     13  N   UNL     1      33.546 -14.888 -23.418  0.00  0.00    -0.250 N 
ATOM     14  N   UNL     1      34.530 -16.791 -22.503  0.00  0.00    -0.200 NA
ATOM     15  N   UNL     1      33.297 -16.897 -24.570  0.00  0.00    -0.178 NA
ATOM     16  C   UNL     1      33.149 -12.880 -22.041  0.00  0.00    +0.113 C 
ATOM     17  C   UNL     1      33.159 -12.728 -24.544  0.00  0.00    +0.113 C 
ATOM     18  C   UNL     1      32.767 -14.204 -24.450  0.00  0.00    +0.123 C 
ATOM     19  C   UNL     1      34.048 -14.093 -22.298  0.00  0.00    +0.123 C 
ATOM     20  C   UNL     1      33.802 -16.254 -23.500  0.00  0.00    +0.090 C 
ATOM     21  C   UNL     1      34.760 -18.116 -22.614  0.00  0.00    +0.195 C 
ATOM     22  C   UNL     1      33.565 -18.219 -24.618  0.00  0.00    +0.138 C 
ATOM     23  C   UNL     1      34.298 -18.888 -23.660  0.00  0.00    +0.163 C 
ENDBRANCH   5  12
ENDBRANCH   2  10
BRANCH   3  25
ATOM     24  O   UNL     1      32.317  -3.651 -21.715  0.00  0.00    -0.280 OA
ATOM     25  C   UNL     1      32.257  -4.213 -22.798  0.00  0.00    +0.262 C 
BRANCH  25  27
ATOM     26  N   UNL     1      30.398  -2.958 -23.935  0.00  0.00    -0.286 N 
ATOM     27  C   UNL     1      31.597  -3.620 -23.983  0.00  0.00    +0.095 C 
ATOM     28  C   UNL     1      32.028  -3.617 -25.291  0.00  0.00    +0.018 C 
ATOM     29  C   UNL     1      30.056  -2.532 -25.192  0.00  0.00    +0.029 C 
ATOM     30  C   UNL     1      31.053  -2.928 -26.056  0.00  0.00    +0.012 C 
ATOM     31  C   UNL     1      29.610  -2.742 -22.739  0.00  0.00    +0.117 C 
ATOM     32  C   UNL     1      28.811  -1.786 -25.462  0.00  0.00    +0.047 C 
BRANCH  28  33
ATOM     33  C   UNL     1      33.253  -4.222 -25.729  0.00  0.00    +0.001 C 
ATOM     34  C   UNL     1      34.432  -3.476 -25.745  0.00  0.00    +0.000 C 
ATOM     35  C   UNL     1      33.266  -5.555 -26.141  0.00  0.00    +0.000 C 
ATOM     36  C   UNL     1      35.624  -4.063 -26.173  0.00  0.00    +0.000 C 
ATOM     37  C   UNL     1      34.457  -6.142 -26.568  0.00  0.00    +0.000 C 
ATOM     38  C   UNL     1      35.635  -5.396 -26.583  0.00  0.00    +0.000 C 
ENDBRANCH  28  33
ENDBRANCH  25  27
ENDBRANCH   3  25
TORSDOF 5
ENDMDL
MODEL 5
REMARK VINA RESULT:      -7.8      5.787     10.452
REMARK  Name = 91885568
REMARK  5 active torsions:
REMARK  status: ('A' for Active; 'I' for Inactive)
REMARK    1  A    between atoms: N_2  and  C_10
REMARK    2  A    between atoms: C_3  and  C_25
REMARK    3  A    between atoms: C_5  and  N_12
REMARK    4  A    between atoms: C_25  and  C_27
REMARK    5  A    between atoms: C_28  and  C_33
REMARK                            x       y       z     vdW  Elec       q    Type
REMARK                         _______ _______ _______ _____ _____    ______ ____
ROOT
ATOM      1  O   UNL     1      34.193 -15.346 -19.856  0.00  0.00    -0.266 OA
ATOM      2  N   UNL     1      34.054 -14.831 -22.169  0.00  0.00    -0.278 N 
ATOM      3  C   UNL     1      34.303 -15.605 -21.042  0.00  0.00    +0.290 C 
ATOM      4  H   UNL     1      34.232 -15.257 -23.038  0.00  0.00    +0.155 HD
ENDROOT
BRANCH   2  10
ATOM      5  C   UNL     1      32.635 -10.896 -22.299  0.00  0.00    +0.048 C 
ATOM      6  C   UNL     1      33.352 -11.415 -23.377  0.00  0.00    +0.016 C 
ATOM      7  C   UNL     1      32.390 -11.689 -21.178  0.00  0.00    +0.016 C 
ATOM      8  C   UNL     1      33.826 -12.727 -23.333  0.00  0.00    +0.016 C 
ATOM      9  C   UNL     1      32.862 -13.000 -21.134  0.00  0.00    +0.016 C 
ATOM     10  C   UNL     1      33.580 -13.519 -22.212  0.00  0.00    +0.051 C 
BRANCH   5  12
ATOM     11  F   UNL     1      29.367  -1.786 -22.594  0.00  0.00    -0.205 F 
ATOM     12  N   UNL     1      32.165  -9.587 -22.341  0.00  0.00    -0.304 N 
ATOM     13  N   UNL     1      31.194  -6.879 -22.430  0.00  0.00    -0.250 N 
ATOM     14  N   UNL     1      30.252  -5.061 -21.317  0.00  0.00    -0.200 NA
ATOM     15  N   UNL     1      30.789  -4.945 -23.664  0.00  0.00    -0.178 NA
ATOM     16  C   UNL     1      32.274  -8.708 -21.177  0.00  0.00    +0.113 C 
ATOM     17  C   UNL     1      31.548  -9.046 -23.553  0.00  0.00    +0.113 C 
ATOM     18  C   UNL     1      31.726  -7.527 -23.628  0.00  0.00    +0.123 C 
ATOM     19  C   UNL     1      31.170  -7.648 -21.186  0.00  0.00    +0.123 C 
ATOM     20  C   UNL     1      30.724  -5.569 -22.472  0.00  0.00    +0.090 C 
ATOM     21  C   UNL     1      29.805  -3.790 -21.394  0.00  0.00    +0.195 C 
ATOM     22  C   UNL     1      30.325  -3.678 -23.669  0.00  0.00    +0.138 C 
ATOM     23  C   UNL     1      29.817  -3.042 -22.555  0.00  0.00    +0.163 C 
ENDBRANCH   5  12
ENDBRANCH   2  10
BRANCH   3  25
ATOM     24  O   UNL     1      35.830 -17.334 -20.828  0.00  0.00    -0.280 OA
ATOM     25  C   UNL     1      34.808 -16.972 -21.391  0.00  0.00    +0.262 C 
BRANCH  25  27
ATOM     26  N   UNL     1      33.752 -17.416 -23.630  0.00  0.00    -0.286 N 
ATOM     27  C   UNL     1      34.073 -17.816 -22.360  0.00  0.00    +0.095 C 
ATOM     28  C   UNL     1      33.592 -19.095 -22.187  0.00  0.00    +0.018 C 
ATOM     29  C   UNL     1      33.073 -18.418 -24.272  0.00  0.00    +0.029 C 
ATOM     30  C   UNL     1      32.959 -19.476 -23.398  0.00  0.00    +0.012 C 
ATOM     31  C   UNL     1      34.079 -16.128 -24.208  0.00  0.00    +0.117 C 
ATOM     32  C   UNL     1      32.592 -18.282 -25.662  0.00  0.00    +0.047 C 
BRANCH  28  33
ATOM     33  C   UNL     1      33.738 -19.847 -20.974  0.00  0.00    +0.001 C 
ATOM     34  C   UNL     1      35.006 -20.246 -20.550  0.00  0.00    +0.000 C 
ATOM     35  C   UNL     1      32.614 -20.179 -20.217  0.00  0.00    +0.000 C 
ATOM     36  C   UNL     1      35.149 -20.978 -19.371  0.00  0.00    +0.000 C 
ATOM     37  C   UNL     1      32.757 -20.910 -19.038  0.00  0.00    +0.000 C 
ATOM     38  C   UNL     1      34.025 -21.309 -18.615  0.00  0.00    +0.000 C 
ENDBRANCH  28  33
ENDBRANCH  25  27
ENDBRANCH   3  25
TORSDOF 5
ENDMDL
MODEL 6
REMARK VINA RESULT:      -7.5      8.892     17.868
REMARK  Name = 91885568
REMARK  5 active torsions:
REMARK  status: ('A' for Active; 'I' for Inactive)
REMARK    1  A    between atoms: N_2  and  C_10
REMARK    2  A    between atoms: C_3  and  C_25
REMARK    3  A    between atoms: C_5  and  N_12
REMARK    4  A    between atoms: C_25  and  C_27
REMARK    5  A    between atoms: C_28  and  C_33
REMARK                            x       y       z     vdW  Elec       q    Type
REMARK                         _______ _______ _______ _____ _____    ______ ____
ROOT
ATOM      1  O   UNL     1      33.984  -4.740 -23.566  0.00  0.00    -0.266 OA
ATOM      2  N   UNL     1      31.894  -5.849 -23.774  0.00  0.00    -0.278 N 
ATOM      3  C   UNL     1      32.779  -4.777 -23.749  0.00  0.00    +0.290 C 
ATOM      4  H   UNL     1      30.948  -5.629 -23.929  0.00  0.00    +0.155 HD
ENDROOT
BRANCH   2  10
ATOM      5  C   UNL     1      32.788  -9.906 -23.268  0.00  0.00    +0.048 C 
ATOM      6  C   UNL     1      31.459  -9.488 -23.337  0.00  0.00    +0.016 C 
ATOM      7  C   UNL     1      33.819  -8.972 -23.369  0.00  0.00    +0.016 C 
ATOM      8  C   UNL     1      31.162  -8.135 -23.505  0.00  0.00    +0.016 C 
ATOM      9  C   UNL     1      33.523  -7.620 -23.537  0.00  0.00    +0.016 C 
ATOM     10  C   UNL     1      32.193  -7.201 -23.605  0.00  0.00    +0.051 C 
BRANCH   5  12
ATOM     11  F   UNL     1      34.861 -19.291 -22.088  0.00  0.00    -0.205 F 
ATOM     12  N   UNL     1      33.085 -11.255 -23.098  0.00  0.00    -0.304 N 
ATOM     13  N   UNL     1      33.702 -14.045 -22.747  0.00  0.00    -0.250 N 
ATOM     14  N   UNL     1      33.749 -16.202 -23.625  0.00  0.00    -0.200 NA
ATOM     15  N   UNL     1      34.508 -15.752 -21.383  0.00  0.00    -0.178 NA
ATOM     16  C   UNL     1      33.519 -12.080 -24.227  0.00  0.00    +0.113 C 
ATOM     17  C   UNL     1      32.976 -11.892 -21.786  0.00  0.00    +0.113 C 
ATOM     18  C   UNL     1      33.934 -13.081 -21.672  0.00  0.00    +0.123 C 
ATOM     19  C   UNL     1      33.146 -13.548 -24.006  0.00  0.00    +0.123 C 
ATOM     20  C   UNL     1      34.000 -15.394 -22.577  0.00  0.00    +0.090 C 
ATOM     21  C   UNL     1      34.049 -17.503 -23.426  0.00  0.00    +0.195 C 
ATOM     22  C   UNL     1      34.785 -17.066 -21.252  0.00  0.00    +0.138 C 
ATOM     23  C   UNL     1      34.574 -17.996 -22.249  0.00  0.00    +0.163 C 
ENDBRANCH   5  12
ENDBRANCH   2  10
BRANCH   3  25
ATOM     24  O   UNL     1      31.935  -2.760 -22.983  0.00  0.00    -0.280 OA
ATOM     25  C   UNL     1      32.089  -3.466 -23.968  0.00  0.00    +0.262 C 
BRANCH  25  27
ATOM     26  N   UNL     1      30.392  -2.590 -25.605  0.00  0.00    -0.286 N 
ATOM     27  C   UNL     1      31.643  -3.071 -25.324  0.00  0.00    +0.095 C 
ATOM     28  C   UNL     1      32.355  -3.110 -26.503  0.00  0.00    +0.018 C 
ATOM     29  C   UNL     1      30.292  -2.321 -26.944  0.00  0.00    +0.029 C 
ATOM     30  C   UNL     1      31.499  -2.635 -27.528  0.00  0.00    +0.012 C 
ATOM     31  C   UNL     1      29.334  -2.397 -24.634  0.00  0.00    +0.117 C 
ATOM     32  C   UNL     1      29.055  -1.788 -27.553  0.00  0.00    +0.047 C 
BRANCH  28  33
ATOM     33  C   UNL     1      33.713  -3.563 -26.602  0.00  0.00    +0.001 C 
ATOM     34  C   UNL     1      33.983  -4.913 -26.821  0.00  0.00    +0.000 C 
ATOM     35  C   UNL     1      34.763  -2.652 -26.478  0.00  0.00    +0.000 C 
ATOM     36  C   UNL     1      35.304  -5.354 -26.916  0.00  0.00    +0.000 C 
ATOM     37  C   UNL     1      36.083  -3.093 -26.574  0.00  0.00    +0.000 C 
ATOM     38  C   UNL     1      36.353  -4.444 -26.793  0.00  0.00    +0.000 C 
ENDBRANCH  28  33
ENDBRANCH  25  27
ENDBRANCH   3  25
TORSDOF 5
ENDMDL
MODEL 7
REMARK VINA RESULT:      -7.1      1.156      3.225
REMARK  Name = 91885568
REMARK  5 active torsions:
REMARK  status: ('A' for Active; 'I' for Inactive)
REMARK    1  A    between atoms: N_2  and  C_10
REMARK    2  A    between atoms: C_3  and  C_25
REMARK    3  A    between atoms: C_5  and  N_12
REMARK    4  A    between atoms: C_25  and  C_27
REMARK    5  A    between atoms: C_28  and  C_33
REMARK                            x       y       z     vdW  Elec       q    Type
REMARK                         _______ _______ _______ _____ _____    ______ ____
ROOT
ATOM      1  O   UNL     1      35.418 -21.463 -15.653  0.00  0.00    -0.266 OA
ATOM      2  N   UNL     1      34.446 -22.487 -17.562  0.00  0.00    -0.278 N 
ATOM      3  C   UNL     1      34.951 -22.405 -16.270  0.00  0.00    +0.290 C 
ATOM      4  H   UNL     1      34.132 -23.373 -17.851  0.00  0.00    +0.155 HD
ENDROOT
BRANCH   2  10
ATOM      5  C   UNL     1      34.112 -19.398 -20.366  0.00  0.00    +0.048 C 
ATOM      6  C   UNL     1      35.372 -19.825 -19.945  0.00  0.00    +0.016 C 
ATOM      7  C   UNL     1      32.964 -20.002 -19.854  0.00  0.00    +0.016 C 
ATOM      8  C   UNL     1      35.482 -20.854 -19.009  0.00  0.00    +0.016 C 
ATOM      9  C   UNL     1      33.074 -21.031 -18.919  0.00  0.00    +0.016 C 
ATOM     10  C   UNL     1      34.334 -21.457 -18.497  0.00  0.00    +0.051 C 
BRANCH   5  12
ATOM     11  F   UNL     1      33.335 -12.244 -26.846  0.00  0.00    -0.205 F 
ATOM     12  N   UNL     1      34.001 -18.370 -21.298  0.00  0.00    -0.304 N 
ATOM     13  N   UNL     1      33.770 -16.243 -23.223  0.00  0.00    -0.250 N 
ATOM     14  N   UNL     1      33.589 -15.579 -25.450  0.00  0.00    -0.200 NA
ATOM     15  N   UNL     1      33.632 -13.960 -23.665  0.00  0.00    -0.178 NA
ATOM     16  C   UNL     1      33.266 -18.561 -22.549  0.00  0.00    +0.113 C 
ATOM     17  C   UNL     1      34.614 -17.064 -21.056  0.00  0.00    +0.113 C 
ATOM     18  C   UNL     1      33.854 -15.957 -21.792  0.00  0.00    +0.123 C 
ATOM     19  C   UNL     1      33.807 -17.643 -23.647  0.00  0.00    +0.123 C 
ATOM     20  C   UNL     1      33.658 -15.214 -24.155  0.00  0.00    +0.090 C 
ATOM     21  C   UNL     1      33.482 -14.558 -26.325  0.00  0.00    +0.195 C 
ATOM     22  C   UNL     1      33.523 -12.988 -24.595  0.00  0.00    +0.138 C 
ATOM     23  C   UNL     1      33.443 -13.230 -25.952  0.00  0.00    +0.163 C 
ENDBRANCH   5  12
ENDBRANCH   2  10
BRANCH   3  25
ATOM     24  O   UNL     1      35.690 -24.579 -15.958  0.00  0.00    -0.280 OA
ATOM     25  C   UNL     1      34.913 -23.724 -15.561  0.00  0.00    +0.262 C 
BRANCH  25  27
ATOM     26  N   UNL     1      32.617 -23.995 -14.569  0.00  0.00    -0.286 N 
ATOM     27  C   UNL     1      33.979 -23.941 -14.432  0.00  0.00    +0.095 C 
ATOM     28  C   UNL     1      34.276 -24.117 -13.098  0.00  0.00    +0.018 C 
ATOM     29  C   UNL     1      32.039 -24.204 -13.344  0.00  0.00    +0.029 C 
ATOM     30  C   UNL     1      33.048 -24.284 -12.411  0.00  0.00    +0.012 C 
ATOM     31  C   UNL     1      31.897 -23.853 -15.818  0.00  0.00    +0.117 C 
ATOM     32  C   UNL     1      30.576 -24.309 -13.169  0.00  0.00    +0.047 C 
BRANCH  28  33
ATOM     33  C   UNL     1      35.611 -24.119 -12.571  0.00  0.00    +0.001 C 
ATOM     34  C   UNL     1      36.165 -22.940 -12.074  0.00  0.00    +0.000 C 
ATOM     35  C   UNL     1      36.354 -25.300 -12.556  0.00  0.00    +0.000 C 
ATOM     36  C   UNL     1      37.464 -22.941 -11.562  0.00  0.00    +0.000 C 
ATOM     37  C   UNL     1      37.651 -25.301 -12.044  0.00  0.00    +0.000 C 
ATOM     38  C   UNL     1      38.206 -24.121 -11.546  0.00  0.00    +0.000 C 
ENDBRANCH  28  33
ENDBRANCH  25  27
ENDBRANCH   3  25
TORSDOF 5
ENDMDL
MODEL 8
REMARK VINA RESULT:      -6.8      7.210     15.359
REMARK  Name = 91885568
REMARK  5 active torsions:
REMARK  status: ('A' for Active; 'I' for Inactive)
REMARK    1  A    between atoms: N_2  and  C_10
REMARK    2  A    between atoms: C_3  and  C_25
REMARK    3  A    between atoms: C_5  and  N_12
REMARK    4  A    between atoms: C_25  and  C_27
REMARK    5  A    between atoms: C_28  and  C_33
REMARK                            x       y       z     vdW  Elec       q    Type
REMARK                         _______ _______ _______ _____ _____    ______ ____
ROOT
ATOM      1  O   UNL     1      30.124  -8.577 -22.919  0.00  0.00    -0.266 OA
ATOM      2  N   UNL     1      32.126  -9.014 -24.119  0.00  0.00    -0.278 N 
ATOM      3  C   UNL     1      31.020  -8.288 -23.693  0.00  0.00    +0.290 C 
ATOM      4  H   UNL     1      32.714  -8.569 -24.771  0.00  0.00    +0.155 HD
ENDROOT
BRANCH   2  10
ATOM      5  C   UNL     1      33.246 -12.873 -22.952  0.00  0.00    +0.048 C 
ATOM      6  C   UNL     1      33.469 -12.448 -24.262  0.00  0.00    +0.016 C 
ATOM      7  C   UNL     1      32.651 -12.011 -22.031  0.00  0.00    +0.016 C 
ATOM      8  C   UNL     1      33.095 -11.161 -24.650  0.00  0.00    +0.016 C 
ATOM      9  C   UNL     1      32.277 -10.725 -22.419  0.00  0.00    +0.016 C 
ATOM     10  C   UNL     1      32.499 -10.300 -23.729  0.00  0.00    +0.051 C 
BRANCH   5  12
ATOM     11  F   UNL     1      35.824 -21.809 -20.253  0.00  0.00    -0.205 F 
ATOM     12  N   UNL     1      33.618 -14.158 -22.564  0.00  0.00    -0.304 N 
ATOM     13  N   UNL     1      34.383 -16.814 -21.763  0.00  0.00    -0.250 N 
ATOM     14  N   UNL     1      35.275 -18.227 -20.140  0.00  0.00    -0.200 NA
ATOM     15  N   UNL     1      34.553 -19.080 -22.275  0.00  0.00    -0.178 NA
ATOM     16  C   UNL     1      33.536 -14.576 -21.164  0.00  0.00    +0.113 C 
ATOM     17  C   UNL     1      34.099 -15.132 -23.544  0.00  0.00    +0.113 C 
ATOM     18  C   UNL     1      33.808 -16.562 -23.083  0.00  0.00    +0.123 C 
ATOM     19  C   UNL     1      34.558 -15.674 -20.862  0.00  0.00    +0.123 C 
ATOM     20  C   UNL     1      34.753 -18.098 -21.375  0.00  0.00    +0.090 C 
ATOM     21  C   UNL     1      35.624 -19.485 -19.796  0.00  0.00    +0.195 C 
ATOM     22  C   UNL     1      34.923 -20.311 -21.866  0.00  0.00    +0.138 C 
ATOM     23  C   UNL     1      35.469 -20.576 -20.627  0.00  0.00    +0.163 C 
ENDBRANCH   5  12
ENDBRANCH   2  10
BRANCH   3  25
ATOM     24  O   UNL     1      29.844  -6.572 -24.714  0.00  0.00    -0.280 OA
ATOM     25  C   UNL     1      30.947  -6.935 -24.335  0.00  0.00    +0.262 C 
BRANCH  25  27
ATOM     26  N   UNL     1      32.759  -5.816 -25.672  0.00  0.00    -0.286 N 
ATOM     27  C   UNL     1      32.165  -6.105 -24.471  0.00  0.00    +0.095 C 
ATOM     28  C   UNL     1      32.901  -5.495 -23.479  0.00  0.00    +0.018 C 
ATOM     29  C   UNL     1      33.863  -5.032 -25.462  0.00  0.00    +0.029 C 
ATOM     30  C   UNL     1      33.975  -4.816 -24.106  0.00  0.00    +0.012 C 
ATOM     31  C   UNL     1      32.293  -6.270 -26.965  0.00  0.00    +0.117 C 
ATOM     32  C   UNL     1      34.716  -4.555 -26.570  0.00  0.00    +0.047 C 
BRANCH  28  33
ATOM     33  C   UNL     1      32.580  -5.577 -22.083  0.00  0.00    +0.001 C 
ATOM     34  C   UNL     1      31.727  -4.636 -21.507  0.00  0.00    +0.000 C 
ATOM     35  C   UNL     1      33.122  -6.597 -21.300  0.00  0.00    +0.000 C 
ATOM     36  C   UNL     1      31.415  -4.713 -20.149  0.00  0.00    +0.000 C 
ATOM     37  C   UNL     1      32.811  -6.675 -19.943  0.00  0.00    +0.000 C 
ATOM     38  C   UNL     1      31.957  -5.733 -19.368  0.00  0.00    +0.000 C 
ENDBRANCH  28  33
ENDBRANCH  25  27
ENDBRANCH   3  25
TORSDOF 5
ENDMDL
