MODEL 1
REMARK VINA RESULT:     -12.1      0.000      0.000
REMARK  Name = 58507717
REMARK  2 active torsions:
REMARK  status: ('A' for Active; 'I' for Inactive)
REMARK    1  A    between atoms: C_18  and  C_21
REMARK    2  A    between atoms: C_22  and  C_31
REMARK                            x       y       z     vdW  Elec       q    Type
REMARK                         _______ _______ _______ _____ _____    ______ ____
ROOT
ATOM      1  O   UNL     1      29.172 -23.500 -13.240  0.00  0.00    -0.350 OA
ATOM      2  O   UNL     1      38.412 -25.697 -12.697  0.00  0.00    -0.350 OA
ATOM      3  N   UNL     1      31.721 -23.534 -14.424  0.00  0.00    -0.228 N 
ATOM      4  N   UNL     1      36.250 -24.623 -14.136  0.00  0.00    -0.228 N 
ATOM      5  N   UNL     1      33.979 -24.099 -14.247  0.00  0.00    -0.246 NA
ATOM      6  N   UNL     1      35.518 -23.275 -15.893  0.00  0.00    -0.260 NA
ATOM      7  N   UNL     1      33.189 -22.715 -16.042  0.00  0.00    -0.260 NA
ATOM      8  C   UNL     1      31.457 -24.312 -13.209  0.00  0.00    +0.135 C 
ATOM      9  C   UNL     1      30.811 -22.402 -14.651  0.00  0.00    +0.135 C 
ATOM     10  C   UNL     1      37.614 -24.527 -14.666  0.00  0.00    +0.135 C 
ATOM     11  C   UNL     1      36.156 -24.806 -12.681  0.00  0.00    +0.135 C 
ATOM     12  C   UNL     1      29.978 -24.672 -13.138  0.00  0.00    +0.164 C 
ATOM     13  C   UNL     1      29.366 -22.865 -14.504  0.00  0.00    +0.164 C 
ATOM     14  C   UNL     1      37.080 -25.938 -12.244  0.00  0.00    +0.164 C 
ATOM     15  C   UNL     1      38.461 -25.673 -14.123  0.00  0.00    +0.164 C 
ATOM     16  C   UNL     1      33.022 -23.446 -14.928  0.00  0.00    +0.224 C 
ATOM     17  C   UNL     1      35.200 -23.968 -14.789  0.00  0.00    +0.224 C 
ATOM     18  C   UNL     1      34.462 -22.674 -16.466  0.00  0.00    +0.164 C 
ENDROOT
BRANCH  18  21
ATOM     19  N   UNL     1      34.005 -21.279 -19.878  0.00  0.00    -0.229 NA
ATOM     20  N   UNL     1      35.335 -19.772 -21.157  0.00  0.00    -0.343 N 
ATOM     21  C   UNL     1      34.723 -21.908 -17.658  0.00  0.00    +0.110 C 
ATOM     22  C   UNL     1      35.850 -21.104 -17.786  0.00  0.00    +0.087 C 
ATOM     23  C   UNL     1      33.839 -21.962 -18.723  0.00  0.00    +0.112 C 
ATOM     24  C   UNL     1      36.055 -20.387 -18.959  0.00  0.00    +0.038 C 
ATOM     25  C   UNL     1      35.111 -20.507 -19.967  0.00  0.00    +0.125 C 
ATOM     26  H   UNL     1      34.690 -19.828 -21.898  0.00  0.00    +0.144 HD
ATOM     27  H   UNL     1      36.135 -19.205 -21.242  0.00  0.00    +0.144 HD
BRANCH  22  31
ATOM     28  F   UNL     1      37.652 -19.889 -16.821  0.00  0.00    -0.166 F 
ATOM     29  F   UNL     1      36.301 -20.895 -15.446  0.00  0.00    -0.166 F 
ATOM     30  F   UNL     1      37.710 -22.052 -16.620  0.00  0.00    -0.166 F 
ATOM     31  C   UNL     1      36.858 -20.990 -16.688  0.00  0.00    +0.419 C 
ENDBRANCH  22  31
ENDBRANCH  18  21
TORSDOF 2
ENDMDL
MODEL 2
REMARK VINA RESULT:     -11.5      2.396      6.290
REMARK  Name = 58507717
REMARK  2 active torsions:
REMARK  status: ('A' for Active; 'I' for Inactive)
REMARK    1  A    between atoms: C_18  and  C_21
REMARK    2  A    between atoms: C_22  and  C_31
REMARK                            x       y       z     vdW  Elec       q    Type
REMARK                         _______ _______ _______ _____ _____    ______ ____
ROOT
ATOM      1  O   UNL     1      34.524 -20.128 -20.125  0.00  0.00    -0.350 OA
ATOM      2  O   UNL     1      29.515 -23.806 -12.922  0.00  0.00    -0.350 OA
ATOM      3  N   UNL     1      34.386 -21.855 -17.912  0.00  0.00    -0.228 N 
ATOM      4  N   UNL     1      31.909 -23.648 -14.386  0.00  0.00    -0.228 N 
ATOM      5  N   UNL     1      33.115 -22.736 -16.163  0.00  0.00    -0.246 NA
ATOM      6  N   UNL     1      34.209 -24.028 -14.464  0.00  0.00    -0.260 NA
ATOM      7  N   UNL     1      35.484 -23.107 -16.277  0.00  0.00    -0.260 NA
ATOM      8  C   UNL     1      33.164 -21.266 -18.470  0.00  0.00    +0.135 C 
ATOM      9  C   UNL     1      35.625 -21.119 -18.204  0.00  0.00    +0.135 C 
ATOM     10  C   UNL     1      31.849 -24.429 -13.146  0.00  0.00    +0.135 C 
ATOM     11  C   UNL     1      30.889 -22.597 -14.513  0.00  0.00    +0.135 C 
ATOM     12  C   UNL     1      33.372 -20.951 -19.946  0.00  0.00    +0.164 C 
ATOM     13  C   UNL     1      35.701 -20.812 -19.695  0.00  0.00    +0.164 C 
ATOM     14  C   UNL     1      29.513 -23.175 -14.203  0.00  0.00    +0.164 C 
ATOM     15  C   UNL     1      30.421 -24.908 -12.907  0.00  0.00    +0.164 C 
ATOM     16  C   UNL     1      34.325 -22.600 -16.730  0.00  0.00    +0.224 C 
ATOM     17  C   UNL     1      33.134 -23.462 -15.034  0.00  0.00    +0.224 C 
ATOM     18  C   UNL     1      35.349 -23.809 -15.140  0.00  0.00    +0.164 C 
ENDROOT
BRANCH  18  21
ATOM     19  N   UNL     1      38.154 -26.190 -14.637  0.00  0.00    -0.229 NA
ATOM     20  N   UNL     1      39.980 -26.175 -13.107  0.00  0.00    -0.343 N 
ATOM     21  C   UNL     1      36.548 -24.384 -14.589  0.00  0.00    +0.110 C 
ATOM     22  C   UNL     1      37.245 -23.782 -13.548  0.00  0.00    +0.087 C 
ATOM     23  C   UNL     1      37.039 -25.577 -15.094  0.00  0.00    +0.112 C 
ATOM     24  C   UNL     1      38.397 -24.382 -13.051  0.00  0.00    +0.038 C 
ATOM     25  C   UNL     1      38.806 -25.575 -13.625  0.00  0.00    +0.125 C 
ATOM     26  H   UNL     1      40.307 -27.023 -13.485  0.00  0.00    +0.144 HD
ATOM     27  H   UNL     1      40.469 -25.745 -12.369  0.00  0.00    +0.144 HD
BRANCH  22  31
ATOM     28  F   UNL     1      36.776 -21.468 -13.836  0.00  0.00    -0.166 F 
ATOM     29  F   UNL     1      35.519 -22.556 -12.435  0.00  0.00    -0.166 F 
ATOM     30  F   UNL     1      37.566 -22.074 -11.904  0.00  0.00    -0.166 F 
ATOM     31  C   UNL     1      36.785 -22.496 -12.940  0.00  0.00    +0.419 C 
ENDBRANCH  22  31
ENDBRANCH  18  21
TORSDOF 2
ENDMDL
MODEL 3
REMARK VINA RESULT:     -10.6      2.417      6.419
REMARK  Name = 58507717
REMARK  2 active torsions:
REMARK  status: ('A' for Active; 'I' for Inactive)
REMARK    1  A    between atoms: C_18  and  C_21
REMARK    2  A    between atoms: C_22  and  C_31
REMARK                            x       y       z     vdW  Elec       q    Type
REMARK                         _______ _______ _______ _____ _____    ______ ____
ROOT
ATOM      1  O   UNL     1      34.245 -19.729 -20.492  0.00  0.00    -0.350 OA
ATOM      2  O   UNL     1      28.445 -23.875 -14.193  0.00  0.00    -0.350 OA
ATOM      3  N   UNL     1      33.860 -21.594 -18.425  0.00  0.00    -0.228 N 
ATOM      4  N   UNL     1      30.996 -23.616 -15.345  0.00  0.00    -0.228 N 
ATOM      5  N   UNL     1      32.397 -22.589 -16.902  0.00  0.00    -0.246 NA
ATOM      6  N   UNL     1      33.293 -23.983 -15.167  0.00  0.00    -0.260 NA
ATOM      7  N   UNL     1      34.766 -22.945 -16.751  0.00  0.00    -0.260 NA
ATOM      8  C   UNL     1      32.708 -20.975 -19.088  0.00  0.00    +0.135 C 
ATOM      9  C   UNL     1      35.117 -20.837 -18.518  0.00  0.00    +0.135 C 
ATOM     10  C   UNL     1      30.796 -24.475 -14.172  0.00  0.00    +0.135 C 
ATOM     11  C   UNL     1      29.988 -22.563 -15.528  0.00  0.00    +0.135 C 
ATOM     12  C   UNL     1      33.089 -20.565 -20.506  0.00  0.00    +0.164 C 
ATOM     13  C   UNL     1      35.369 -20.436 -19.967  0.00  0.00    +0.164 C 
ATOM     14  C   UNL     1      28.590 -23.164 -15.423  0.00  0.00    +0.164 C 
ATOM     15  C   UNL     1      29.355 -24.973 -14.138  0.00  0.00    +0.164 C 
ATOM     16  C   UNL     1      33.665 -22.414 -17.308  0.00  0.00    +0.224 C 
ATOM     17  C   UNL     1      32.288 -23.385 -15.827  0.00  0.00    +0.224 C 
ATOM     18  C   UNL     1      34.503 -23.717 -15.686  0.00  0.00    +0.164 C 
ENDROOT
BRANCH  18  21
ATOM     19  N   UNL     1      36.840 -26.349 -14.500  0.00  0.00    -0.229 NA
ATOM     20  N   UNL     1      38.827 -26.220 -13.192  0.00  0.00    -0.343 N 
ATOM     21  C   UNL     1      35.633 -24.323 -15.031  0.00  0.00    +0.110 C 
ATOM     22  C   UNL     1      36.570 -23.572 -14.329  0.00  0.00    +0.087 C 
ATOM     23  C   UNL     1      35.812 -25.696 -15.085  0.00  0.00    +0.112 C 
ATOM     24  C   UNL     1      37.641 -24.209 -13.712  0.00  0.00    +0.038 C 
ATOM     25  C   UNL     1      37.731 -25.587 -13.827  0.00  0.00    +0.125 C 
ATOM     26  H   UNL     1      38.930 -27.198 -13.247  0.00  0.00    +0.144 HD
ATOM     27  H   UNL     1      39.487 -25.684 -12.696  0.00  0.00    +0.144 HD
BRANCH  22  31
ATOM     28  F   UNL     1      37.046 -21.602 -13.085  0.00  0.00    -0.166 F 
ATOM     29  F   UNL     1      37.032 -21.415 -15.251  0.00  0.00    -0.166 F 
ATOM     30  F   UNL     1      35.164 -21.643 -14.173  0.00  0.00    -0.166 F 
ATOM     31  C   UNL     1      36.453 -22.086 -14.214  0.00  0.00    +0.419 C 
ENDBRANCH  22  31
ENDBRANCH  18  21
TORSDOF 2
ENDMDL
MODEL 4
REMARK VINA RESULT:     -10.1      2.784      7.095
REMARK  Name = 58507717
REMARK  2 active torsions:
REMARK  status: ('A' for Active; 'I' for Inactive)
REMARK    1  A    between atoms: C_18  and  C_21
REMARK    2  A    between atoms: C_22  and  C_31
REMARK                            x       y       z     vdW  Elec       q    Type
REMARK                         _______ _______ _______ _____ _____    ______ ____
ROOT
ATOM      1  O   UNL     1      35.263 -20.760 -19.891  0.00  0.00    -0.350 OA
ATOM      2  O   UNL     1      27.519 -23.762 -15.253  0.00  0.00    -0.350 OA
ATOM      3  N   UNL     1      34.129 -22.074 -17.681  0.00  0.00    -0.228 N 
ATOM      4  N   UNL     1      30.315 -23.540 -15.424  0.00  0.00    -0.228 N 
ATOM      5  N   UNL     1      32.200 -22.798 -16.583  0.00  0.00    -0.246 NA
ATOM      6  N   UNL     1      32.376 -23.612 -14.333  0.00  0.00    -0.260 NA
ATOM      7  N   UNL     1      34.338 -22.859 -15.493  0.00  0.00    -0.260 NA
ATOM      8  C   UNL     1      33.312 -21.764 -18.858  0.00  0.00    +0.135 C 
ATOM      9  C   UNL     1      35.328 -21.240 -17.514  0.00  0.00    +0.135 C 
ATOM     10  C   UNL     1      29.689 -24.091 -14.218  0.00  0.00    +0.135 C 
ATOM     11  C   UNL     1      29.450 -22.676 -16.239  0.00  0.00    +0.135 C 
ATOM     12  C   UNL     1      34.198 -21.687 -20.096  0.00  0.00    +0.164 C 
ATOM     13  C   UNL     1      36.107 -21.192 -18.823  0.00  0.00    +0.164 C 
ATOM     14  C   UNL     1      28.117 -23.372 -16.489  0.00  0.00    +0.164 C 
ATOM     15  C   UNL     1      28.342 -24.711 -14.575  0.00  0.00    +0.164 C 
ATOM     16  C   UNL     1      33.528 -22.602 -16.534  0.00  0.00    +0.224 C 
ATOM     17  C   UNL     1      31.694 -23.306 -15.448  0.00  0.00    +0.224 C 
ATOM     18  C   UNL     1      33.693 -23.362 -14.429  0.00  0.00    +0.164 C 
ENDROOT
BRANCH  18  21
ATOM     19  N   UNL     1      34.866 -23.336 -10.905  0.00  0.00    -0.229 NA
ATOM     20  N   UNL     1      36.700 -24.426  -9.846  0.00  0.00    -0.343 N 
ATOM     21  C   UNL     1      34.493 -23.664 -13.271  0.00  0.00    +0.110 C 
ATOM     22  C   UNL     1      35.600 -24.503 -13.336  0.00  0.00    +0.087 C 
ATOM     23  C   UNL     1      34.171 -23.110 -12.043  0.00  0.00    +0.112 C 
ATOM     24  C   UNL     1      36.340 -24.759 -12.187  0.00  0.00    +0.038 C 
ATOM     25  C   UNL     1      35.935 -24.157 -11.007  0.00  0.00    +0.125 C 
ATOM     26  H   UNL     1      36.448 -24.019  -8.985  0.00  0.00    +0.144 HD
ATOM     27  H   UNL     1      37.483 -25.020  -9.898  0.00  0.00    +0.144 HD
BRANCH  22  31
ATOM     28  F   UNL     1      36.625 -24.258 -15.468  0.00  0.00    -0.166 F 
ATOM     29  F   UNL     1      36.915 -26.159 -14.454  0.00  0.00    -0.166 F 
ATOM     30  F   UNL     1      34.988 -25.681 -15.326  0.00  0.00    -0.166 F 
ATOM     31  C   UNL     1      36.023 -25.141 -14.621  0.00  0.00    +0.419 C 
ENDBRANCH  22  31
ENDBRANCH  18  21
TORSDOF 2
ENDMDL
MODEL 5
REMARK VINA RESULT:      -9.2      2.833      6.549
REMARK  Name = 58507717
REMARK  2 active torsions:
REMARK  status: ('A' for Active; 'I' for Inactive)
REMARK    1  A    between atoms: C_18  and  C_21
REMARK    2  A    between atoms: C_22  and  C_31
REMARK                            x       y       z     vdW  Elec       q    Type
REMARK                         _______ _______ _______ _____ _____    ______ ____
ROOT
ATOM      1  O   UNL     1      34.572 -20.053 -20.292  0.00  0.00    -0.350 OA
ATOM      2  O   UNL     1      29.747 -23.568 -12.884  0.00  0.00    -0.350 OA
ATOM      3  N   UNL     1      34.490 -21.730 -18.039  0.00  0.00    -0.228 N 
ATOM      4  N   UNL     1      32.102 -23.443 -14.413  0.00  0.00    -0.228 N 
ATOM      5  N   UNL     1      33.263 -22.572 -16.239  0.00  0.00    -0.246 NA
ATOM      6  N   UNL     1      34.400 -23.827 -14.540  0.00  0.00    -0.260 NA
ATOM      7  N   UNL     1      35.628 -22.947 -16.405  0.00  0.00    -0.260 NA
ATOM      8  C   UNL     1      33.254 -21.153 -18.578  0.00  0.00    +0.135 C 
ATOM      9  C   UNL     1      35.721 -21.002 -18.379  0.00  0.00    +0.135 C 
ATOM     10  C   UNL     1      32.074 -24.197 -13.154  0.00  0.00    +0.135 C 
ATOM     11  C   UNL     1      31.081 -22.395 -14.537  0.00  0.00    +0.135 C 
ATOM     12  C   UNL     1      33.424 -20.870 -20.066  0.00  0.00    +0.164 C 
ATOM     13  C   UNL     1      35.759 -20.728 -19.877  0.00  0.00    +0.164 C 
ATOM     14  C   UNL     1      29.713 -22.965 -14.179  0.00  0.00    +0.164 C 
ATOM     15  C   UNL     1      30.653 -24.670 -12.869  0.00  0.00    +0.164 C 
ATOM     16  C   UNL     1      34.459 -22.450 -16.840  0.00  0.00    +0.224 C 
ATOM     17  C   UNL     1      33.311 -23.273 -15.095  0.00  0.00    +0.224 C 
ATOM     18  C   UNL     1      35.522 -23.624 -15.250  0.00  0.00    +0.164 C 
ENDROOT
BRANCH  18  21
ATOM     19  N   UNL     1      38.879 -23.801 -13.671  0.00  0.00    -0.229 NA
ATOM     20  N   UNL     1      40.283 -25.655 -13.154  0.00  0.00    -0.343 N 
ATOM     21  C   UNL     1      36.735 -24.188 -14.717  0.00  0.00    +0.110 C 
ATOM     22  C   UNL     1      36.972 -25.558 -14.714  0.00  0.00    +0.087 C 
ATOM     23  C   UNL     1      37.711 -23.360 -14.190  0.00  0.00    +0.112 C 
ATOM     24  C   UNL     1      38.162 -26.050 -14.189  0.00  0.00    +0.038 C 
ATOM     25  C   UNL     1      39.075 -25.138 -13.684  0.00  0.00    +0.125 C 
ATOM     26  H   UNL     1      40.960 -25.043 -12.785  0.00  0.00    +0.144 HD
ATOM     27  H   UNL     1      40.446 -26.626 -13.155  0.00  0.00    +0.144 HD
BRANCH  22  31
ATOM     28  F   UNL     1      35.599 -27.466 -14.353  0.00  0.00    -0.166 F 
ATOM     29  F   UNL     1      34.820 -25.935 -15.686  0.00  0.00    -0.166 F 
ATOM     30  F   UNL     1      36.436 -27.223 -16.345  0.00  0.00    -0.166 F 
ATOM     31  C   UNL     1      35.976 -26.526 -15.267  0.00  0.00    +0.419 C 
ENDBRANCH  22  31
ENDBRANCH  18  21
TORSDOF 2
ENDMDL
