MODEL 1
REMARK VINA RESULT:     -12.3      0.000      0.000
REMARK  Name = 9865528
REMARK  10 active torsions:
REMARK  status: ('A' for Active; 'I' for Inactive)
REMARK    1  A    between atoms: C_1  and  C_20
REMARK    2  A    between atoms: C_4  and  N_8
REMARK    3  A    between atoms: C_9  and  C_11
REMARK    4  A    between atoms: C_11  and  C_15
REMARK    5  A    between atoms: C_20  and  C_21
REMARK    6  A    between atoms: C_21  and  N_22
REMARK    7  A    between atoms: N_22  and  C_25
REMARK    8  A    between atoms: C_25  and  C_26
REMARK    9  A    between atoms: C_26  and  C_27
REMARK   10  A    between atoms: C_26  and  O_33
REMARK                            x       y       z     vdW  Elec       q    Type
REMARK                         _______ _______ _______ _____ _____    ______ ____
ROOT
ATOM      1  C   UNL     1      33.724 -21.685 -18.319  0.00  0.00    -0.024 C 
ATOM      2  C   UNL     1      35.019 -21.409 -18.759  0.00  0.00    -0.003 C 
ATOM      3  C   UNL     1      32.631 -21.097 -18.955  0.00  0.00    -0.003 C 
ATOM      4  C   UNL     1      34.128 -19.954 -20.469  0.00  0.00    +0.050 C 
ATOM      5  C   UNL     1      35.220 -20.543 -19.833  0.00  0.00    +0.014 C 
ATOM      6  C   UNL     1      32.833 -20.231 -20.030  0.00  0.00    +0.014 C 
ENDROOT
BRANCH   4   8
ATOM      7  O   UNL     1      35.273 -17.182 -20.541  0.00  0.00    -0.274 OA
ATOM      8  N   UNL     1      34.329 -19.088 -21.545  0.00  0.00    -0.284 N 
ATOM      9  C   UNL     1      34.873 -17.793 -21.528  0.00  0.00    +0.233 C 
ATOM     10  H   UNL     1      34.055 -19.428 -22.428  0.00  0.00    +0.155 HD
BRANCH   9  11
ATOM     11  C   UNL     1      34.911 -17.197 -22.928  0.00  0.00    +0.141 C 
BRANCH  11  15
ATOM     12  S   UNL     1      33.320 -13.551 -22.503  0.00  0.00    -0.060 S 
ATOM     13  N   UNL     1      33.695 -15.464 -24.202  0.00  0.00    -0.389 NA
ATOM     14  N   UNL     1      32.542 -13.580 -25.046  0.00  0.00    -0.328 N 
ATOM     15  C   UNL     1      34.254 -15.856 -23.002  0.00  0.00    +0.109 C 
ATOM     16  C   UNL     1      34.150 -14.952 -21.965  0.00  0.00    +0.121 C 
ATOM     17  C   UNL     1      33.174 -14.265 -24.056  0.00  0.00    +0.204 C 
ATOM     18  H   UNL     1      32.174 -12.684 -24.867  0.00  0.00    +0.145 HD
ATOM     19  H   UNL     1      32.452 -13.980 -25.942  0.00  0.00    +0.145 HD
ENDBRANCH  11  15
ENDBRANCH   9  11
ENDBRANCH   4   8
BRANCH   1  20
ATOM     20  C   UNL     1      33.508 -22.611 -17.170  0.00  0.00    +0.003 C 
BRANCH  20  21
ATOM     21  C   UNL     1      34.574 -22.437 -16.080  0.00  0.00    -0.077 C 
BRANCH  21  22
ATOM     22  N   UNL     1      33.996 -22.534 -14.744  0.00  0.00    +0.386 N 
ATOM     23  H   UNL     1      33.351 -21.757 -14.602  0.00  0.00    -0.084 HD
ATOM     24  H   UNL     1      34.751 -22.500 -14.059  0.00  0.00    -0.084 HD
BRANCH  22  25
ATOM     25  C   UNL     1      33.275 -23.788 -14.580  0.00  0.00    -0.047 C 
BRANCH  25  26
ATOM     26  C   UNL     1      32.149 -23.640 -13.550  0.00  0.00    +0.112 C 
BRANCH  26  27
ATOM     27  C   UNL     1      30.787 -23.688 -14.207  0.00  0.00    +0.002 C 
ATOM     28  C   UNL     1      29.921 -24.749 -13.939  0.00  0.00    -0.002 C 
ATOM     29  C   UNL     1      30.397 -22.674 -15.082  0.00  0.00    -0.002 C 
ATOM     30  C   UNL     1      28.666 -24.795 -14.544  0.00  0.00    -0.000 C 
ATOM     31  C   UNL     1      29.141 -22.720 -15.688  0.00  0.00    -0.000 C 
ATOM     32  C   UNL     1      28.276 -23.780 -15.419  0.00  0.00    -0.000 C 
ENDBRANCH  26  27
BRANCH  26  33
ATOM     33  O   UNL     1      32.217 -24.692 -12.587  0.00  0.00    -0.382 OA
ATOM     34  H   UNL     1      31.423 -24.674 -12.032  0.00  0.00    +0.211 HD
ENDBRANCH  26  33
ENDBRANCH  25  26
ENDBRANCH  22  25
ENDBRANCH  21  22
ENDBRANCH  20  21
ENDBRANCH   1  20
TORSDOF 10
ENDMDL
MODEL 2
REMARK VINA RESULT:     -12.3      0.187      1.303
REMARK  Name = 9865528
REMARK  10 active torsions:
REMARK  status: ('A' for Active; 'I' for Inactive)
REMARK    1  A    between atoms: C_1  and  C_20
REMARK    2  A    between atoms: C_4  and  N_8
REMARK    3  A    between atoms: C_9  and  C_11
REMARK    4  A    between atoms: C_11  and  C_15
REMARK    5  A    between atoms: C_20  and  C_21
REMARK    6  A    between atoms: C_21  and  N_22
REMARK    7  A    between atoms: N_22  and  C_25
REMARK    8  A    between atoms: C_25  and  C_26
REMARK    9  A    between atoms: C_26  and  C_27
REMARK   10  A    between atoms: C_26  and  O_33
REMARK                            x       y       z     vdW  Elec       q    Type
REMARK                         _______ _______ _______ _____ _____    ______ ____
ROOT
ATOM      1  C   UNL     1      33.824 -21.773 -18.233  0.00  0.00    -0.024 C 
ATOM      2  C   UNL     1      32.705 -21.231 -18.864  0.00  0.00    -0.003 C 
ATOM      3  C   UNL     1      35.104 -21.447 -18.682  0.00  0.00    -0.003 C 
ATOM      4  C   UNL     1      34.144 -20.037 -20.393  0.00  0.00    +0.050 C 
ATOM      5  C   UNL     1      32.865 -20.364 -19.944  0.00  0.00    +0.014 C 
ATOM      6  C   UNL     1      35.264 -20.580 -19.762  0.00  0.00    +0.014 C 
ENDROOT
BRANCH   4   8
ATOM      7  O   UNL     1      35.616 -17.429 -20.585  0.00  0.00    -0.274 OA
ATOM      8  N   UNL     1      34.305 -19.169 -21.474  0.00  0.00    -0.284 N 
ATOM      9  C   UNL     1      35.009 -17.954 -21.514  0.00  0.00    +0.233 C 
ATOM     10  H   UNL     1      33.871 -19.443 -22.314  0.00  0.00    +0.155 HD
BRANCH   9  11
ATOM     11  C   UNL     1      34.932 -17.323 -22.898  0.00  0.00    +0.141 C 
BRANCH  11  15
ATOM     12  S   UNL     1      33.390 -13.691 -22.230  0.00  0.00    -0.060 S 
ATOM     13  N   UNL     1      33.704 -15.509 -24.042  0.00  0.00    -0.389 NA
ATOM     14  N   UNL     1      32.551 -13.570 -24.751  0.00  0.00    -0.328 N 
ATOM     15  C   UNL     1      34.287 -15.973 -22.880  0.00  0.00    +0.109 C 
ATOM     16  C   UNL     1      34.218 -15.128 -21.792  0.00  0.00    +0.121 C 
ATOM     17  C   UNL     1      33.200 -14.316 -23.817  0.00  0.00    +0.204 C 
ATOM     18  H   UNL     1      32.198 -12.682 -24.513  0.00  0.00    +0.145 HD
ATOM     19  H   UNL     1      32.435 -13.917 -25.665  0.00  0.00    +0.145 HD
ENDBRANCH  11  15
ENDBRANCH   9  11
ENDBRANCH   4   8
BRANCH   1  20
ATOM     20  C   UNL     1      33.653 -22.701 -17.078  0.00  0.00    +0.003 C 
BRANCH  20  21
ATOM     21  C   UNL     1      34.657 -22.414 -15.953  0.00  0.00    -0.077 C 
BRANCH  21  22
ATOM     22  N   UNL     1      34.042 -22.550 -14.637  0.00  0.00    +0.386 N 
ATOM     23  H   UNL     1      33.392 -21.777 -14.490  0.00  0.00    -0.084 HD
ATOM     24  H   UNL     1      34.777 -22.536 -13.930  0.00  0.00    -0.084 HD
BRANCH  22  25
ATOM     25  C   UNL     1      33.317 -23.808 -14.530  0.00  0.00    -0.047 C 
BRANCH  25  26
ATOM     26  C   UNL     1      32.152 -23.685 -13.542  0.00  0.00    +0.112 C 
BRANCH  26  27
ATOM     27  C   UNL     1      30.817 -23.699 -14.255  0.00  0.00    +0.002 C 
ATOM     28  C   UNL     1      30.523 -22.721 -15.205  0.00  0.00    -0.002 C 
ATOM     29  C   UNL     1      29.880 -24.690 -13.961  0.00  0.00    -0.002 C 
ATOM     30  C   UNL     1      29.294 -22.734 -15.862  0.00  0.00    -0.000 C 
ATOM     31  C   UNL     1      28.649 -24.703 -14.619  0.00  0.00    -0.000 C 
ATOM     32  C   UNL     1      28.356 -23.725 -15.569  0.00  0.00    -0.000 C 
ENDBRANCH  26  27
BRANCH  26  33
ATOM     33  O   UNL     1      32.173 -24.769 -12.614  0.00  0.00    -0.382 OA
ATOM     34  H   UNL     1      31.413 -24.699 -12.017  0.00  0.00    +0.211 HD
ENDBRANCH  26  33
ENDBRANCH  25  26
ENDBRANCH  22  25
ENDBRANCH  21  22
ENDBRANCH  20  21
ENDBRANCH   1  20
TORSDOF 10
ENDMDL
MODEL 3
REMARK VINA RESULT:     -11.9      4.058     10.698
REMARK  Name = 9865528
REMARK  10 active torsions:
REMARK  status: ('A' for Active; 'I' for Inactive)
REMARK    1  A    between atoms: C_1  and  C_20
REMARK    2  A    between atoms: C_4  and  N_8
REMARK    3  A    between atoms: C_9  and  C_11
REMARK    4  A    between atoms: C_11  and  C_15
REMARK    5  A    between atoms: C_20  and  C_21
REMARK    6  A    between atoms: C_21  and  N_22
REMARK    7  A    between atoms: N_22  and  C_25
REMARK    8  A    between atoms: C_25  and  C_26
REMARK    9  A    between atoms: C_26  and  C_27
REMARK   10  A    between atoms: C_26  and  O_33
REMARK                            x       y       z     vdW  Elec       q    Type
REMARK                         _______ _______ _______ _____ _____    ______ ____
ROOT
ATOM      1  C   UNL     1      34.110 -20.069 -20.432  0.00  0.00    -0.024 C 
ATOM      2  C   UNL     1      32.831 -20.360 -19.957  0.00  0.00    -0.003 C 
ATOM      3  C   UNL     1      35.227 -20.636 -19.818  0.00  0.00    -0.003 C 
ATOM      4  C   UNL     1      33.786 -21.783 -18.255  0.00  0.00    +0.050 C 
ATOM      5  C   UNL     1      32.669 -21.216 -18.869  0.00  0.00    +0.014 C 
ATOM      6  C   UNL     1      35.065 -21.492 -18.730  0.00  0.00    +0.014 C 
ENDROOT
BRANCH   4   8
ATOM      7  O   UNL     1      35.224 -21.868 -15.623  0.00  0.00    -0.274 OA
ATOM      8  N   UNL     1      33.625 -22.641 -17.166  0.00  0.00    -0.284 N 
ATOM      9  C   UNL     1      34.326 -22.639 -15.948  0.00  0.00    +0.233 C 
ATOM     10  H   UNL     1      32.933 -23.334 -17.263  0.00  0.00    +0.155 HD
BRANCH   9  11
ATOM     11  C   UNL     1      33.833 -23.751 -15.032  0.00  0.00    +0.141 C 
BRANCH  11  15
ATOM     12  S   UNL     1      36.549 -25.042 -12.393  0.00  0.00    -0.060 S 
ATOM     13  N   UNL     1      35.780 -25.262 -14.851  0.00  0.00    -0.389 NA
ATOM     14  N   UNL     1      37.656 -26.575 -14.262  0.00  0.00    -0.328 N 
ATOM     15  C   UNL     1      34.934 -24.366 -14.228  0.00  0.00    +0.109 C 
ATOM     16  C   UNL     1      35.193 -24.119 -12.896  0.00  0.00    +0.121 C 
ATOM     17  C   UNL     1      36.670 -25.683 -13.980  0.00  0.00    +0.204 C 
ATOM     18  H   UNL     1      38.290 -26.847 -13.559  0.00  0.00    +0.145 HD
ATOM     19  H   UNL     1      37.735 -26.950 -15.169  0.00  0.00    +0.145 HD
ENDBRANCH  11  15
ENDBRANCH   9  11
ENDBRANCH   4   8
BRANCH   1  20
ATOM     20  C   UNL     1      34.283 -19.153 -21.596  0.00  0.00    +0.003 C 
BRANCH  20  21
ATOM     21  C   UNL     1      35.622 -18.404 -21.548  0.00  0.00    -0.077 C 
BRANCH  21  22
ATOM     22  N   UNL     1      35.657 -17.305 -22.507  0.00  0.00    +0.386 N 
ATOM     23  H   UNL     1      35.774 -17.685 -23.447  0.00  0.00    -0.084 HD
ATOM     24  H   UNL     1      36.436 -16.691 -22.272  0.00  0.00    -0.084 HD
BRANCH  22  25
ATOM     25  C   UNL     1      34.424 -16.532 -22.456  0.00  0.00    -0.047 C 
BRANCH  25  26
ATOM     26  C   UNL     1      34.537 -15.392 -21.437  0.00  0.00    +0.112 C 
BRANCH  26  27
ATOM     27  C   UNL     1      33.562 -14.276 -21.745  0.00  0.00    +0.002 C 
ATOM     28  C   UNL     1      33.428 -13.809 -23.052  0.00  0.00    -0.002 C 
ATOM     29  C   UNL     1      32.800 -13.714 -20.721  0.00  0.00    -0.002 C 
ATOM     30  C   UNL     1      32.531 -12.781 -23.337  0.00  0.00    -0.000 C 
ATOM     31  C   UNL     1      31.901 -12.684 -21.006  0.00  0.00    -0.000 C 
ATOM     32  C   UNL     1      31.767 -12.218 -22.313  0.00  0.00    -0.000 C 
ENDBRANCH  26  27
BRANCH  26  33
ATOM     33  O   UNL     1      34.260 -15.875 -20.122  0.00  0.00    -0.382 OA
ATOM     34  H   UNL     1      33.739 -16.690 -20.180  0.00  0.00    +0.211 HD
ENDBRANCH  26  33
ENDBRANCH  25  26
ENDBRANCH  22  25
ENDBRANCH  21  22
ENDBRANCH  20  21
ENDBRANCH   1  20
TORSDOF 10
ENDMDL
MODEL 4
REMARK VINA RESULT:     -11.9      4.862      8.850
REMARK  Name = 9865528
REMARK  10 active torsions:
REMARK  status: ('A' for Active; 'I' for Inactive)
REMARK    1  A    between atoms: C_1  and  C_20
REMARK    2  A    between atoms: C_4  and  N_8
REMARK    3  A    between atoms: C_9  and  C_11
REMARK    4  A    between atoms: C_11  and  C_15
REMARK    5  A    between atoms: C_20  and  C_21
REMARK    6  A    between atoms: C_21  and  N_22
REMARK    7  A    between atoms: N_22  and  C_25
REMARK    8  A    between atoms: C_25  and  C_26
REMARK    9  A    between atoms: C_26  and  C_27
REMARK   10  A    between atoms: C_26  and  O_33
REMARK                            x       y       z     vdW  Elec       q    Type
REMARK                         _______ _______ _______ _____ _____    ______ ____
ROOT
ATOM      1  C   UNL     1      33.489 -14.160 -21.662  0.00  0.00    -0.024 C 
ATOM      2  C   UNL     1      33.580 -13.551 -22.914  0.00  0.00    -0.003 C 
ATOM      3  C   UNL     1      32.709 -13.581 -20.661  0.00  0.00    -0.003 C 
ATOM      4  C   UNL     1      32.114 -11.784 -22.163  0.00  0.00    +0.050 C 
ATOM      5  C   UNL     1      32.894 -12.363 -23.164  0.00  0.00    +0.014 C 
ATOM      6  C   UNL     1      32.023 -12.393 -20.911  0.00  0.00    +0.014 C 
ENDROOT
BRANCH   4   8
ATOM      7  O   UNL     1      33.086  -9.178 -23.288  0.00  0.00    -0.274 OA
ATOM      8  N   UNL     1      31.426 -10.596 -22.412  0.00  0.00    -0.284 N 
ATOM      9  C   UNL     1      31.928  -9.397 -22.944  0.00  0.00    +0.233 C 
ATOM     10  H   UNL     1      30.468 -10.598 -22.186  0.00  0.00    +0.155 HD
BRANCH   9  11
ATOM     11  C   UNL     1      30.833  -8.344 -23.050  0.00  0.00    +0.141 C 
BRANCH  11  15
ATOM     12  S   UNL     1      31.030  -4.936 -20.964  0.00  0.00    -0.060 S 
ATOM     13  N   UNL     1      31.839  -7.391 -21.004  0.00  0.00    -0.389 NA
ATOM     14  N   UNL     1      32.598  -6.111 -19.167  0.00  0.00    -0.328 N 
ATOM     15  C   UNL     1      31.047  -7.194 -22.118  0.00  0.00    +0.109 C 
ATOM     16  C   UNL     1      30.520  -5.928 -22.267  0.00  0.00    +0.121 C 
ATOM     17  C   UNL     1      31.900  -6.268 -20.323  0.00  0.00    +0.204 C 
ATOM     18  H   UNL     1      32.600  -5.239 -18.708  0.00  0.00    +0.145 HD
ATOM     19  H   UNL     1      33.102  -6.868 -18.789  0.00  0.00    +0.145 HD
ENDBRANCH  11  15
ENDBRANCH   9  11
ENDBRANCH   4   8
BRANCH   1  20
ATOM     20  C   UNL     1      34.223 -15.430 -21.395  0.00  0.00    +0.003 C 
BRANCH  20  21
ATOM     21  C   UNL     1      34.805 -16.041 -22.677  0.00  0.00    -0.077 C 
BRANCH  21  22
ATOM     22  N   UNL     1      34.321 -17.401 -22.891  0.00  0.00    +0.386 N 
ATOM     23  H   UNL     1      34.111 -17.529 -23.881  0.00  0.00    -0.084 HD
ATOM     24  H   UNL     1      33.483 -17.541 -22.328  0.00  0.00    -0.084 HD
BRANCH  22  25
ATOM     25  C   UNL     1      35.322 -18.378 -22.486  0.00  0.00    -0.047 C 
BRANCH  25  26
ATOM     26  C   UNL     1      35.506 -18.371 -20.964  0.00  0.00    +0.112 C 
BRANCH  26  27
ATOM     27  C   UNL     1      34.830 -19.561 -20.319  0.00  0.00    +0.002 C 
ATOM     28  C   UNL     1      33.447 -19.716 -20.420  0.00  0.00    -0.002 C 
ATOM     29  C   UNL     1      35.588 -20.502 -19.622  0.00  0.00    -0.002 C 
ATOM     30  C   UNL     1      32.823 -20.812 -19.826  0.00  0.00    -0.000 C 
ATOM     31  C   UNL     1      34.963 -21.599 -19.027  0.00  0.00    -0.000 C 
ATOM     32  C   UNL     1      33.581 -21.753 -19.129  0.00  0.00    -0.000 C 
ENDBRANCH  26  27
BRANCH  26  33
ATOM     33  O   UNL     1      36.895 -18.416 -20.635  0.00  0.00    -0.382 OA
ATOM     34  H   UNL     1      36.999 -18.702 -19.715  0.00  0.00    +0.211 HD
ENDBRANCH  26  33
ENDBRANCH  25  26
ENDBRANCH  22  25
ENDBRANCH  21  22
ENDBRANCH  20  21
ENDBRANCH   1  20
TORSDOF 10
ENDMDL
MODEL 5
REMARK VINA RESULT:     -11.9      2.878      4.799
REMARK  Name = 9865528
REMARK  10 active torsions:
REMARK  status: ('A' for Active; 'I' for Inactive)
REMARK    1  A    between atoms: C_1  and  C_20
REMARK    2  A    between atoms: C_4  and  N_8
REMARK    3  A    between atoms: C_9  and  C_11
REMARK    4  A    between atoms: C_11  and  C_15
REMARK    5  A    between atoms: C_20  and  C_21
REMARK    6  A    between atoms: C_21  and  N_22
REMARK    7  A    between atoms: N_22  and  C_25
REMARK    8  A    between atoms: C_25  and  C_26
REMARK    9  A    between atoms: C_26  and  C_27
REMARK   10  A    between atoms: C_26  and  O_33
REMARK                            x       y       z     vdW  Elec       q    Type
REMARK                         _______ _______ _______ _____ _____    ______ ____
ROOT
ATOM      1  C   UNL     1      33.328 -21.915 -18.520  0.00  0.00    -0.024 C 
ATOM      2  C   UNL     1      32.284 -21.149 -19.039  0.00  0.00    -0.003 C 
ATOM      3  C   UNL     1      34.640 -21.668 -18.922  0.00  0.00    -0.003 C 
ATOM      4  C   UNL     1      33.864 -19.891 -20.363  0.00  0.00    +0.050 C 
ATOM      5  C   UNL     1      32.552 -20.138 -19.961  0.00  0.00    +0.014 C 
ATOM      6  C   UNL     1      34.909 -20.656 -19.844  0.00  0.00    +0.014 C 
ENDROOT
BRANCH   4   8
ATOM      7  O   UNL     1      36.164 -17.969 -20.519  0.00  0.00    -0.274 OA
ATOM      8  N   UNL     1      34.134 -18.879 -21.285  0.00  0.00    -0.284 N 
ATOM      9  C   UNL     1      35.231 -18.002 -21.317  0.00  0.00    +0.233 C 
ATOM     10  H   UNL     1      33.472 -18.765 -22.005  0.00  0.00    +0.155 HD
BRANCH   9  11
ATOM     11  C   UNL     1      35.134 -17.047 -22.499  0.00  0.00    +0.141 C 
BRANCH  11  15
ATOM     12  S   UNL     1      33.479 -13.769 -20.909  0.00  0.00    -0.060 S 
ATOM     13  N   UNL     1      34.455 -14.746 -23.094  0.00  0.00    -0.389 NA
ATOM     14  N   UNL     1      33.678 -12.519 -23.247  0.00  0.00    -0.328 N 
ATOM     15  C   UNL     1      34.542 -15.725 -22.124  0.00  0.00    +0.109 C 
ATOM     16  C   UNL     1      34.065 -15.381 -20.877  0.00  0.00    +0.121 C 
ATOM     17  C   UNL     1      33.911 -13.672 -22.566  0.00  0.00    +0.204 C 
ATOM     18  H   UNL     1      33.266 -11.751 -22.788  0.00  0.00    +0.145 HD
ATOM     19  H   UNL     1      33.921 -12.451 -24.199  0.00  0.00    +0.145 HD
ENDBRANCH  11  15
ENDBRANCH   9  11
ENDBRANCH   4   8
BRANCH   1  20
ATOM     20  C   UNL     1      33.042 -22.996 -17.534  0.00  0.00    +0.003 C 
BRANCH  20  21
ATOM     21  C   UNL     1      33.502 -22.624 -16.118  0.00  0.00    -0.077 C 
BRANCH  21  22
ATOM     22  N   UNL     1      34.728 -23.325 -15.751  0.00  0.00    +0.386 N 
ATOM     23  H   UNL     1      35.349 -23.358 -16.560  0.00  0.00    -0.084 HD
ATOM     24  H   UNL     1      34.487 -24.268 -15.448  0.00  0.00    -0.084 HD
BRANCH  22  25
ATOM     25  C   UNL     1      35.407 -22.644 -14.657  0.00  0.00    -0.047 C 
BRANCH  25  26
ATOM     26  C   UNL     1      36.878 -22.385 -15.005  0.00  0.00    +0.112 C 
BRANCH  26  27
ATOM     27  C   UNL     1      37.768 -23.509 -14.521  0.00  0.00    +0.002 C 
ATOM     28  C   UNL     1      37.462 -24.181 -13.337  0.00  0.00    -0.002 C 
ATOM     29  C   UNL     1      38.894 -23.874 -15.258  0.00  0.00    -0.002 C 
ATOM     30  C   UNL     1      38.281 -25.216 -12.890  0.00  0.00    -0.000 C 
ATOM     31  C   UNL     1      39.715 -24.911 -14.811  0.00  0.00    -0.000 C 
ATOM     32  C   UNL     1      39.408 -25.581 -13.628  0.00  0.00    -0.000 C 
ENDBRANCH  26  27
BRANCH  26  33
ATOM     33  O   UNL     1      37.038 -22.267 -16.419  0.00  0.00    -0.382 OA
ATOM     34  H   UNL     1      36.171 -22.140 -16.833  0.00  0.00    +0.211 HD
ENDBRANCH  26  33
ENDBRANCH  25  26
ENDBRANCH  22  25
ENDBRANCH  21  22
ENDBRANCH  20  21
ENDBRANCH   1  20
TORSDOF 10
ENDMDL
MODEL 6
REMARK VINA RESULT:     -11.8      4.668      8.587
REMARK  Name = 9865528
REMARK  10 active torsions:
REMARK  status: ('A' for Active; 'I' for Inactive)
REMARK    1  A    between atoms: C_1  and  C_20
REMARK    2  A    between atoms: C_4  and  N_8
REMARK    3  A    between atoms: C_9  and  C_11
REMARK    4  A    between atoms: C_11  and  C_15
REMARK    5  A    between atoms: C_20  and  C_21
REMARK    6  A    between atoms: C_21  and  N_22
REMARK    7  A    between atoms: N_22  and  C_25
REMARK    8  A    between atoms: C_25  and  C_26
REMARK    9  A    between atoms: C_26  and  C_27
REMARK   10  A    between atoms: C_26  and  O_33
REMARK                            x       y       z     vdW  Elec       q    Type
REMARK                         _______ _______ _______ _____ _____    ______ ____
ROOT
ATOM      1  C   UNL     1      33.881 -14.662 -22.381  0.00  0.00    -0.024 C 
ATOM      2  C   UNL     1      33.619 -14.094 -21.134  0.00  0.00    -0.003 C 
ATOM      3  C   UNL     1      33.373 -14.071 -23.537  0.00  0.00    -0.003 C 
ATOM      4  C   UNL     1      32.341 -12.343 -22.200  0.00  0.00    +0.050 C 
ATOM      5  C   UNL     1      32.849 -12.935 -21.044  0.00  0.00    +0.014 C 
ATOM      6  C   UNL     1      32.602 -12.912 -23.447  0.00  0.00    +0.014 C 
ENDROOT
BRANCH   4   8
ATOM      7  O   UNL     1      32.887  -9.568 -23.202  0.00  0.00    -0.274 OA
ATOM      8  N   UNL     1      31.571 -11.183 -22.111  0.00  0.00    -0.284 N 
ATOM      9  C   UNL     1      31.871  -9.901 -22.600  0.00  0.00    +0.233 C 
ATOM     10  H   UNL     1      30.707 -11.275 -21.647  0.00  0.00    +0.155 HD
BRANCH   9  11
ATOM     11  C   UNL     1      30.751  -8.919 -22.286  0.00  0.00    +0.141 C 
BRANCH  11  15
ATOM     12  S   UNL     1      32.207  -6.157 -19.785  0.00  0.00    -0.060 S 
ATOM     13  N   UNL     1      31.069  -6.477 -22.084  0.00  0.00    -0.389 NA
ATOM     14  N   UNL     1      31.552  -4.236 -21.503  0.00  0.00    -0.328 N 
ATOM     15  C   UNL     1      31.228  -7.727 -21.519  0.00  0.00    +0.109 C 
ATOM     16  C   UNL     1      31.826  -7.755 -20.276  0.00  0.00    +0.121 C 
ATOM     17  C   UNL     1      31.549  -5.573 -21.258  0.00  0.00    +0.204 C 
ATOM     18  H   UNL     1      31.928  -3.615 -20.839  0.00  0.00    +0.145 HD
ATOM     19  H   UNL     1      31.177  -3.889 -22.345  0.00  0.00    +0.145 HD
ENDBRANCH  11  15
ENDBRANCH   9  11
ENDBRANCH   4   8
BRANCH   1  20
ATOM     20  C   UNL     1      34.704 -15.902 -22.477  0.00  0.00    +0.003 C 
BRANCH  20  21
ATOM     21  C   UNL     1      34.237 -16.819 -23.615  0.00  0.00    -0.077 C 
BRANCH  21  22
ATOM     22  N   UNL     1      33.984 -18.176 -23.142  0.00  0.00    +0.386 N 
ATOM     23  H   UNL     1      33.674 -18.751 -23.925  0.00  0.00    -0.084 HD
ATOM     24  H   UNL     1      33.266 -18.141 -22.418  0.00  0.00    -0.084 HD
BRANCH  22  25
ATOM     25  C   UNL     1      35.190 -18.759 -22.571  0.00  0.00    -0.047 C 
BRANCH  25  26
ATOM     26  C   UNL     1      35.233 -18.547 -21.053  0.00  0.00    +0.112 C 
BRANCH  26  27
ATOM     27  C   UNL     1      34.619 -19.715 -20.313  0.00  0.00    +0.002 C 
ATOM     28  C   UNL     1      35.439 -20.632 -19.655  0.00  0.00    -0.002 C 
ATOM     29  C   UNL     1      33.234 -19.876 -20.288  0.00  0.00    -0.002 C 
ATOM     30  C   UNL     1      34.874 -21.709 -18.973  0.00  0.00    -0.000 C 
ATOM     31  C   UNL     1      32.668 -20.953 -19.605  0.00  0.00    -0.000 C 
ATOM     32  C   UNL     1      33.488 -21.869 -18.948  0.00  0.00    -0.000 C 
ENDBRANCH  26  27
BRANCH  26  33
ATOM     33  O   UNL     1      36.583 -18.400 -20.612  0.00  0.00    -0.382 OA
ATOM     34  H   UNL     1      37.071 -19.219 -20.788  0.00  0.00    +0.211 HD
ENDBRANCH  26  33
ENDBRANCH  25  26
ENDBRANCH  22  25
ENDBRANCH  21  22
ENDBRANCH  20  21
ENDBRANCH   1  20
TORSDOF 10
ENDMDL
MODEL 7
REMARK VINA RESULT:     -11.8      1.886      3.462
REMARK  Name = 9865528
REMARK  10 active torsions:
REMARK  status: ('A' for Active; 'I' for Inactive)
REMARK    1  A    between atoms: C_1  and  C_20
REMARK    2  A    between atoms: C_4  and  N_8
REMARK    3  A    between atoms: C_9  and  C_11
REMARK    4  A    between atoms: C_11  and  C_15
REMARK    5  A    between atoms: C_20  and  C_21
REMARK    6  A    between atoms: C_21  and  N_22
REMARK    7  A    between atoms: N_22  and  C_25
REMARK    8  A    between atoms: C_25  and  C_26
REMARK    9  A    between atoms: C_26  and  C_27
REMARK   10  A    between atoms: C_26  and  O_33
REMARK                            x       y       z     vdW  Elec       q    Type
REMARK                         _______ _______ _______ _____ _____    ______ ____
ROOT
ATOM      1  C   UNL     1      33.383 -21.749 -18.587  0.00  0.00    -0.024 C 
ATOM      2  C   UNL     1      34.711 -21.523 -18.952  0.00  0.00    -0.003 C 
ATOM      3  C   UNL     1      32.357 -21.049 -19.220  0.00  0.00    -0.003 C 
ATOM      4  C   UNL     1      33.985 -19.894 -20.582  0.00  0.00    +0.050 C 
ATOM      5  C   UNL     1      35.011 -20.595 -19.949  0.00  0.00    +0.014 C 
ATOM      6  C   UNL     1      32.658 -20.121 -20.217  0.00  0.00    +0.014 C 
ENDROOT
BRANCH   4   8
ATOM      7  O   UNL     1      35.333 -17.219 -20.403  0.00  0.00    -0.274 OA
ATOM      8  N   UNL     1      34.285 -18.966 -21.579  0.00  0.00    -0.284 N 
ATOM      9  C   UNL     1      34.922 -17.721 -21.445  0.00  0.00    +0.233 C 
ATOM     10  H   UNL     1      34.017 -19.215 -22.493  0.00  0.00    +0.155 HD
BRANCH   9  11
ATOM     11  C   UNL     1      35.051 -17.024 -22.792  0.00  0.00    +0.141 C 
BRANCH  11  15
ATOM     12  S   UNL     1      33.036 -13.651 -23.547  0.00  0.00    -0.060 S 
ATOM     13  N   UNL     1      34.165 -15.013 -21.662  0.00  0.00    -0.389 NA
ATOM     14  N   UNL     1      33.175 -12.977 -20.979  0.00  0.00    -0.328 N 
ATOM     15  C   UNL     1      34.321 -15.719 -22.838  0.00  0.00    +0.109 C 
ATOM     16  C   UNL     1      33.776 -15.141 -23.966  0.00  0.00    +0.121 C 
ATOM     17  C   UNL     1      33.502 -13.907 -21.916  0.00  0.00    +0.204 C 
ATOM     18  H   UNL     1      32.677 -12.169 -21.240  0.00  0.00    +0.145 HD
ATOM     19  H   UNL     1      33.437 -13.113 -20.039  0.00  0.00    +0.145 HD
ENDBRANCH  11  15
ENDBRANCH   9  11
ENDBRANCH   4   8
BRANCH   1  20
ATOM     20  C   UNL     1      33.062 -22.742 -17.522  0.00  0.00    +0.003 C 
BRANCH  20  21
ATOM     21  C   UNL     1      31.781 -22.376 -16.759  0.00  0.00    -0.077 C 
BRANCH  21  22
ATOM     22  N   UNL     1      31.565 -23.260 -15.618  0.00  0.00    +0.386 N 
ATOM     23  H   UNL     1      31.813 -24.213 -15.882  0.00  0.00    -0.084 HD
ATOM     24  H   UNL     1      30.583 -23.209 -15.348  0.00  0.00    -0.084 HD
BRANCH  22  25
ATOM     25  C   UNL     1      32.381 -22.851 -14.484  0.00  0.00    -0.047 C 
BRANCH  25  26
ATOM     26  C   UNL     1      33.304 -23.992 -14.037  0.00  0.00    +0.112 C 
BRANCH  26  27
ATOM     27  C   UNL     1      34.747 -23.706 -14.389  0.00  0.00    +0.002 C 
ATOM     28  C   UNL     1      35.704 -24.716 -14.282  0.00  0.00    -0.002 C 
ATOM     29  C   UNL     1      35.123 -22.434 -14.819  0.00  0.00    -0.002 C 
ATOM     30  C   UNL     1      37.034 -24.454 -14.606  0.00  0.00    -0.000 C 
ATOM     31  C   UNL     1      36.454 -22.171 -15.143  0.00  0.00    -0.000 C 
ATOM     32  C   UNL     1      37.409 -23.181 -15.036  0.00  0.00    -0.000 C 
ENDBRANCH  26  27
BRANCH  26  33
ATOM     33  O   UNL     1      33.217 -24.173 -12.624  0.00  0.00    -0.382 OA
ATOM     34  H   UNL     1      33.976 -23.747 -12.196  0.00  0.00    +0.211 HD
ENDBRANCH  26  33
ENDBRANCH  25  26
ENDBRANCH  22  25
ENDBRANCH  21  22
ENDBRANCH  20  21
ENDBRANCH   1  20
TORSDOF 10
ENDMDL
MODEL 8
REMARK VINA RESULT:     -11.6      3.569     10.663
REMARK  Name = 9865528
REMARK  10 active torsions:
REMARK  status: ('A' for Active; 'I' for Inactive)
REMARK    1  A    between atoms: C_1  and  C_20
REMARK    2  A    between atoms: C_4  and  N_8
REMARK    3  A    between atoms: C_9  and  C_11
REMARK    4  A    between atoms: C_11  and  C_15
REMARK    5  A    between atoms: C_20  and  C_21
REMARK    6  A    between atoms: C_21  and  N_22
REMARK    7  A    between atoms: N_22  and  C_25
REMARK    8  A    between atoms: C_25  and  C_26
REMARK    9  A    between atoms: C_26  and  C_27
REMARK   10  A    between atoms: C_26  and  O_33
REMARK                            x       y       z     vdW  Elec       q    Type
REMARK                         _______ _______ _______ _____ _____    ______ ____
ROOT
ATOM      1  C   UNL     1      34.294 -20.198 -20.301  0.00  0.00    -0.024 C 
ATOM      2  C   UNL     1      35.418 -20.639 -19.603  0.00  0.00    -0.003 C 
ATOM      3  C   UNL     1      33.019 -20.565 -19.873  0.00  0.00    -0.003 C 
ATOM      4  C   UNL     1      33.991 -21.816 -18.049  0.00  0.00    +0.050 C 
ATOM      5  C   UNL     1      35.266 -21.449 -18.478  0.00  0.00    +0.014 C 
ATOM      6  C   UNL     1      32.867 -21.375 -18.748  0.00  0.00    +0.014 C 
ENDROOT
BRANCH   4   8
ATOM      7  O   UNL     1      31.549 -22.433 -16.419  0.00  0.00    -0.274 OA
ATOM      8  N   UNL     1      33.838 -22.626 -16.923  0.00  0.00    -0.284 N 
ATOM      9  C   UNL     1      32.667 -22.885 -16.192  0.00  0.00    +0.233 C 
ATOM     10  H   UNL     1      34.654 -23.073 -16.600  0.00  0.00    +0.155 HD
BRANCH   9  11
ATOM     11  C   UNL     1      32.945 -23.829 -15.030  0.00  0.00    +0.141 C 
BRANCH  11  15
ATOM     12  S   UNL     1      36.665 -23.381 -13.629  0.00  0.00    -0.060 S 
ATOM     13  N   UNL     1      35.196 -24.837 -15.180  0.00  0.00    -0.389 NA
ATOM     14  N   UNL     1      37.466 -25.485 -15.045  0.00  0.00    -0.328 N 
ATOM     15  C   UNL     1      34.389 -23.854 -14.642  0.00  0.00    +0.109 C 
ATOM     16  C   UNL     1      35.006 -22.973 -13.779  0.00  0.00    +0.121 C 
ATOM     17  C   UNL     1      36.417 -24.685 -14.717  0.00  0.00    +0.204 C 
ATOM     18  H   UNL     1      38.356 -25.313 -14.659  0.00  0.00    +0.145 HD
ATOM     19  H   UNL     1      37.336 -26.236 -15.668  0.00  0.00    +0.145 HD
ENDBRANCH  11  15
ENDBRANCH   9  11
ENDBRANCH   4   8
BRANCH   1  20
ATOM     20  C   UNL     1      34.456 -19.332 -21.504  0.00  0.00    +0.003 C 
BRANCH  20  21
ATOM     21  C   UNL     1      35.798 -18.585 -21.502  0.00  0.00    -0.077 C 
BRANCH  21  22
ATOM     22  N   UNL     1      35.763 -17.417 -22.376  0.00  0.00    +0.386 N 
ATOM     23  H   UNL     1      35.962 -17.709 -23.333  0.00  0.00    -0.084 HD
ATOM     24  H   UNL     1      36.462 -16.748 -22.054  0.00  0.00    -0.084 HD
BRANCH  22  25
ATOM     25  C   UNL     1      34.455 -16.778 -22.335  0.00  0.00    -0.047 C 
BRANCH  25  26
ATOM     26  C   UNL     1      34.581 -15.304 -21.933  0.00  0.00    +0.112 C 
BRANCH  26  27
ATOM     27  C   UNL     1      33.921 -14.394 -22.945  0.00  0.00    +0.002 C 
ATOM     28  C   UNL     1      33.716 -13.047 -22.644  0.00  0.00    -0.002 C 
ATOM     29  C   UNL     1      33.515 -14.902 -24.180  0.00  0.00    -0.002 C 
ATOM     30  C   UNL     1      33.108 -12.209 -23.577  0.00  0.00    -0.000 C 
ATOM     31  C   UNL     1      32.906 -14.062 -25.113  0.00  0.00    -0.000 C 
ATOM     32  C   UNL     1      32.702 -12.716 -24.812  0.00  0.00    -0.000 C 
ENDBRANCH  26  27
BRANCH  26  33
ATOM     33  O   UNL     1      33.962 -15.083 -20.665  0.00  0.00    -0.382 OA
ATOM     34  H   UNL     1      33.257 -14.425 -20.761  0.00  0.00    +0.211 HD
ENDBRANCH  26  33
ENDBRANCH  25  26
ENDBRANCH  22  25
ENDBRANCH  21  22
ENDBRANCH  20  21
ENDBRANCH   1  20
TORSDOF 10
ENDMDL
MODEL 9
REMARK VINA RESULT:     -11.5      4.102     10.988
REMARK  Name = 9865528
REMARK  10 active torsions:
REMARK  status: ('A' for Active; 'I' for Inactive)
REMARK    1  A    between atoms: C_1  and  C_20
REMARK    2  A    between atoms: C_4  and  N_8
REMARK    3  A    between atoms: C_9  and  C_11
REMARK    4  A    between atoms: C_11  and  C_15
REMARK    5  A    between atoms: C_20  and  C_21
REMARK    6  A    between atoms: C_21  and  N_22
REMARK    7  A    between atoms: N_22  and  C_25
REMARK    8  A    between atoms: C_25  and  C_26
REMARK    9  A    between atoms: C_26  and  C_27
REMARK   10  A    between atoms: C_26  and  O_33
REMARK                            x       y       z     vdW  Elec       q    Type
REMARK                         _______ _______ _______ _____ _____    ______ ____
ROOT
ATOM      1  C   UNL     1      34.466 -16.572 -22.864  0.00  0.00    -0.024 C 
ATOM      2  C   UNL     1      34.069 -17.763 -23.471  0.00  0.00    -0.003 C 
ATOM      3  C   UNL     1      34.898 -16.575 -21.538  0.00  0.00    -0.003 C 
ATOM      4  C   UNL     1      34.535 -18.961 -21.427  0.00  0.00    +0.050 C 
ATOM      5  C   UNL     1      34.103 -18.957 -22.752  0.00  0.00    +0.014 C 
ATOM      6  C   UNL     1      34.932 -17.770 -20.819  0.00  0.00    +0.014 C 
ENDROOT
BRANCH   4   8
ATOM      7  O   UNL     1      32.526 -20.152 -19.543  0.00  0.00    -0.274 OA
ATOM      8  N   UNL     1      34.570 -20.156 -20.706  0.00  0.00    -0.284 N 
ATOM      9  C   UNL     1      33.598 -20.673 -19.834  0.00  0.00    +0.233 C 
ATOM     10  H   UNL     1      35.378 -20.707 -20.825  0.00  0.00    +0.155 HD
BRANCH   9  11
ATOM     11  C   UNL     1      34.039 -22.011 -19.255  0.00  0.00    +0.141 C 
BRANCH  11  15
ATOM     12  S   UNL     1      36.635 -21.320 -16.290  0.00  0.00    -0.060 S 
ATOM     13  N   UNL     1      34.322 -22.344 -16.823  0.00  0.00    -0.389 NA
ATOM     14  N   UNL     1      34.977 -22.465 -14.554  0.00  0.00    -0.328 N 
ATOM     15  C   UNL     1      34.846 -21.860 -18.005  0.00  0.00    +0.109 C 
ATOM     16  C   UNL     1      36.090 -21.271 -17.915  0.00  0.00    +0.121 C 
ATOM     17  C   UNL     1      35.178 -22.114 -15.852  0.00  0.00    +0.204 C 
ATOM     18  H   UNL     1      35.662 -22.261 -13.877  0.00  0.00    +0.145 HD
ATOM     19  H   UNL     1      34.145 -22.921 -14.291  0.00  0.00    +0.145 HD
ENDBRANCH  11  15
ENDBRANCH   9  11
ENDBRANCH   4   8
BRANCH   1  20
ATOM     20  C   UNL     1      34.430 -15.294 -23.632  0.00  0.00    +0.003 C 
BRANCH  20  21
ATOM     21  C   UNL     1      33.335 -15.298 -24.708  0.00  0.00    -0.077 C 
BRANCH  21  22
ATOM     22  N   UNL     1      32.608 -14.034 -24.739  0.00  0.00    +0.386 N 
ATOM     23  H   UNL     1      31.621 -14.219 -24.918  0.00  0.00    -0.084 HD
ATOM     24  H   UNL     1      33.001 -13.449 -25.477  0.00  0.00    -0.084 HD
BRANCH  22  25
ATOM     25  C   UNL     1      32.738 -13.329 -23.471  0.00  0.00    -0.047 C 
BRANCH  25  26
ATOM     26  C   UNL     1      32.647 -11.813 -23.677  0.00  0.00    +0.112 C 
BRANCH  26  27
ATOM     27  C   UNL     1      32.062 -11.123 -22.465  0.00  0.00    +0.002 C 
ATOM     28  C   UNL     1      31.690  -9.780 -22.538  0.00  0.00    -0.002 C 
ATOM     29  C   UNL     1      31.894 -11.828 -21.273  0.00  0.00    -0.002 C 
ATOM     30  C   UNL     1      31.151  -9.143 -21.422  0.00  0.00    -0.000 C 
ATOM     31  C   UNL     1      31.354 -11.191 -20.156  0.00  0.00    -0.000 C 
ATOM     32  C   UNL     1      30.983  -9.849 -20.230  0.00  0.00    -0.000 C 
ENDBRANCH  26  27
BRANCH  26  33
ATOM     33  O   UNL     1      33.945 -11.268 -23.916  0.00  0.00    -0.382 OA
ATOM     34  H   UNL     1      33.879 -10.545 -24.558  0.00  0.00    +0.211 HD
ENDBRANCH  26  33
ENDBRANCH  25  26
ENDBRANCH  22  25
ENDBRANCH  21  22
ENDBRANCH  20  21
ENDBRANCH   1  20
TORSDOF 10
ENDMDL
