MODEL 1
REMARK VINA RESULT:      -9.8      0.000      0.000
REMARK  Name = 4514
REMARK  8 active torsions:
REMARK  status: ('A' for Active; 'I' for Inactive)
REMARK    1  A    between atoms: C_1  and  N_7
REMARK    2  A    between atoms: C_2  and  C_23
REMARK    3  A    between atoms: C_5  and  N_21
REMARK    4  A    between atoms: C_9  and  C_12
REMARK    5  A    between atoms: C_12  and  N_13
REMARK    6  A    between atoms: N_13  and  C_15
REMARK    7  A    between atoms: N_13  and  C_17
REMARK    8  A    between atoms: C_23  and  C_25
REMARK                            x       y       z     vdW  Elec       q    Type
REMARK                         _______ _______ _______ _____ _____    ______ ____
ROOT
ATOM      1  C   UNL     1      33.341 -22.531 -15.624  0.00  0.00    +0.060 C 
ATOM      2  C   UNL     1      32.673 -22.604 -16.842  0.00  0.00    +0.055 C 
ATOM      3  C   UNL     1      32.629 -22.489 -14.430  0.00  0.00    +0.017 C 
ATOM      4  C   UNL     1      31.278 -22.633 -16.866  0.00  0.00    +0.029 C 
ATOM      5  C   UNL     1      30.559 -22.590 -15.672  0.00  0.00    +0.143 C 
ATOM      6  C   UNL     1      31.234 -22.518 -14.454  0.00  0.00    +0.025 C 
ENDROOT
BRANCH   1   7
ATOM      7  N   UNL     1      34.732 -22.503 -15.574  0.00  0.00    -0.253 N 
ATOM      8  N   UNL     1      36.831 -23.179 -15.306  0.00  0.00    -0.234 NA
ATOM      9  C   UNL     1      35.576 -23.515 -15.265  0.00  0.00    +0.095 C 
ATOM     10  C   UNL     1      35.513 -21.413 -15.838  0.00  0.00    +0.091 C 
ATOM     11  C   UNL     1      36.804 -21.854 -15.666  0.00  0.00    +0.116 C 
BRANCH   9  12
ATOM     12  C   UNL     1      35.068 -24.887 -14.915  0.00  0.00    -0.014 C 
BRANCH  12  13
ATOM     13  N   UNL     1      35.516 -25.289 -13.583  0.00  0.00    +0.392 N 
ATOM     14  H   UNL     1      34.791 -25.868 -13.159  0.00  0.00    -0.079 HD
BRANCH  13  15
ATOM     15  C   UNL     1      36.744 -26.079 -13.673  0.00  0.00    -0.077 C 
ATOM     16  C   UNL     1      37.815 -25.537 -12.743  0.00  0.00    -0.025 C 
ENDBRANCH  13  15
BRANCH  13  17
ATOM     17  C   UNL     1      35.725 -24.115 -12.737  0.00  0.00    -0.077 C 
ATOM     18  C   UNL     1      34.623 -23.981 -11.700  0.00  0.00    -0.025 C 
ENDBRANCH  13  17
ENDBRANCH  12  13
ENDBRANCH   9  12
ENDBRANCH   1   7
BRANCH   5  21
ATOM     19  O   UNL     1      28.530 -21.907 -16.530  0.00  0.00    -0.126 OA
ATOM     20  O   UNL     1      28.534 -23.359 -14.883  0.00  0.00    -0.126 OA
ATOM     21  N   UNL     1      29.140 -22.620 -15.696  0.00  0.00    +0.058 N 
ENDBRANCH   5  21
BRANCH   2  23
ATOM     22  O   UNL     1      33.989 -23.682 -18.447  0.00  0.00    -0.286 OA
ATOM     23  C   UNL     1      33.391 -22.652 -18.111  0.00  0.00    +0.198 C 
BRANCH  23  25
ATOM     24 CL   UNL     1      36.165 -21.581 -18.907  0.00  0.00    -0.082 Cl
ATOM     25  C   UNL     1      33.440 -21.488 -19.044  0.00  0.00    +0.050 C 
ATOM     26  C   UNL     1      34.646 -20.956 -19.444  0.00  0.00    +0.061 C 
ATOM     27  C   UNL     1      32.230 -20.986 -19.474  0.00  0.00    +0.004 C 
ATOM     28  C   UNL     1      34.644 -19.871 -20.319  0.00  0.00    +0.011 C 
ATOM     29  C   UNL     1      32.229 -19.899 -20.350  0.00  0.00    +0.000 C 
ATOM     30  C   UNL     1      33.435 -19.341 -20.771  0.00  0.00    +0.001 C 
ENDBRANCH  23  25
ENDBRANCH   2  23
TORSDOF 8
ENDMDL
MODEL 2
REMARK VINA RESULT:      -9.1      3.289      5.243
REMARK  Name = 4514
REMARK  8 active torsions:
REMARK  status: ('A' for Active; 'I' for Inactive)
REMARK    1  A    between atoms: C_1  and  N_7
REMARK    2  A    between atoms: C_2  and  C_23
REMARK    3  A    between atoms: C_5  and  N_21
REMARK    4  A    between atoms: C_9  and  C_12
REMARK    5  A    between atoms: C_12  and  N_13
REMARK    6  A    between atoms: N_13  and  C_15
REMARK    7  A    between atoms: N_13  and  C_17
REMARK    8  A    between atoms: C_23  and  C_25
REMARK                            x       y       z     vdW  Elec       q    Type
REMARK                         _______ _______ _______ _____ _____    ______ ____
ROOT
ATOM      1  C   UNL     1      35.876 -22.766 -14.139  0.00  0.00    +0.060 C 
ATOM      2  C   UNL     1      34.829 -23.045 -15.011  0.00  0.00    +0.055 C 
ATOM      3  C   UNL     1      36.935 -21.959 -14.542  0.00  0.00    +0.017 C 
ATOM      4  C   UNL     1      34.841 -22.511 -16.301  0.00  0.00    +0.029 C 
ATOM      5  C   UNL     1      35.901 -21.702 -16.710  0.00  0.00    +0.143 C 
ATOM      6  C   UNL     1      36.948 -21.426 -15.831  0.00  0.00    +0.025 C 
ENDROOT
BRANCH   1   7
ATOM      7  N   UNL     1      35.884 -23.285 -12.847  0.00  0.00    -0.253 N 
ATOM      8  N   UNL     1      36.579 -24.340 -11.020  0.00  0.00    -0.234 NA
ATOM      9  C   UNL     1      36.866 -23.990 -12.238  0.00  0.00    +0.095 C 
ATOM     10  C   UNL     1      34.869 -23.170 -11.940  0.00  0.00    +0.091 C 
ATOM     11  C   UNL     1      35.321 -23.829 -10.820  0.00  0.00    +0.116 C 
BRANCH   9  12
ATOM     12  C   UNL     1      38.156 -24.315 -12.940  0.00  0.00    -0.014 C 
BRANCH  12  13
ATOM     13  N   UNL     1      38.265 -25.748 -13.204  0.00  0.00    +0.392 N 
ATOM     14  H   UNL     1      38.627 -26.205 -12.368  0.00  0.00    -0.079 HD
BRANCH  13  15
ATOM     15  C   UNL     1      36.950 -26.313 -13.507  0.00  0.00    -0.077 C 
ATOM     16  C   UNL     1      36.747 -26.460 -15.005  0.00  0.00    -0.025 C 
ENDBRANCH  13  15
BRANCH  13  17
ATOM     17  C   UNL     1      39.193 -25.997 -14.307  0.00  0.00    -0.077 C 
ATOM     18  C   UNL     1      39.981 -24.745 -14.655  0.00  0.00    -0.025 C 
ENDBRANCH  13  17
ENDBRANCH  12  13
ENDBRANCH   9  12
ENDBRANCH   1   7
BRANCH   5  21
ATOM     19  O   UNL     1      36.532 -20.086 -18.230  0.00  0.00    -0.126 OA
ATOM     20  O   UNL     1      35.310 -21.767 -18.938  0.00  0.00    -0.126 OA
ATOM     21  N   UNL     1      35.915 -21.159 -18.022  0.00  0.00    +0.058 N 
ENDBRANCH   5  21
BRANCH   2  23
ATOM     22  O   UNL     1      33.891 -25.067 -14.301  0.00  0.00    -0.286 OA
ATOM     23  C   UNL     1      33.703 -23.885 -14.619  0.00  0.00    +0.198 C 
BRANCH  23  25
ATOM     24 CL   UNL     1      32.384 -23.150 -17.301  0.00  0.00    -0.082 Cl
ATOM     25  C   UNL     1      32.301 -23.374 -14.582  0.00  0.00    +0.050 C 
ATOM     26  C   UNL     1      31.648 -23.026 -15.743  0.00  0.00    +0.061 C 
ATOM     27  C   UNL     1      31.709 -23.272 -13.340  0.00  0.00    +0.004 C 
ATOM     28  C   UNL     1      30.337 -22.555 -15.661  0.00  0.00    +0.011 C 
ATOM     29  C   UNL     1      30.399 -22.801 -13.259  0.00  0.00    +0.000 C 
ATOM     30  C   UNL     1      29.713 -22.442 -14.419  0.00  0.00    +0.001 C 
ENDBRANCH  23  25
ENDBRANCH   2  23
TORSDOF 8
ENDMDL
MODEL 3
REMARK VINA RESULT:      -8.9      3.290      5.171
REMARK  Name = 4514
REMARK  8 active torsions:
REMARK  status: ('A' for Active; 'I' for Inactive)
REMARK    1  A    between atoms: C_1  and  N_7
REMARK    2  A    between atoms: C_2  and  C_23
REMARK    3  A    between atoms: C_5  and  N_21
REMARK    4  A    between atoms: C_9  and  C_12
REMARK    5  A    between atoms: C_12  and  N_13
REMARK    6  A    between atoms: N_13  and  C_15
REMARK    7  A    between atoms: N_13  and  C_17
REMARK    8  A    between atoms: C_23  and  C_25
REMARK                            x       y       z     vdW  Elec       q    Type
REMARK                         _______ _______ _______ _____ _____    ______ ____
ROOT
ATOM      1  C   UNL     1      36.205 -22.156 -15.287  0.00  0.00    +0.060 C 
ATOM      2  C   UNL     1      35.118 -22.618 -16.022  0.00  0.00    +0.055 C 
ATOM      3  C   UNL     1      37.075 -21.215 -15.827  0.00  0.00    +0.017 C 
ATOM      4  C   UNL     1      34.900 -22.133 -17.313  0.00  0.00    +0.029 C 
ATOM      5  C   UNL     1      35.770 -21.191 -17.860  0.00  0.00    +0.143 C 
ATOM      6  C   UNL     1      36.857 -20.731 -17.118  0.00  0.00    +0.025 C 
ENDROOT
BRANCH   1   7
ATOM      7  N   UNL     1      36.442 -22.623 -13.996  0.00  0.00    -0.253 N 
ATOM      8  N   UNL     1      37.366 -23.733 -12.309  0.00  0.00    -0.234 NA
ATOM      9  C   UNL     1      37.397 -23.489 -13.586  0.00  0.00    +0.095 C 
ATOM     10  C   UNL     1      35.728 -22.276 -12.884  0.00  0.00    +0.091 C 
ATOM     11  C   UNL     1      36.316 -22.974 -11.856  0.00  0.00    +0.116 C 
BRANCH   9  12
ATOM     12  C   UNL     1      38.386 -24.089 -14.548  0.00  0.00    -0.014 C 
BRANCH  12  13
ATOM     13  N   UNL     1      38.706 -25.467 -14.182  0.00  0.00    +0.392 N 
ATOM     14  H   UNL     1      38.684 -25.545 -13.165  0.00  0.00    -0.079 HD
BRANCH  13  15
ATOM     15  C   UNL     1      37.714 -26.387 -14.737  0.00  0.00    -0.077 C 
ATOM     16  C   UNL     1      36.715 -26.823 -13.679  0.00  0.00    -0.025 C 
ENDBRANCH  13  15
BRANCH  13  17
ATOM     17  C   UNL     1      40.047 -25.821 -14.645  0.00  0.00    -0.077 C 
ATOM     18  C   UNL     1      40.821 -26.566 -13.571  0.00  0.00    -0.025 C 
ENDBRANCH  13  17
ENDBRANCH  12  13
ENDBRANCH   9  12
ENDBRANCH   1   7
BRANCH   5  21
ATOM     19  O   UNL     1      36.164 -19.670 -19.549  0.00  0.00    -0.126 OA
ATOM     20  O   UNL     1      34.744 -21.303 -19.922  0.00  0.00    -0.126 OA
ATOM     21  N   UNL     1      35.549 -20.698 -19.173  0.00  0.00    +0.058 N 
ENDBRANCH   5  21
BRANCH   2  23
ATOM     22  O   UNL     1      34.576 -24.748 -15.223  0.00  0.00    -0.286 OA
ATOM     23  C   UNL     1      34.187 -23.602 -15.483  0.00  0.00    +0.198 C 
BRANCH  23  25
ATOM     24 CL   UNL     1      33.124 -24.038 -12.627  0.00  0.00    -0.082 Cl
ATOM     25  C   UNL     1      32.752 -23.284 -15.225  0.00  0.00    +0.050 C 
ATOM     26  C   UNL     1      32.208 -23.454 -13.971  0.00  0.00    +0.061 C 
ATOM     27  C   UNL     1      32.016 -22.818 -16.294  0.00  0.00    +0.004 C 
ATOM     28  C   UNL     1      30.863 -23.141 -13.774  0.00  0.00    +0.011 C 
ATOM     29  C   UNL     1      30.670 -22.506 -16.097  0.00  0.00    +0.000 C 
ATOM     30  C   UNL     1      30.094 -22.668 -14.837  0.00  0.00    +0.001 C 
ENDBRANCH  23  25
ENDBRANCH   2  23
TORSDOF 8
ENDMDL
MODEL 4
REMARK VINA RESULT:      -8.8      2.043      6.075
REMARK  Name = 4514
REMARK  8 active torsions:
REMARK  status: ('A' for Active; 'I' for Inactive)
REMARK    1  A    between atoms: C_1  and  N_7
REMARK    2  A    between atoms: C_2  and  C_23
REMARK    3  A    between atoms: C_5  and  N_21
REMARK    4  A    between atoms: C_9  and  C_12
REMARK    5  A    between atoms: C_12  and  N_13
REMARK    6  A    between atoms: N_13  and  C_15
REMARK    7  A    between atoms: N_13  and  C_17
REMARK    8  A    between atoms: C_23  and  C_25
REMARK                            x       y       z     vdW  Elec       q    Type
REMARK                         _______ _______ _______ _____ _____    ______ ____
ROOT
ATOM      1  C   UNL     1      33.786 -22.828 -15.251  0.00  0.00    +0.060 C 
ATOM      2  C   UNL     1      33.832 -24.061 -14.609  0.00  0.00    +0.055 C 
ATOM      3  C   UNL     1      32.584 -22.136 -15.368  0.00  0.00    +0.017 C 
ATOM      4  C   UNL     1      32.663 -24.608 -14.077  0.00  0.00    +0.029 C 
ATOM      5  C   UNL     1      31.456 -23.920 -14.192  0.00  0.00    +0.143 C 
ATOM      6  C   UNL     1      31.416 -22.684 -14.837  0.00  0.00    +0.025 C 
ENDROOT
BRANCH   1   7
ATOM      7  N   UNL     1      34.939 -22.261 -15.787  0.00  0.00    -0.253 N 
ATOM      8  N   UNL     1      36.374 -21.447 -17.274  0.00  0.00    -0.234 NA
ATOM      9  C   UNL     1      35.203 -21.978 -17.084  0.00  0.00    +0.095 C 
ATOM     10  C   UNL     1      36.040 -21.878 -15.074  0.00  0.00    +0.091 C 
ATOM     11  C   UNL     1      36.912 -21.380 -16.013  0.00  0.00    +0.116 C 
BRANCH   9  12
ATOM     12  C   UNL     1      34.206 -22.265 -18.174  0.00  0.00    -0.014 C 
BRANCH  12  13
ATOM     13  N   UNL     1      33.872 -21.049 -18.914  0.00  0.00    +0.392 N 
ATOM     14  H   UNL     1      34.163 -20.243 -18.361  0.00  0.00    -0.079 HD
BRANCH  13  15
ATOM     15  C   UNL     1      34.583 -21.015 -20.191  0.00  0.00    -0.077 C 
ATOM     16  C   UNL     1      35.587 -19.875 -20.231  0.00  0.00    -0.025 C 
ENDBRANCH  13  15
BRANCH  13  17
ATOM     17  C   UNL     1      32.429 -20.963 -19.131  0.00  0.00    -0.077 C 
ATOM     18  C   UNL     1      32.105 -20.100 -20.339  0.00  0.00    -0.025 C 
ENDBRANCH  13  17
ENDBRANCH  12  13
ENDBRANCH   9  12
ENDBRANCH   1   7
BRANCH   5  21
ATOM     19  O   UNL     1      30.044 -24.359 -12.422  0.00  0.00    -0.126 OA
ATOM     20  O   UNL     1      29.470 -25.070 -14.418  0.00  0.00    -0.126 OA
ATOM     21  N   UNL     1      30.266 -24.476 -13.652  0.00  0.00    +0.058 N 
ENDBRANCH   5  21
BRANCH   2  23
ATOM     22  O   UNL     1      35.377 -25.676 -15.300  0.00  0.00    -0.286 OA
ATOM     23  C   UNL     1      35.075 -24.809 -14.468  0.00  0.00    +0.198 C 
BRANCH  23  25
ATOM     24 CL   UNL     1      38.065 -25.319 -14.994  0.00  0.00    -0.082 Cl
ATOM     25  C   UNL     1      36.024 -24.574 -13.340  0.00  0.00    +0.050 C 
ATOM     26  C   UNL     1      37.376 -24.781 -13.503  0.00  0.00    +0.061 C 
ATOM     27  C   UNL     1      35.479 -24.145 -12.149  0.00  0.00    +0.004 C 
ATOM     28  C   UNL     1      38.226 -24.546 -12.423  0.00  0.00    +0.011 C 
ATOM     29  C   UNL     1      36.330 -23.911 -11.068  0.00  0.00    +0.000 C 
ATOM     30  C   UNL     1      37.704 -24.112 -11.205  0.00  0.00    +0.001 C 
ENDBRANCH  23  25
ENDBRANCH   2  23
TORSDOF 8
ENDMDL
MODEL 5
REMARK VINA RESULT:      -7.9      2.712      4.862
REMARK  Name = 4514
REMARK  8 active torsions:
REMARK  status: ('A' for Active; 'I' for Inactive)
REMARK    1  A    between atoms: C_1  and  N_7
REMARK    2  A    between atoms: C_2  and  C_23
REMARK    3  A    between atoms: C_5  and  N_21
REMARK    4  A    between atoms: C_9  and  C_12
REMARK    5  A    between atoms: C_12  and  N_13
REMARK    6  A    between atoms: N_13  and  C_15
REMARK    7  A    between atoms: N_13  and  C_17
REMARK    8  A    between atoms: C_23  and  C_25
REMARK                            x       y       z     vdW  Elec       q    Type
REMARK                         _______ _______ _______ _____ _____    ______ ____
ROOT
ATOM      1  C   UNL     1      34.232 -22.985 -15.379  0.00  0.00    +0.060 C 
ATOM      2  C   UNL     1      32.947 -23.184 -15.873  0.00  0.00    +0.055 C 
ATOM      3  C   UNL     1      35.185 -22.314 -16.137  0.00  0.00    +0.017 C 
ATOM      4  C   UNL     1      32.613 -22.708 -17.142  0.00  0.00    +0.029 C 
ATOM      5  C   UNL     1      33.565 -22.036 -17.907  0.00  0.00    +0.143 C 
ATOM      6  C   UNL     1      34.851 -21.839 -17.406  0.00  0.00    +0.025 C 
ENDROOT
BRANCH   1   7
ATOM      7  N   UNL     1      34.588 -23.449 -14.115  0.00  0.00    -0.253 N 
ATOM      8  N   UNL     1      35.539 -24.680 -12.529  0.00  0.00    -0.234 NA
ATOM      9  C   UNL     1      35.395 -24.491 -13.807  0.00  0.00    +0.095 C 
ATOM     10  C   UNL     1      34.172 -22.916 -12.928  0.00  0.00    +0.091 C 
ATOM     11  C   UNL     1      34.771 -23.693 -11.964  0.00  0.00    +0.116 C 
BRANCH   9  12
ATOM     12  C   UNL     1      36.048 -25.327 -14.874  0.00  0.00    -0.014 C 
BRANCH  12  13
ATOM     13  N   UNL     1      37.483 -25.056 -14.950  0.00  0.00    +0.392 N 
ATOM     14  H   UNL     1      37.780 -25.155 -15.920  0.00  0.00    -0.079 HD
BRANCH  13  15
ATOM     15  C   UNL     1      37.768 -23.689 -14.515  0.00  0.00    -0.077 C 
ATOM     16  C   UNL     1      38.224 -22.826 -15.680  0.00  0.00    -0.025 C 
ENDBRANCH  13  15
BRANCH  13  17
ATOM     17  C   UNL     1      38.229 -26.016 -14.137  0.00  0.00    -0.077 C 
ATOM     18  C   UNL     1      39.713 -25.689 -14.123  0.00  0.00    -0.025 C 
ENDBRANCH  13  17
ENDBRANCH  12  13
ENDBRANCH   9  12
ENDBRANCH   1   7
BRANCH   5  21
ATOM     19  O   UNL     1      32.053 -21.708 -19.618  0.00  0.00    -0.126 OA
ATOM     20  O   UNL     1      34.106 -20.978 -19.884  0.00  0.00    -0.126 OA
ATOM     21  N   UNL     1      33.226 -21.551 -19.198  0.00  0.00    +0.058 N 
ENDBRANCH   5  21
BRANCH   2  23
ATOM     22  O   UNL     1      32.240 -24.821 -14.359  0.00  0.00    -0.286 OA
ATOM     23  C   UNL     1      31.925 -23.882 -15.102  0.00  0.00    +0.198 C 
BRANCH  23  25
ATOM     24 CL   UNL     1      31.046 -21.339 -13.606  0.00  0.00    -0.082 Cl
ATOM     25  C   UNL     1      30.482 -23.506 -15.167  0.00  0.00    +0.050 C 
ATOM     26  C   UNL     1      30.017 -22.381 -14.523  0.00  0.00    +0.061 C 
ATOM     27  C   UNL     1      29.657 -24.336 -15.897  0.00  0.00    +0.004 C 
ATOM     28  C   UNL     1      28.661 -22.067 -14.613  0.00  0.00    +0.011 C 
ATOM     29  C   UNL     1      28.300 -24.022 -15.987  0.00  0.00    +0.000 C 
ATOM     30  C   UNL     1      27.803 -22.888 -15.345  0.00  0.00    +0.001 C 
ENDBRANCH  23  25
ENDBRANCH   2  23
TORSDOF 8
ENDMDL
MODEL 6
REMARK VINA RESULT:      -7.8      2.991      6.938
REMARK  Name = 4514
REMARK  8 active torsions:
REMARK  status: ('A' for Active; 'I' for Inactive)
REMARK    1  A    between atoms: C_1  and  N_7
REMARK    2  A    between atoms: C_2  and  C_23
REMARK    3  A    between atoms: C_5  and  N_21
REMARK    4  A    between atoms: C_9  and  C_12
REMARK    5  A    between atoms: C_12  and  N_13
REMARK    6  A    between atoms: N_13  and  C_15
REMARK    7  A    between atoms: N_13  and  C_17
REMARK    8  A    between atoms: C_23  and  C_25
REMARK                            x       y       z     vdW  Elec       q    Type
REMARK                         _______ _______ _______ _____ _____    ______ ____
ROOT
ATOM      1  C   UNL     1      32.466 -23.152 -15.530  0.00  0.00    +0.060 C 
ATOM      2  C   UNL     1      33.833 -22.945 -15.376  0.00  0.00    +0.055 C 
ATOM      3  C   UNL     1      31.828 -22.805 -16.716  0.00  0.00    +0.017 C 
ATOM      4  C   UNL     1      34.570 -22.382 -16.419  0.00  0.00    +0.029 C 
ATOM      5  C   UNL     1      33.935 -22.030 -17.610  0.00  0.00    +0.143 C 
ATOM      6  C   UNL     1      32.565 -22.241 -17.759  0.00  0.00    +0.025 C 
ENDROOT
BRANCH   1   7
ATOM      7  N   UNL     1      31.710 -23.715 -14.504  0.00  0.00    -0.253 N 
ATOM      8  N   UNL     1      30.011 -24.101 -13.127  0.00  0.00    -0.234 NA
ATOM      9  C   UNL     1      30.452 -23.393 -14.124  0.00  0.00    +0.095 C 
ATOM     10  C   UNL     1      32.121 -24.721 -13.676  0.00  0.00    +0.091 C 
ATOM     11  C   UNL     1      31.057 -24.941 -12.835  0.00  0.00    +0.116 C 
BRANCH   9  12
ATOM     12  C   UNL     1      29.668 -22.314 -14.820  0.00  0.00    -0.014 C 
BRANCH  12  13
ATOM     13  N   UNL     1      28.269 -22.703 -14.985  0.00  0.00    +0.392 N 
ATOM     14  H   UNL     1      27.834 -22.744 -14.063  0.00  0.00    -0.079 HD
BRANCH  13  15
ATOM     15  C   UNL     1      27.554 -21.714 -15.790  0.00  0.00    -0.077 C 
ATOM     16  C   UNL     1      26.088 -21.641 -15.399  0.00  0.00    -0.025 C 
ENDBRANCH  13  15
BRANCH  13  17
ATOM     17  C   UNL     1      28.175 -24.026 -15.600  0.00  0.00    -0.077 C 
ATOM     18  C   UNL     1      27.728 -23.929 -17.049  0.00  0.00    -0.025 C 
ENDBRANCH  13  17
ENDBRANCH  12  13
ENDBRANCH   9  12
ENDBRANCH   1   7
BRANCH   5  21
ATOM     19  O   UNL     1      35.888 -21.163 -18.476  0.00  0.00    -0.126 OA
ATOM     20  O   UNL     1      34.122 -21.262 -19.776  0.00  0.00    -0.126 OA
ATOM     21  N   UNL     1      34.684 -21.457 -18.671  0.00  0.00    +0.058 N 
ENDBRANCH   5  21
BRANCH   2  23
ATOM     22  O   UNL     1      34.187 -22.796 -13.068  0.00  0.00    -0.286 OA
ATOM     23  C   UNL     1      34.531 -23.301 -14.146  0.00  0.00    +0.198 C 
BRANCH  23  25
ATOM     24 CL   UNL     1      37.002 -22.559 -12.467  0.00  0.00    -0.082 Cl
ATOM     25  C   UNL     1      35.667 -24.268 -14.125  0.00  0.00    +0.050 C 
ATOM     26  C   UNL     1      36.804 -24.003 -13.395  0.00  0.00    +0.061 C 
ATOM     27  C   UNL     1      35.514 -25.422 -14.865  0.00  0.00    +0.004 C 
ATOM     28  C   UNL     1      37.840 -24.936 -13.403  0.00  0.00    +0.011 C 
ATOM     29  C   UNL     1      36.551 -26.355 -14.873  0.00  0.00    +0.000 C 
ATOM     30  C   UNL     1      37.714 -26.113 -14.142  0.00  0.00    +0.001 C 
ENDBRANCH  23  25
ENDBRANCH   2  23
TORSDOF 8
ENDMDL
MODEL 7
REMARK VINA RESULT:      -7.8      1.725      2.708
REMARK  Name = 4514
REMARK  8 active torsions:
REMARK  status: ('A' for Active; 'I' for Inactive)
REMARK    1  A    between atoms: C_1  and  N_7
REMARK    2  A    between atoms: C_2  and  C_23
REMARK    3  A    between atoms: C_5  and  N_21
REMARK    4  A    between atoms: C_9  and  C_12
REMARK    5  A    between atoms: C_12  and  N_13
REMARK    6  A    between atoms: N_13  and  C_15
REMARK    7  A    between atoms: N_13  and  C_17
REMARK    8  A    between atoms: C_23  and  C_25
REMARK                            x       y       z     vdW  Elec       q    Type
REMARK                         _______ _______ _______ _____ _____    ______ ____
ROOT
ATOM      1  C   UNL     1      33.296 -24.075 -14.648  0.00  0.00    +0.060 C 
ATOM      2  C   UNL     1      33.243 -22.895 -15.381  0.00  0.00    +0.055 C 
ATOM      3  C   UNL     1      32.127 -24.694 -14.218  0.00  0.00    +0.017 C 
ATOM      4  C   UNL     1      32.006 -22.326 -15.688  0.00  0.00    +0.029 C 
ATOM      5  C   UNL     1      30.830 -22.941 -15.259  0.00  0.00    +0.143 C 
ATOM      6  C   UNL     1      30.890 -24.125 -14.524  0.00  0.00    +0.025 C 
ENDROOT
BRANCH   1   7
ATOM      7  N   UNL     1      34.519 -24.663 -14.331  0.00  0.00    -0.253 N 
ATOM      8  N   UNL     1      36.311 -25.267 -13.167  0.00  0.00    -0.234 NA
ATOM      9  C   UNL     1      35.187 -24.614 -13.156  0.00  0.00    +0.095 C 
ATOM     10  C   UNL     1      35.280 -25.416 -15.180  0.00  0.00    +0.091 C 
ATOM     11  C   UNL     1      36.381 -25.777 -14.440  0.00  0.00    +0.116 C 
BRANCH   9  12
ATOM     12  C   UNL     1      34.645 -23.865 -11.969  0.00  0.00    -0.014 C 
BRANCH  12  13
ATOM     13  N   UNL     1      35.575 -22.825 -11.534  0.00  0.00    +0.392 N 
ATOM     14  H   UNL     1      35.095 -21.927 -11.566  0.00  0.00    -0.079 HD
BRANCH  13  15
ATOM     15  C   UNL     1      36.007 -23.070 -10.158  0.00  0.00    -0.077 C 
ATOM     16  C   UNL     1      35.211 -24.198  -9.524  0.00  0.00    -0.025 C 
ENDBRANCH  13  15
BRANCH  13  17
ATOM     17  C   UNL     1      36.730 -22.765 -12.428  0.00  0.00    -0.077 C 
ATOM     18  C   UNL     1      38.032 -22.902 -11.656  0.00  0.00    -0.025 C 
ENDBRANCH  13  17
ENDBRANCH  12  13
ENDBRANCH   9  12
ENDBRANCH   1   7
BRANCH   5  21
ATOM     19  O   UNL     1      29.283 -22.145 -16.772  0.00  0.00    -0.126 OA
ATOM     20  O   UNL     1      28.782 -22.085 -14.636  0.00  0.00    -0.126 OA
ATOM     21  N   UNL     1      29.571 -22.363 -15.570  0.00  0.00    +0.058 N 
ENDBRANCH   5  21
BRANCH   2  23
ATOM     22  O   UNL     1      35.347 -21.929 -15.046  0.00  0.00    -0.286 OA
ATOM     23  C   UNL     1      34.451 -22.224 -15.848  0.00  0.00    +0.198 C 
BRANCH  23  25
ATOM     24 CL   UNL     1      37.116 -20.883 -16.605  0.00  0.00    -0.082 Cl
ATOM     25  C   UNL     1      34.661 -21.868 -17.282  0.00  0.00    +0.050 C 
ATOM     26  C   UNL     1      35.830 -21.266 -17.694  0.00  0.00    +0.061 C 
ATOM     27  C   UNL     1      33.638 -22.170 -18.155  0.00  0.00    +0.004 C 
ATOM     28  C   UNL     1      35.985 -20.953 -19.044  0.00  0.00    +0.011 C 
ATOM     29  C   UNL     1      33.793 -21.857 -19.505  0.00  0.00    +0.000 C 
ATOM     30  C   UNL     1      34.966 -21.248 -19.950  0.00  0.00    +0.001 C 
ENDBRANCH  23  25
ENDBRANCH   2  23
TORSDOF 8
ENDMDL
MODEL 8
REMARK VINA RESULT:      -7.7     14.852     18.177
REMARK  Name = 4514
REMARK  8 active torsions:
REMARK  status: ('A' for Active; 'I' for Inactive)
REMARK    1  A    between atoms: C_1  and  N_7
REMARK    2  A    between atoms: C_2  and  C_23
REMARK    3  A    between atoms: C_5  and  N_21
REMARK    4  A    between atoms: C_9  and  C_12
REMARK    5  A    between atoms: C_12  and  N_13
REMARK    6  A    between atoms: N_13  and  C_15
REMARK    7  A    between atoms: N_13  and  C_17
REMARK    8  A    between atoms: C_23  and  C_25
REMARK                            x       y       z     vdW  Elec       q    Type
REMARK                         _______ _______ _______ _____ _____    ______ ____
ROOT
ATOM      1  C   UNL     1      32.978  -6.878 -23.407  0.00  0.00    +0.060 C 
ATOM      2  C   UNL     1      32.202  -6.104 -24.264  0.00  0.00    +0.055 C 
ATOM      3  C   UNL     1      34.277  -7.232 -23.755  0.00  0.00    +0.017 C 
ATOM      4  C   UNL     1      32.731  -5.682 -25.484  0.00  0.00    +0.029 C 
ATOM      5  C   UNL     1      34.032  -6.035 -25.840  0.00  0.00    +0.143 C 
ATOM      6  C   UNL     1      34.805  -6.810 -24.976  0.00  0.00    +0.025 C 
ENDROOT
BRANCH   1   7
ATOM      7  N   UNL     1      32.473  -7.309 -22.183  0.00  0.00    -0.253 N 
ATOM      8  N   UNL     1      31.518  -8.606 -20.653  0.00  0.00    -0.234 NA
ATOM      9  C   UNL     1      31.889  -8.495 -21.894  0.00  0.00    +0.095 C 
ATOM     10  C   UNL     1      32.478  -6.587 -21.023  0.00  0.00    +0.091 C 
ATOM     11  C   UNL     1      31.884  -7.407 -20.094  0.00  0.00    +0.116 C 
BRANCH   9  12
ATOM     12  C   UNL     1      31.708  -9.562 -22.939  0.00  0.00    -0.014 C 
BRANCH  12  13
ATOM     13  N   UNL     1      32.443 -10.775 -22.585  0.00  0.00    +0.392 N 
ATOM     14  H   UNL     1      33.072 -10.558 -21.813  0.00  0.00    -0.079 HD
BRANCH  13  15
ATOM     15  C   UNL     1      31.520 -11.823 -22.150  0.00  0.00    -0.077 C 
ATOM     16  C   UNL     1      31.816 -12.258 -20.724  0.00  0.00    -0.025 C 
ENDBRANCH  13  15
BRANCH  13  17
ATOM     17  C   UNL     1      33.242 -11.238 -23.718  0.00  0.00    -0.077 C 
ATOM     18  C   UNL     1      32.833 -12.638 -24.145  0.00  0.00    -0.025 C 
ENDBRANCH  13  17
ENDBRANCH  12  13
ENDBRANCH   9  12
ENDBRANCH   1   7
BRANCH   5  21
ATOM     19  O   UNL     1      35.801  -5.371 -27.162  0.00  0.00    -0.126 OA
ATOM     20  O   UNL     1      33.802  -5.472 -28.064  0.00  0.00    -0.126 OA
ATOM     21  N   UNL     1      34.571  -5.606 -27.081  0.00  0.00    +0.058 N 
ENDBRANCH   5  21
BRANCH   2  23
ATOM     22  O   UNL     1      29.896  -6.485 -24.156  0.00  0.00    -0.286 OA
ATOM     23  C   UNL     1      30.838  -5.714 -23.926  0.00  0.00    +0.198 C 
BRANCH  23  25
ATOM     24 CL   UNL     1      31.095  -3.201 -25.685  0.00  0.00    -0.082 Cl
ATOM     25  C   UNL     1      30.517  -4.398 -23.300  0.00  0.00    +0.050 C 
ATOM     26  C   UNL     1      30.609  -3.232 -24.027  0.00  0.00    +0.061 C 
ATOM     27  C   UNL     1      30.129  -4.416 -21.977  0.00  0.00    +0.004 C 
ATOM     28  C   UNL     1      30.297  -2.024 -23.403  0.00  0.00    +0.011 C 
ATOM     29  C   UNL     1      29.818  -3.208 -21.352  0.00  0.00    +0.000 C 
ATOM     30  C   UNL     1      29.902  -2.012 -22.065  0.00  0.00    +0.001 C 
ENDBRANCH  23  25
ENDBRANCH   2  23
TORSDOF 8
ENDMDL
MODEL 9
REMARK VINA RESULT:      -7.4      2.465      6.041
REMARK  Name = 4514
REMARK  8 active torsions:
REMARK  status: ('A' for Active; 'I' for Inactive)
REMARK    1  A    between atoms: C_1  and  N_7
REMARK    2  A    between atoms: C_2  and  C_23
REMARK    3  A    between atoms: C_5  and  N_21
REMARK    4  A    between atoms: C_9  and  C_12
REMARK    5  A    between atoms: C_12  and  N_13
REMARK    6  A    between atoms: N_13  and  C_15
REMARK    7  A    between atoms: N_13  and  C_17
REMARK    8  A    between atoms: C_23  and  C_25
REMARK                            x       y       z     vdW  Elec       q    Type
REMARK                         _______ _______ _______ _____ _____    ______ ____
ROOT
ATOM      1  C   UNL     1      33.770 -22.735 -15.249  0.00  0.00    +0.060 C 
ATOM      2  C   UNL     1      33.856 -23.413 -14.038  0.00  0.00    +0.055 C 
ATOM      3  C   UNL     1      32.552 -22.622 -15.911  0.00  0.00    +0.017 C 
ATOM      4  C   UNL     1      32.710 -23.985 -13.482  0.00  0.00    +0.029 C 
ATOM      5  C   UNL     1      31.486 -23.875 -14.142  0.00  0.00    +0.143 C 
ATOM      6  C   UNL     1      31.407 -23.194 -15.356  0.00  0.00    +0.025 C 
ENDROOT
BRANCH   1   7
ATOM      7  N   UNL     1      34.899 -22.154 -15.822  0.00  0.00    -0.253 N 
ATOM      8  N   UNL     1      36.296 -21.367 -17.360  0.00  0.00    -0.234 NA
ATOM      9  C   UNL     1      35.146 -21.931 -17.134  0.00  0.00    +0.095 C 
ATOM     10  C   UNL     1      35.988 -21.695 -15.138  0.00  0.00    +0.091 C 
ATOM     11  C   UNL     1      36.836 -21.214 -16.107  0.00  0.00    +0.116 C 
BRANCH   9  12
ATOM     12  C   UNL     1      34.155 -22.311 -18.201  0.00  0.00    -0.014 C 
BRANCH  12  13
ATOM     13  N   UNL     1      34.393 -21.559 -19.431  0.00  0.00    +0.392 N 
ATOM     14  H   UNL     1      34.319 -22.199 -20.221  0.00  0.00    -0.079 HD
BRANCH  13  15
ATOM     15  C   UNL     1      33.387 -20.509 -19.590  0.00  0.00    -0.077 C 
ATOM     16  C   UNL     1      32.038 -20.955 -19.051  0.00  0.00    -0.025 C 
ENDBRANCH  13  15
BRANCH  13  17
ATOM     17  C   UNL     1      35.736 -20.982 -19.427  0.00  0.00    -0.077 C 
ATOM     18  C   UNL     1      35.816 -19.767 -20.337  0.00  0.00    -0.025 C 
ENDBRANCH  13  17
ENDBRANCH  12  13
ENDBRANCH   9  12
ENDBRANCH   1   7
BRANCH   5  21
ATOM     19  O   UNL     1      30.082 -24.279 -12.358  0.00  0.00    -0.126 OA
ATOM     20  O   UNL     1      29.561 -25.133 -14.312  0.00  0.00    -0.126 OA
ATOM     21  N   UNL     1      30.321 -24.457 -13.577  0.00  0.00    +0.058 N 
ENDBRANCH   5  21
BRANCH   2  23
ATOM     22  O   UNL     1      35.374 -22.795 -12.369  0.00  0.00    -0.286 OA
ATOM     23  C   UNL     1      35.118 -23.547 -13.319  0.00  0.00    +0.198 C 
BRANCH  23  25
ATOM     24 CL   UNL     1      37.821 -23.451 -11.850  0.00  0.00    -0.082 Cl
ATOM     25  C   UNL     1      36.138 -24.572 -13.684  0.00  0.00    +0.050 C 
ATOM     26  C   UNL     1      37.370 -24.591 -13.067  0.00  0.00    +0.061 C 
ATOM     27  C   UNL     1      35.784 -25.484 -14.655  0.00  0.00    +0.004 C 
ATOM     28  C   UNL     1      38.292 -25.569 -13.438  0.00  0.00    +0.011 C 
ATOM     29  C   UNL     1      36.707 -26.462 -15.026  0.00  0.00    +0.000 C 
ATOM     30  C   UNL     1      37.961 -26.504 -14.418  0.00  0.00    +0.001 C 
ENDBRANCH  23  25
ENDBRANCH   2  23
TORSDOF 8
ENDMDL
