MODEL 1
REMARK VINA RESULT:     -12.3      0.000      0.000
REMARK  Name = 46861612
REMARK  7 active torsions:
REMARK  status: ('A' for Active; 'I' for Inactive)
REMARK    1  A    between atoms: C_1  and  N_2
REMARK    2  A    between atoms: C_1  and  C_17
REMARK    3  A    between atoms: N_3  and  C_11
REMARK    4  A    between atoms: C_17  and  C_18
REMARK    5  A    between atoms: C_18  and  C_19
REMARK    6  A    between atoms: C_19  and  O_20
REMARK    7  A    between atoms: O_20  and  C_24
REMARK                            x       y       z     vdW  Elec       q    Type
REMARK                         _______ _______ _______ _____ _____    ______ ____
ROOT
ATOM      1  C   UNL     1      34.013 -15.524 -24.176  0.00  0.00    -0.077 C 
ENDROOT
BRANCH   1   2
ATOM      2  N   UNL     1      34.567 -16.617 -23.378  0.00  0.00    +0.389 N 
ATOM      3  N   UNL     1      34.540 -18.665 -21.387  0.00  0.00    -0.311 N 
ATOM      4  C   UNL     1      34.564 -16.266 -21.952  0.00  0.00    -0.055 C 
ATOM      5  C   UNL     1      33.799 -17.849 -23.591  0.00  0.00    -0.055 C 
ATOM      6  C   UNL     1      34.402 -19.016 -22.804  0.00  0.00    +0.068 C 
ATOM      7  C   UNL     1      35.194 -17.379 -21.112  0.00  0.00    +0.068 C 
ATOM      8  H   UNL     1      35.530 -16.772 -23.677  0.00  0.00    -0.080 HD
BRANCH   3  11
ATOM      9 CL   UNL     1      31.948 -19.824 -20.430  0.00  0.00    -0.080 Cl
ATOM     10 CL   UNL     1      32.331 -22.136 -18.236  0.00  0.00    -0.081 Cl
ATOM     11  C   UNL     1      34.653 -19.679 -20.429  0.00  0.00    +0.059 C 
ATOM     12  C   UNL     1      33.528 -20.307 -19.895  0.00  0.00    +0.081 C 
ATOM     13  C   UNL     1      35.929 -20.056 -20.010  0.00  0.00    +0.015 C 
ATOM     14  C   UNL     1      33.680 -21.314 -18.940  0.00  0.00    +0.069 C 
ATOM     15  C   UNL     1      36.080 -21.063 -19.056  0.00  0.00    +0.002 C 
ATOM     16  C   UNL     1      34.955 -21.691 -18.521  0.00  0.00    +0.012 C 
ENDBRANCH   3  11
ENDBRANCH   1   2
BRANCH   1  17
ATOM     17  C   UNL     1      34.082 -14.210 -23.400  0.00  0.00    -0.019 C 
BRANCH  17  18
ATOM     18  C   UNL     1      32.798 -13.400 -23.569  0.00  0.00    +0.045 C 
BRANCH  18  19
ATOM     19  C   UNL     1      32.301 -12.851 -22.239  0.00  0.00    +0.205 C 
BRANCH  19  20
ATOM     20  O   UNL     1      31.315 -11.853 -22.468  0.00  0.00    -0.475 OA
BRANCH  20  24
ATOM     21  O   UNL     1      31.675  -7.321 -19.328  0.00  0.00    -0.464 OA
ATOM     22  O   UNL     1      32.234  -4.826 -21.881  0.00  0.00    -0.271 OA
ATOM     23  N   UNL     1      31.948  -7.093 -22.133  0.00  0.00    -0.278 N 
ATOM     24  C   UNL     1      31.395 -10.717 -21.704  0.00  0.00    +0.140 C 
ATOM     25  C   UNL     1      31.615  -9.482 -22.313  0.00  0.00    +0.055 C 
ATOM     26  C   UNL     1      31.689  -8.329 -21.530  0.00  0.00    +0.088 C 
ATOM     27  C   UNL     1      31.261 -10.800 -20.318  0.00  0.00    +0.040 C 
ATOM     28  C   UNL     1      31.553  -8.409 -20.145  0.00  0.00    +0.153 C 
ATOM     29  C   UNL     1      31.347  -9.647 -19.536  0.00  0.00    +0.041 C 
ATOM     30  C   UNL     1      31.466  -6.081 -19.976  0.00  0.00    +0.290 C 
ATOM     31  C   UNL     1      31.948  -5.924 -21.409  0.00  0.00    +0.271 C 
ATOM     32  H   UNL     1      32.132  -7.060 -23.099  0.00  0.00    +0.155 HD
ENDBRANCH  20  24
ENDBRANCH  19  20
ENDBRANCH  18  19
ENDBRANCH  17  18
ENDBRANCH   1  17
TORSDOF 7
ENDMDL
MODEL 2
REMARK VINA RESULT:     -12.2      6.585     12.616
REMARK  Name = 46861612
REMARK  7 active torsions:
REMARK  status: ('A' for Active; 'I' for Inactive)
REMARK    1  A    between atoms: C_1  and  N_2
REMARK    2  A    between atoms: C_1  and  C_17
REMARK    3  A    between atoms: N_3  and  C_11
REMARK    4  A    between atoms: C_17  and  C_18
REMARK    5  A    between atoms: C_18  and  C_19
REMARK    6  A    between atoms: C_19  and  O_20
REMARK    7  A    between atoms: O_20  and  C_24
REMARK                            x       y       z     vdW  Elec       q    Type
REMARK                         _______ _______ _______ _____ _____    ______ ____
ROOT
ATOM      1  C   UNL     1      35.282 -21.106 -19.484  0.00  0.00    -0.077 C 
ENDROOT
BRANCH   1   2
ATOM      2  N   UNL     1      35.193 -20.188 -20.618  0.00  0.00    +0.389 N 
ATOM      3  N   UNL     1      34.591 -17.731 -21.944  0.00  0.00    -0.311 N 
ATOM      4  C   UNL     1      33.799 -19.795 -20.856  0.00  0.00    -0.055 C 
ATOM      5  C   UNL     1      36.015 -18.996 -20.381  0.00  0.00    -0.055 C 
ATOM      6  C   UNL     1      35.976 -18.052 -21.585  0.00  0.00    +0.068 C 
ATOM      7  C   UNL     1      33.686 -18.881 -22.077  0.00  0.00    +0.068 C 
ATOM      8  H   UNL     1      35.545 -20.672 -21.446  0.00  0.00    -0.080 HD
BRANCH   3  11
ATOM      9 CL   UNL     1      34.213 -15.206 -20.376  0.00  0.00    -0.080 Cl
ATOM     10 CL   UNL     1      33.591 -12.653 -22.221  0.00  0.00    -0.081 Cl
ATOM     11  C   UNL     1      34.318 -16.588 -22.704  0.00  0.00    +0.059 C 
ATOM     12  C   UNL     1      34.119 -15.343 -22.105  0.00  0.00    +0.081 C 
ATOM     13  C   UNL     1      34.246 -16.715 -24.090  0.00  0.00    +0.015 C 
ATOM     14  C   UNL     1      33.848 -14.226 -22.894  0.00  0.00    +0.069 C 
ATOM     15  C   UNL     1      33.976 -15.597 -24.880  0.00  0.00    +0.002 C 
ATOM     16  C   UNL     1      33.776 -14.352 -24.281  0.00  0.00    +0.012 C 
ENDBRANCH   3  11
ENDBRANCH   1   2
BRANCH   1  17
ATOM     17  C   UNL     1      33.916 -21.265 -18.820  0.00  0.00    -0.019 C 
BRANCH  17  18
ATOM     18  C   UNL     1      33.506 -22.734 -18.740  0.00  0.00    +0.045 C 
BRANCH  18  19
ATOM     19  C   UNL     1      33.149 -23.142 -17.317  0.00  0.00    +0.205 C 
BRANCH  19  20
ATOM     20  O   UNL     1      33.734 -22.232 -16.395  0.00  0.00    -0.475 OA
BRANCH  20  24
ATOM     21  O   UNL     1      38.257 -23.896 -13.692  0.00  0.00    -0.464 OA
ATOM     22  O   UNL     1      36.774 -26.206 -11.342  0.00  0.00    -0.271 OA
ATOM     23  N   UNL     1      35.734 -24.941 -12.956  0.00  0.00    -0.278 N 
ATOM     24  C   UNL     1      34.848 -22.664 -15.722  0.00  0.00    +0.140 C 
ATOM     25  C   UNL     1      34.722 -23.595 -14.691  0.00  0.00    +0.055 C 
ATOM     26  C   UNL     1      35.861 -24.036 -14.015  0.00  0.00    +0.088 C 
ATOM     27  C   UNL     1      36.105 -22.168 -16.066  0.00  0.00    +0.040 C 
ATOM     28  C   UNL     1      37.118 -23.544 -14.359  0.00  0.00    +0.153 C 
ATOM     29  C   UNL     1      37.241 -22.601 -15.381  0.00  0.00    +0.041 C 
ATOM     30  C   UNL     1      38.159 -25.115 -12.981  0.00  0.00    +0.290 C 
ATOM     31  C   UNL     1      36.836 -25.461 -12.318  0.00  0.00    +0.271 C 
ATOM     32  H   UNL     1      34.836 -25.213 -12.661  0.00  0.00    +0.155 HD
ENDBRANCH  20  24
ENDBRANCH  19  20
ENDBRANCH  18  19
ENDBRANCH  17  18
ENDBRANCH   1  17
TORSDOF 7
ENDMDL
MODEL 3
REMARK VINA RESULT:     -12.1      4.803     11.118
REMARK  Name = 46861612
REMARK  7 active torsions:
REMARK  status: ('A' for Active; 'I' for Inactive)
REMARK    1  A    between atoms: C_1  and  N_2
REMARK    2  A    between atoms: C_1  and  C_17
REMARK    3  A    between atoms: N_3  and  C_11
REMARK    4  A    between atoms: C_17  and  C_18
REMARK    5  A    between atoms: C_18  and  C_19
REMARK    6  A    between atoms: C_19  and  O_20
REMARK    7  A    between atoms: O_20  and  C_24
REMARK                            x       y       z     vdW  Elec       q    Type
REMARK                         _______ _______ _______ _____ _____    ______ ____
ROOT
ATOM      1  C   UNL     1      34.037 -16.134 -24.447  0.00  0.00    -0.077 C 
ENDROOT
BRANCH   1   2
ATOM      2  N   UNL     1      33.950 -14.711 -24.123  0.00  0.00    +0.389 N 
ATOM      3  N   UNL     1      32.754 -12.348 -23.053  0.00  0.00    -0.311 N 
ATOM      4  C   UNL     1      32.789 -14.102 -24.783  0.00  0.00    -0.055 C 
ATOM      5  C   UNL     1      33.857 -14.518 -22.672  0.00  0.00    -0.055 C 
ATOM      6  C   UNL     1      33.823 -13.029 -22.316  0.00  0.00    +0.068 C 
ATOM      7  C   UNL     1      32.720 -12.600 -24.500  0.00  0.00    +0.068 C 
ATOM      8  H   UNL     1      34.798 -14.256 -24.463  0.00  0.00    -0.080 HD
BRANCH   3  11
ATOM      9 CL   UNL     1      31.591 -12.399 -20.292  0.00  0.00    -0.080 Cl
ATOM     10 CL   UNL     1      30.489  -9.540 -19.332  0.00  0.00    -0.081 Cl
ATOM     11  C   UNL     1      32.261 -11.124 -22.587  0.00  0.00    +0.059 C 
ATOM     12  C   UNL     1      31.690 -11.002 -21.319  0.00  0.00    +0.081 C 
ATOM     13  C   UNL     1      32.349 -10.012 -23.423  0.00  0.00    +0.015 C 
ATOM     14  C   UNL     1      31.208  -9.765 -20.889  0.00  0.00    +0.069 C 
ATOM     15  C   UNL     1      31.867  -8.776 -22.992  0.00  0.00    +0.002 C 
ATOM     16  C   UNL     1      31.296  -8.653 -21.725  0.00  0.00    +0.012 C 
ENDBRANCH   3  11
ENDBRANCH   1   2
BRANCH   1  17
ATOM     17  C   UNL     1      34.498 -16.930 -23.227  0.00  0.00    -0.019 C 
BRANCH  17  18
ATOM     18  C   UNL     1      34.144 -18.409 -23.365  0.00  0.00    +0.045 C 
BRANCH  18  19
ATOM     19  C   UNL     1      34.558 -19.203 -22.133  0.00  0.00    +0.205 C 
BRANCH  19  20
ATOM     20  O   UNL     1      33.412 -19.506 -21.349  0.00  0.00    -0.475 OA
BRANCH  20  24
ATOM     21  O   UNL     1      34.281 -22.626 -16.872  0.00  0.00    -0.464 OA
ATOM     22  O   UNL     1      30.868 -23.214 -15.840  0.00  0.00    -0.271 OA
ATOM     23  N   UNL     1      31.631 -21.997 -17.635  0.00  0.00    -0.278 N 
ATOM     24  C   UNL     1      33.610 -20.291 -20.242  0.00  0.00    +0.140 C 
ATOM     25  C   UNL     1      32.516 -20.756 -19.512  0.00  0.00    +0.055 C 
ATOM     26  C   UNL     1      32.725 -21.560 -18.391  0.00  0.00    +0.088 C 
ATOM     27  C   UNL     1      34.906 -20.619 -19.844  0.00  0.00    +0.040 C 
ATOM     28  C   UNL     1      34.019 -21.892 -17.994  0.00  0.00    +0.153 C 
ATOM     29  C   UNL     1      35.112 -21.414 -18.716  0.00  0.00    +0.041 C 
ATOM     30  C   UNL     1      33.194 -23.414 -16.427  0.00  0.00    +0.290 C 
ATOM     31  C   UNL     1      31.788 -22.856 -16.572  0.00  0.00    +0.271 C 
ATOM     32  H   UNL     1      30.729 -21.684 -17.870  0.00  0.00    +0.155 HD
ENDBRANCH  20  24
ENDBRANCH  19  20
ENDBRANCH  18  19
ENDBRANCH  17  18
ENDBRANCH   1  17
TORSDOF 7
ENDMDL
MODEL 4
REMARK VINA RESULT:     -12.1      5.009     11.568
REMARK  Name = 46861612
REMARK  7 active torsions:
REMARK  status: ('A' for Active; 'I' for Inactive)
REMARK    1  A    between atoms: C_1  and  N_2
REMARK    2  A    between atoms: C_1  and  C_17
REMARK    3  A    between atoms: N_3  and  C_11
REMARK    4  A    between atoms: C_17  and  C_18
REMARK    5  A    between atoms: C_18  and  C_19
REMARK    6  A    between atoms: C_19  and  O_20
REMARK    7  A    between atoms: O_20  and  C_24
REMARK                            x       y       z     vdW  Elec       q    Type
REMARK                         _______ _______ _______ _____ _____    ______ ____
ROOT
ATOM      1  C   UNL     1      32.427 -13.540 -21.302  0.00  0.00    -0.077 C 
ENDROOT
BRANCH   1   2
ATOM      2  N   UNL     1      31.830 -12.327 -21.860  0.00  0.00    +0.389 N 
ATOM      3  N   UNL     1      31.479  -9.514 -22.205  0.00  0.00    -0.311 N 
ATOM      4  C   UNL     1      31.216 -11.520 -20.799  0.00  0.00    -0.055 C 
ATOM      5  C   UNL     1      32.841 -11.534 -22.569  0.00  0.00    -0.055 C 
ATOM      6  C   UNL     1      32.218 -10.291 -23.207  0.00  0.00    +0.068 C 
ATOM      7  C   UNL     1      30.537 -10.277 -21.377  0.00  0.00    +0.068 C 
ATOM      8  H   UNL     1      31.106 -12.606 -22.523  0.00  0.00    -0.080 HD
BRANCH   3  11
ATOM      9 CL   UNL     1      31.940  -7.681 -19.880  0.00  0.00    -0.080 Cl
ATOM     10 CL   UNL     1      31.270  -4.611 -20.537  0.00  0.00    -0.081 Cl
ATOM     11  C   UNL     1      31.203  -8.162 -22.442  0.00  0.00    +0.059 C 
ATOM     12  C   UNL     1      31.371  -7.198 -21.448  0.00  0.00    +0.081 C 
ATOM     13  C   UNL     1      30.748  -7.790 -23.706  0.00  0.00    +0.015 C 
ATOM     14  C   UNL     1      31.084  -5.860 -21.720  0.00  0.00    +0.069 C 
ATOM     15  C   UNL     1      30.461  -6.452 -23.978  0.00  0.00    +0.002 C 
ATOM     16  C   UNL     1      30.629  -5.487 -22.984  0.00  0.00    +0.012 C 
ENDBRANCH   3  11
ENDBRANCH   1   2
BRANCH   1  17
ATOM     17  C   UNL     1      33.816 -13.770 -21.895  0.00  0.00    -0.019 C 
BRANCH  17  18
ATOM     18  C   UNL     1      34.192 -15.250 -21.865  0.00  0.00    +0.045 C 
BRANCH  18  19
ATOM     19  C   UNL     1      34.831 -15.694 -23.174  0.00  0.00    +0.205 C 
BRANCH  19  20
ATOM     20  O   UNL     1      34.556 -17.070 -23.402  0.00  0.00    -0.475 OA
BRANCH  20  24
ATOM     21  O   UNL     1      35.626 -20.482 -19.190  0.00  0.00    -0.464 OA
ATOM     22  O   UNL     1      32.336 -21.879 -18.657  0.00  0.00    -0.271 OA
ATOM     23  N   UNL     1      32.994 -20.317 -20.211  0.00  0.00    -0.278 N 
ATOM     24  C   UNL     1      34.808 -17.930 -22.364  0.00  0.00    +0.140 C 
ATOM     25  C   UNL     1      33.773 -18.696 -21.828  0.00  0.00    +0.055 C 
ATOM     26  C   UNL     1      34.037 -19.575 -20.776  0.00  0.00    +0.088 C 
ATOM     27  C   UNL     1      36.097 -18.034 -21.842  0.00  0.00    +0.040 C 
ATOM     28  C   UNL     1      35.325 -19.682 -20.256  0.00  0.00    +0.153 C 
ATOM     29  C   UNL     1      36.356 -18.904 -20.783  0.00  0.00    +0.041 C 
ATOM     30  C   UNL     1      34.697 -21.525 -18.966  0.00  0.00    +0.290 C 
ATOM     31  C   UNL     1      33.226 -21.252 -19.229  0.00  0.00    +0.271 C 
ATOM     32  H   UNL     1      32.074 -20.168 -20.525  0.00  0.00    +0.155 HD
ENDBRANCH  20  24
ENDBRANCH  19  20
ENDBRANCH  18  19
ENDBRANCH  17  18
ENDBRANCH   1  17
TORSDOF 7
ENDMDL
MODEL 5
REMARK VINA RESULT:     -12.1      5.007     11.330
REMARK  Name = 46861612
REMARK  7 active torsions:
REMARK  status: ('A' for Active; 'I' for Inactive)
REMARK    1  A    between atoms: C_1  and  N_2
REMARK    2  A    between atoms: C_1  and  C_17
REMARK    3  A    between atoms: N_3  and  C_11
REMARK    4  A    between atoms: C_17  and  C_18
REMARK    5  A    between atoms: C_18  and  C_19
REMARK    6  A    between atoms: C_19  and  O_20
REMARK    7  A    between atoms: O_20  and  C_24
REMARK                            x       y       z     vdW  Elec       q    Type
REMARK                         _______ _______ _______ _____ _____    ______ ____
ROOT
ATOM      1  C   UNL     1      34.204 -16.506 -24.012  0.00  0.00    -0.077 C 
ENDROOT
BRANCH   1   2
ATOM      2  N   UNL     1      34.087 -15.065 -23.794  0.00  0.00    +0.389 N 
ATOM      3  N   UNL     1      32.825 -12.652 -22.934  0.00  0.00    -0.311 N 
ATOM      4  C   UNL     1      32.942 -14.522 -24.533  0.00  0.00    -0.055 C 
ATOM      5  C   UNL     1      33.942 -14.772 -22.363  0.00  0.00    -0.055 C 
ATOM      6  C   UNL     1      33.877 -13.263 -22.115  0.00  0.00    +0.068 C 
ATOM      7  C   UNL     1      32.843 -13.006 -24.359  0.00  0.00    +0.068 C 
ATOM      8  H   UNL     1      34.941 -14.622 -24.136  0.00  0.00    -0.080 HD
BRANCH   3  11
ATOM      9 CL   UNL     1      31.681 -12.492 -20.169  0.00  0.00    -0.080 Cl
ATOM     10 CL   UNL     1      30.504  -9.592 -19.452  0.00  0.00    -0.081 Cl
ATOM     11  C   UNL     1      32.299 -11.406 -22.572  0.00  0.00    +0.059 C 
ATOM     12  C   UNL     1      31.734 -11.189 -21.315  0.00  0.00    +0.081 C 
ATOM     13  C   UNL     1      32.350 -10.369 -23.503  0.00  0.00    +0.015 C 
ATOM     14  C   UNL     1      31.219  -9.933 -20.990  0.00  0.00    +0.069 C 
ATOM     15  C   UNL     1      31.836  -9.114 -23.178  0.00  0.00    +0.002 C 
ATOM     16  C   UNL     1      31.270  -8.896 -21.922  0.00  0.00    +0.012 C 
ENDBRANCH   3  11
ENDBRANCH   1   2
BRANCH   1  17
ATOM     17  C   UNL     1      34.747 -17.192 -22.760  0.00  0.00    -0.019 C 
BRANCH  17  18
ATOM     18  C   UNL     1      34.187 -18.605 -22.616  0.00  0.00    +0.045 C 
BRANCH  18  19
ATOM     19  C   UNL     1      34.079 -19.021 -21.155  0.00  0.00    +0.205 C 
BRANCH  19  20
ATOM     20  O   UNL     1      35.020 -20.049 -20.876  0.00  0.00    -0.475 OA
BRANCH  20  24
ATOM     21  O   UNL     1      34.258 -22.916 -16.215  0.00  0.00    -0.464 OA
ATOM     22  O   UNL     1      37.585 -22.742 -14.815  0.00  0.00    -0.271 OA
ATOM     23  N   UNL     1      36.814 -21.851 -16.790  0.00  0.00    -0.278 N 
ATOM     24  C   UNL     1      34.845 -20.748 -19.710  0.00  0.00    +0.140 C 
ATOM     25  C   UNL     1      35.918 -20.929 -18.837  0.00  0.00    +0.055 C 
ATOM     26  C   UNL     1      35.731 -21.636 -17.649  0.00  0.00    +0.088 C 
ATOM     27  C   UNL     1      33.594 -21.282 -19.400  0.00  0.00    +0.040 C 
ATOM     28  C   UNL     1      34.482 -22.167 -17.335  0.00  0.00    +0.153 C 
ATOM     29  C   UNL     1      33.413 -21.998 -18.216  0.00  0.00    +0.041 C 
ATOM     30  C   UNL     1      35.207 -22.717 -15.185  0.00  0.00    +0.290 C 
ATOM     31  C   UNL     1      36.655 -22.471 -15.572  0.00  0.00    +0.271 C 
ATOM     32  H   UNL     1      37.710 -21.551 -17.062  0.00  0.00    +0.155 HD
ENDBRANCH  20  24
ENDBRANCH  19  20
ENDBRANCH  18  19
ENDBRANCH  17  18
ENDBRANCH   1  17
TORSDOF 7
ENDMDL
MODEL 6
REMARK VINA RESULT:     -11.9      3.958      6.811
REMARK  Name = 46861612
REMARK  7 active torsions:
REMARK  status: ('A' for Active; 'I' for Inactive)
REMARK    1  A    between atoms: C_1  and  N_2
REMARK    2  A    between atoms: C_1  and  C_17
REMARK    3  A    between atoms: N_3  and  C_11
REMARK    4  A    between atoms: C_17  and  C_18
REMARK    5  A    between atoms: C_18  and  C_19
REMARK    6  A    between atoms: C_19  and  O_20
REMARK    7  A    between atoms: O_20  and  C_24
REMARK                            x       y       z     vdW  Elec       q    Type
REMARK                         _______ _______ _______ _____ _____    ______ ____
ROOT
ATOM      1  C   UNL     1      35.078 -20.703 -19.876  0.00  0.00    -0.077 C 
ENDROOT
BRANCH   1   2
ATOM      2  N   UNL     1      34.988 -20.965 -18.440  0.00  0.00    +0.389 N 
ATOM      3  N   UNL     1      35.355 -22.461 -16.035  0.00  0.00    -0.311 N 
ATOM      4  C   UNL     1      34.188 -22.169 -18.185  0.00  0.00    -0.055 C 
ATOM      5  C   UNL     1      36.328 -21.125 -17.862  0.00  0.00    -0.055 C 
ATOM      6  C   UNL     1      36.251 -21.344 -16.349  0.00  0.00    +0.068 C 
ATOM      7  C   UNL     1      34.038 -22.421 -16.684  0.00  0.00    +0.068 C 
ATOM      8  H   UNL     1      34.532 -20.166 -17.999  0.00  0.00    -0.080 HD
BRANCH   3  11
ATOM      9 CL   UNL     1      38.084 -23.495 -15.353  0.00  0.00    -0.080 Cl
ATOM     10 CL   UNL     1      38.203 -24.962 -12.499  0.00  0.00    -0.081 Cl
ATOM     11  C   UNL     1      35.460 -23.109 -14.799  0.00  0.00    +0.059 C 
ATOM     12  C   UNL     1      36.671 -23.640 -14.353  0.00  0.00    +0.081 C 
ATOM     13  C   UNL     1      34.317 -23.216 -14.007  0.00  0.00    +0.015 C 
ATOM     14  C   UNL     1      36.737 -24.280 -13.115  0.00  0.00    +0.069 C 
ATOM     15  C   UNL     1      34.384 -23.855 -12.769  0.00  0.00    +0.002 C 
ATOM     16  C   UNL     1      35.594 -24.387 -12.323  0.00  0.00    +0.012 C 
ENDBRANCH   3  11
ENDBRANCH   1   2
BRANCH   1  17
ATOM     17  C   UNL     1      33.852 -19.925 -20.352  0.00  0.00    -0.019 C 
BRANCH  17  18
ATOM     18  C   UNL     1      34.193 -19.027 -21.539  0.00  0.00    +0.045 C 
BRANCH  18  19
ATOM     19  C   UNL     1      35.439 -18.193 -21.273  0.00  0.00    +0.205 C 
BRANCH  19  20
ATOM     20  O   UNL     1      35.087 -17.018 -20.555  0.00  0.00    -0.475 OA
BRANCH  20  24
ATOM     21  O   UNL     1      32.803 -12.960 -23.528  0.00  0.00    -0.464 OA
ATOM     22  O   UNL     1      31.104 -11.138 -20.910  0.00  0.00    -0.271 OA
ATOM     23  N   UNL     1      32.379 -13.044 -20.733  0.00  0.00    -0.278 N 
ATOM     24  C   UNL     1      34.523 -15.998 -21.277  0.00  0.00    +0.140 C 
ATOM     25  C   UNL     1      33.751 -15.032 -20.632  0.00  0.00    +0.055 C 
ATOM     26  C   UNL     1      33.184 -13.992 -21.371  0.00  0.00    +0.088 C 
ATOM     27  C   UNL     1      34.718 -15.930 -22.656  0.00  0.00    +0.040 C 
ATOM     28  C   UNL     1      33.381 -13.921 -22.749  0.00  0.00    +0.153 C 
ATOM     29  C   UNL     1      34.142 -14.897 -23.395  0.00  0.00    +0.041 C 
ATOM     30  C   UNL     1      32.409 -11.799 -22.821  0.00  0.00    +0.290 C 
ATOM     31  C   UNL     1      31.870 -11.960 -21.410  0.00  0.00    +0.271 C 
ATOM     32  H   UNL     1      32.172 -13.153 -19.777  0.00  0.00    +0.155 HD
ENDBRANCH  20  24
ENDBRANCH  19  20
ENDBRANCH  18  19
ENDBRANCH  17  18
ENDBRANCH   1  17
TORSDOF 7
ENDMDL
MODEL 7
REMARK VINA RESULT:     -11.8      3.395      6.133
REMARK  Name = 46861612
REMARK  7 active torsions:
REMARK  status: ('A' for Active; 'I' for Inactive)
REMARK    1  A    between atoms: C_1  and  N_2
REMARK    2  A    between atoms: C_1  and  C_17
REMARK    3  A    between atoms: N_3  and  C_11
REMARK    4  A    between atoms: C_17  and  C_18
REMARK    5  A    between atoms: C_18  and  C_19
REMARK    6  A    between atoms: C_19  and  O_20
REMARK    7  A    between atoms: O_20  and  C_24
REMARK                            x       y       z     vdW  Elec       q    Type
REMARK                         _______ _______ _______ _____ _____    ______ ____
ROOT
ATOM      1  C   UNL     1      35.365 -20.491 -20.122  0.00  0.00    -0.077 C 
ENDROOT
BRANCH   1   2
ATOM      2  N   UNL     1      35.015 -21.483 -19.107  0.00  0.00    +0.389 N 
ATOM      3  N   UNL     1      33.863 -22.426 -16.670  0.00  0.00    -0.311 N 
ATOM      4  C   UNL     1      35.622 -21.137 -17.816  0.00  0.00    -0.055 C 
ATOM      5  C   UNL     1      33.558 -21.581 -18.963  0.00  0.00    -0.055 C 
ATOM      6  C   UNL     1      33.176 -22.658 -17.945  0.00  0.00    +0.068 C 
ATOM      7  C   UNL     1      35.311 -22.199 -16.760  0.00  0.00    +0.068 C 
ATOM      8  H   UNL     1      35.378 -22.388 -19.409  0.00  0.00    -0.080 HD
BRANCH   3  11
ATOM      9 CL   UNL     1      30.876 -22.445 -16.429  0.00  0.00    -0.080 Cl
ATOM     10 CL   UNL     1      29.836 -23.778 -13.700  0.00  0.00    -0.081 Cl
ATOM     11  C   UNL     1      33.358 -22.999 -15.496  0.00  0.00    +0.059 C 
ATOM     12  C   UNL     1      31.986 -23.074 -15.251  0.00  0.00    +0.081 C 
ATOM     13  C   UNL     1      34.263 -23.500 -14.561  0.00  0.00    +0.015 C 
ATOM     14  C   UNL     1      31.521 -23.651 -14.070  0.00  0.00    +0.069 C 
ATOM     15  C   UNL     1      33.796 -24.078 -13.380  0.00  0.00    +0.002 C 
ATOM     16  C   UNL     1      32.425 -24.152 -13.134  0.00  0.00    +0.012 C 
ENDBRANCH   3  11
ENDBRANCH   1   2
BRANCH   1  17
ATOM     17  C   UNL     1      34.117 -19.744 -20.588  0.00  0.00    -0.019 C 
BRANCH  17  18
ATOM     18  C   UNL     1      34.442 -18.783 -21.731  0.00  0.00    +0.045 C 
BRANCH  18  19
ATOM     19  C   UNL     1      35.516 -17.780 -21.333  0.00  0.00    +0.205 C 
BRANCH  19  20
ATOM     20  O   UNL     1      34.938 -16.736 -20.562  0.00  0.00    -0.475 OA
BRANCH  20  24
ATOM     21  O   UNL     1      32.660 -12.592 -23.420  0.00  0.00    -0.464 OA
ATOM     22  O   UNL     1      30.866 -10.910 -20.772  0.00  0.00    -0.271 OA
ATOM     23  N   UNL     1      32.168 -12.801 -20.643  0.00  0.00    -0.278 N 
ATOM     24  C   UNL     1      34.375 -15.695 -21.255  0.00  0.00    +0.140 C 
ATOM     25  C   UNL     1      33.570 -14.770 -20.590  0.00  0.00    +0.055 C 
ATOM     26  C   UNL     1      33.005 -13.709 -21.299  0.00  0.00    +0.088 C 
ATOM     27  C   UNL     1      34.603 -15.566 -22.625  0.00  0.00    +0.040 C 
ATOM     28  C   UNL     1      33.235 -13.576 -22.667  0.00  0.00    +0.153 C 
ATOM     29  C   UNL     1      34.027 -14.511 -23.334  0.00  0.00    +0.041 C 
ATOM     30  C   UNL     1      32.230 -11.469 -22.676  0.00  0.00    +0.290 C 
ATOM     31  C   UNL     1      31.658 -11.697 -21.287  0.00  0.00    +0.271 C 
ATOM     32  H   UNL     1      31.940 -12.954 -19.698  0.00  0.00    +0.155 HD
ENDBRANCH  20  24
ENDBRANCH  19  20
ENDBRANCH  18  19
ENDBRANCH  17  18
ENDBRANCH   1  17
TORSDOF 7
ENDMDL
MODEL 8
REMARK VINA RESULT:     -11.8      5.523     11.720
REMARK  Name = 46861612
REMARK  7 active torsions:
REMARK  status: ('A' for Active; 'I' for Inactive)
REMARK    1  A    between atoms: C_1  and  N_2
REMARK    2  A    between atoms: C_1  and  C_17
REMARK    3  A    between atoms: N_3  and  C_11
REMARK    4  A    between atoms: C_17  and  C_18
REMARK    5  A    between atoms: C_18  and  C_19
REMARK    6  A    between atoms: C_19  and  O_20
REMARK    7  A    between atoms: O_20  and  C_24
REMARK                            x       y       z     vdW  Elec       q    Type
REMARK                         _______ _______ _______ _____ _____    ______ ____
ROOT
ATOM      1  C   UNL     1      35.074 -18.312 -22.474  0.00  0.00    -0.077 C 
ENDROOT
BRANCH   1   2
ATOM      2  N   UNL     1      34.969 -16.855 -22.550  0.00  0.00    +0.389 N 
ATOM      3  N   UNL     1      33.626 -14.335 -22.577  0.00  0.00    -0.311 N 
ATOM      4  C   UNL     1      34.165 -16.455 -23.711  0.00  0.00    -0.055 C 
ATOM      5  C   UNL     1      34.374 -16.317 -21.321  0.00  0.00    -0.055 C 
ATOM      6  C   UNL     1      34.311 -14.789 -21.363  0.00  0.00    +0.068 C 
ATOM      7  C   UNL     1      34.097 -14.932 -23.834  0.00  0.00    +0.068 C 
ATOM      8  H   UNL     1      35.911 -16.475 -22.654  0.00  0.00    -0.080 HD
BRANCH   3  11
ATOM      9 CL   UNL     1      31.882 -13.592 -20.257  0.00  0.00    -0.080 Cl
ATOM     10 CL   UNL     1      30.682 -10.622 -20.477  0.00  0.00    -0.081 Cl
ATOM     11  C   UNL     1      33.078 -13.048 -22.625  0.00  0.00    +0.059 C 
ATOM     12  C   UNL     1      32.247 -12.569 -21.612  0.00  0.00    +0.081 C 
ATOM     13  C   UNL     1      33.382 -12.239 -23.720  0.00  0.00    +0.015 C 
ATOM     14  C   UNL     1      31.719 -11.281 -21.695  0.00  0.00    +0.069 C 
ATOM     15  C   UNL     1      32.854 -10.950 -23.802  0.00  0.00    +0.002 C 
ATOM     16  C   UNL     1      32.022 -10.471 -22.790  0.00  0.00    +0.012 C 
ENDBRANCH   3  11
ENDBRANCH   1   2
BRANCH   1  17
ATOM     17  C   UNL     1      35.310 -18.754 -21.031  0.00  0.00    -0.019 C 
BRANCH  17  18
ATOM     18  C   UNL     1      34.215 -19.706 -20.558  0.00  0.00    +0.045 C 
BRANCH  18  19
ATOM     19  C   UNL     1      34.795 -21.007 -20.019  0.00  0.00    +0.205 C 
BRANCH  19  20
ATOM     20  O   UNL     1      35.637 -20.735 -18.907  0.00  0.00    -0.475 OA
BRANCH  20  24
ATOM     21  O   UNL     1      34.637 -23.679 -14.339  0.00  0.00    -0.464 OA
ATOM     22  O   UNL     1      37.824 -23.351 -12.667  0.00  0.00    -0.271 OA
ATOM     23  N   UNL     1      37.175 -22.483 -14.695  0.00  0.00    -0.278 N 
ATOM     24  C   UNL     1      35.401 -21.452 -17.763  0.00  0.00    +0.140 C 
ATOM     25  C   UNL     1      36.406 -21.588 -16.805  0.00  0.00    +0.055 C 
ATOM     26  C   UNL     1      36.158 -22.314 -15.639  0.00  0.00    +0.088 C 
ATOM     27  C   UNL     1      34.157 -22.051 -17.560  0.00  0.00    +0.040 C 
ATOM     28  C   UNL     1      34.915 -22.909 -15.433  0.00  0.00    +0.153 C 
ATOM     29  C   UNL     1      33.915 -22.786 -16.399  0.00  0.00    +0.041 C 
ATOM     30  C   UNL     1      35.486 -23.441 -13.233  0.00  0.00    +0.290 C 
ATOM     31  C   UNL     1      36.948 -23.121 -13.498  0.00  0.00    +0.271 C 
ATOM     32  H   UNL     1      38.075 -22.135 -14.890  0.00  0.00    +0.155 HD
ENDBRANCH  20  24
ENDBRANCH  19  20
ENDBRANCH  18  19
ENDBRANCH  17  18
ENDBRANCH   1  17
TORSDOF 7
ENDMDL
MODEL 9
REMARK VINA RESULT:     -11.6      4.509      7.515
REMARK  Name = 46861612
REMARK  7 active torsions:
REMARK  status: ('A' for Active; 'I' for Inactive)
REMARK    1  A    between atoms: C_1  and  N_2
REMARK    2  A    between atoms: C_1  and  C_17
REMARK    3  A    between atoms: N_3  and  C_11
REMARK    4  A    between atoms: C_17  and  C_18
REMARK    5  A    between atoms: C_18  and  C_19
REMARK    6  A    between atoms: C_19  and  O_20
REMARK    7  A    between atoms: O_20  and  C_24
REMARK                            x       y       z     vdW  Elec       q    Type
REMARK                         _______ _______ _______ _____ _____    ______ ____
ROOT
ATOM      1  C   UNL     1      34.215 -21.563 -19.177  0.00  0.00    -0.077 C 
ENDROOT
BRANCH   1   2
ATOM      2  N   UNL     1      34.580 -21.555 -17.761  0.00  0.00    +0.389 N 
ATOM      3  N   UNL     1      35.696 -22.602 -15.349  0.00  0.00    -0.311 N 
ATOM      4  C   UNL     1      33.914 -22.653 -17.051  0.00  0.00    -0.055 C 
ATOM      5  C   UNL     1      36.035 -21.668 -17.603  0.00  0.00    -0.055 C 
ATOM      6  C   UNL     1      36.435 -21.603 -16.127  0.00  0.00    +0.068 C 
ATOM      7  C   UNL     1      34.242 -22.621 -15.557  0.00  0.00    +0.068 C 
ATOM      8  H   UNL     1      34.272 -20.669 -17.359  0.00  0.00    -0.080 HD
BRANCH   3  11
ATOM      9 CL   UNL     1      35.793 -25.567 -14.930  0.00  0.00    -0.080 Cl
ATOM     10 CL   UNL     1      36.936 -26.400 -12.048  0.00  0.00    -0.081 Cl
ATOM     11  C   UNL     1      36.188 -23.017 -14.107  0.00  0.00    +0.059 C 
ATOM     12  C   UNL     1      36.289 -24.369 -13.775  0.00  0.00    +0.081 C 
ATOM     13  C   UNL     1      36.583 -22.042 -13.190  0.00  0.00    +0.015 C 
ATOM     14  C   UNL     1      36.784 -24.744 -12.526  0.00  0.00    +0.069 C 
ATOM     15  C   UNL     1      37.078 -22.419 -11.942  0.00  0.00    +0.002 C 
ATOM     16  C   UNL     1      37.178 -23.770 -11.610  0.00  0.00    +0.012 C 
ENDBRANCH   3  11
ENDBRANCH   1   2
BRANCH   1  17
ATOM     17  C   UNL     1      35.096 -20.590 -19.959  0.00  0.00    -0.019 C 
BRANCH  17  18
ATOM     18  C   UNL     1      34.267 -19.461 -20.567  0.00  0.00    +0.045 C 
BRANCH  18  19
ATOM     19  C   UNL     1      35.147 -18.425 -21.254  0.00  0.00    +0.205 C 
BRANCH  19  20
ATOM     20  O   UNL     1      35.106 -17.202 -20.530  0.00  0.00    -0.475 OA
BRANCH  20  24
ATOM     21  O   UNL     1      32.896 -12.807 -23.045  0.00  0.00    -0.464 OA
ATOM     22  O   UNL     1      33.097 -13.882 -26.489  0.00  0.00    -0.271 OA
ATOM     23  N   UNL     1      33.771 -15.003 -24.598  0.00  0.00    -0.278 N 
ATOM     24  C   UNL     1      34.549 -16.124 -21.169  0.00  0.00    +0.140 C 
ATOM     25  C   UNL     1      34.431 -16.122 -22.559  0.00  0.00    +0.055 C 
ATOM     26  C   UNL     1      33.857 -15.024 -23.202  0.00  0.00    +0.088 C 
ATOM     27  C   UNL     1      34.107 -15.028 -20.427  0.00  0.00    +0.040 C 
ATOM     28  C   UNL     1      33.411 -13.930 -22.463  0.00  0.00    +0.153 C 
ATOM     29  C   UNL     1      33.544 -13.927 -21.074  0.00  0.00    +0.041 C 
ATOM     30  C   UNL     1      32.405 -13.006 -24.357  0.00  0.00    +0.290 C 
ATOM     31  C   UNL     1      33.140 -13.978 -25.264  0.00  0.00    +0.271 C 
ATOM     32  H   UNL     1      34.169 -15.739 -25.115  0.00  0.00    +0.155 HD
ENDBRANCH  20  24
ENDBRANCH  19  20
ENDBRANCH  18  19
ENDBRANCH  17  18
ENDBRANCH   1  17
TORSDOF 7
ENDMDL
