MODEL 1
REMARK VINA RESULT:      -9.7      0.000      0.000
REMARK  Name = 21022
REMARK  7 active torsions:
REMARK  status: ('A' for Active; 'I' for Inactive)
REMARK    1  A    between atoms: C_4  and  C_22
REMARK    2  A    between atoms: C_6  and  C_20
REMARK    3  A    between atoms: C_13  and  O_16
REMARK    4  A    between atoms: C_14  and  O_18
REMARK    5  A    between atoms: C_22  and  C_24
REMARK    6  A    between atoms: C_31  and  O_35
REMARK    7  A    between atoms: C_32  and  O_37
REMARK                            x       y       z     vdW  Elec       q    Type
REMARK                         _______ _______ _______ _____ _____    ______ ____
ROOT
ATOM      1  N   UNL     1      32.312 -11.805 -20.557  0.00  0.00    +0.394 N 
ATOM      2  C   UNL     1      31.847 -11.926 -21.955  0.00  0.00    -0.030 C 
ATOM      3  C   UNL     1      32.039 -10.541 -22.616  0.00  0.00    +0.005 C 
ATOM      4  C   UNL     1      31.549  -9.373 -21.782  0.00  0.00    -0.058 C 
ATOM      5  C   UNL     1      31.447 -10.884 -19.804  0.00  0.00    -0.054 C 
ATOM      6  C   UNL     1      31.238  -9.544 -20.480  0.00  0.00    -0.073 C 
ATOM      7  C   UNL     1      32.379 -13.110 -19.897  0.00  0.00    -0.072 C 
ATOM      8  C   UNL     1      32.549 -13.037 -22.734  0.00  0.00    -0.042 C 
ATOM      9  C   UNL     1      33.463 -13.957 -20.561  0.00  0.00    +0.003 C 
ATOM     10  C   UNL     1      33.296 -14.019 -22.056  0.00  0.00    -0.027 C 
ATOM     11  C   UNL     1      32.400 -13.149 -24.126  0.00  0.00    +0.033 C 
ATOM     12  C   UNL     1      33.928 -15.044 -22.776  0.00  0.00    +0.035 C 
ATOM     13  C   UNL     1      33.021 -14.180 -24.834  0.00  0.00    +0.172 C 
ATOM     14  C   UNL     1      33.789 -15.123 -24.160  0.00  0.00    +0.172 C 
ATOM     15  H   UNL     1      33.257 -11.422 -20.576  0.00  0.00    -0.079 HD
ENDROOT
BRANCH  13  16
ATOM     16  O   UNL     1      32.863 -14.254 -26.185  0.00  0.00    -0.468 OA
ATOM     17  C   UNL     1      32.952 -13.032 -26.914  0.00  0.00    +0.253 C 
ENDBRANCH  13  16
BRANCH  14  18
ATOM     18  O   UNL     1      34.405 -16.131 -24.839  0.00  0.00    -0.468 OA
ATOM     19  C   UNL     1      33.879 -17.445 -24.665  0.00  0.00    +0.253 C 
ENDBRANCH  14  18
BRANCH   6  20
ATOM     20  C   UNL     1      30.662  -8.487 -19.577  0.00  0.00    +0.019 C 
ATOM     21  C   UNL     1      31.644  -7.357 -19.347  0.00  0.00    +0.005 C 
ENDBRANCH   6  20
BRANCH   4  22
ATOM     22  C   UNL     1      31.459  -8.075 -22.537  0.00  0.00    +0.004 C 
BRANCH  22  24
ATOM     23  N   UNL     1      33.620  -8.447 -23.534  0.00  0.00    +0.388 N 
ATOM     24  C   UNL     1      32.845  -7.458 -22.762  0.00  0.00    -0.035 C 
ATOM     25  C   UNL     1      32.789  -6.088 -23.424  0.00  0.00    -0.043 C 
ATOM     26  C   UNL     1      34.912  -7.904 -23.943  0.00  0.00    -0.076 C 
ATOM     27  C   UNL     1      33.699  -5.757 -24.448  0.00  0.00    -0.027 C 
ATOM     28  C   UNL     1      34.694  -6.774 -24.945  0.00  0.00    +0.003 C 
ATOM     29  C   UNL     1      31.892  -5.101 -22.979  0.00  0.00    +0.033 C 
ATOM     30  C   UNL     1      33.657  -4.489 -25.046  0.00  0.00    +0.035 C 
ATOM     31  C   UNL     1      31.866  -3.837 -23.572  0.00  0.00    +0.172 C 
ATOM     32  C   UNL     1      32.741  -3.534 -24.609  0.00  0.00    +0.172 C 
ATOM     33  H   UNL     1      33.091  -8.708 -24.366  0.00  0.00    -0.084 HD
ATOM     34  H   UNL     1      33.786  -9.260 -22.941  0.00  0.00    -0.084 HD
BRANCH  31  35
ATOM     35  O   UNL     1      30.977  -2.908 -23.123  0.00  0.00    -0.468 OA
ATOM     36  C   UNL     1      30.153  -3.279 -22.020  0.00  0.00    +0.253 C 
ENDBRANCH  31  35
BRANCH  32  37
ATOM     37  O   UNL     1      32.722  -2.305 -25.198  0.00  0.00    -0.468 OA
ATOM     38  C   UNL     1      32.126  -2.217 -26.491  0.00  0.00    +0.253 C 
ENDBRANCH  32  37
ENDBRANCH  22  24
ENDBRANCH   4  22
TORSDOF 7
ENDMDL
MODEL 2
REMARK VINA RESULT:      -9.5      1.443      8.836
REMARK  Name = 21022
REMARK  7 active torsions:
REMARK  status: ('A' for Active; 'I' for Inactive)
REMARK    1  A    between atoms: C_4  and  C_22
REMARK    2  A    between atoms: C_6  and  C_20
REMARK    3  A    between atoms: C_13  and  O_16
REMARK    4  A    between atoms: C_14  and  O_18
REMARK    5  A    between atoms: C_22  and  C_24
REMARK    6  A    between atoms: C_31  and  O_35
REMARK    7  A    between atoms: C_32  and  O_37
REMARK                            x       y       z     vdW  Elec       q    Type
REMARK                         _______ _______ _______ _____ _____    ______ ____
ROOT
ATOM      1  N   UNL     1      30.974  -6.982 -21.509  0.00  0.00    +0.394 N 
ATOM      2  C   UNL     1      31.946  -7.281 -22.582  0.00  0.00    -0.030 C 
ATOM      3  C   UNL     1      31.651  -8.719 -23.070  0.00  0.00    +0.005 C 
ATOM      4  C   UNL     1      31.455  -9.732 -21.959  0.00  0.00    -0.058 C 
ATOM      5  C   UNL     1      31.208  -7.851 -20.345  0.00  0.00    -0.054 C 
ATOM      6  C   UNL     1      31.287  -9.327 -20.683  0.00  0.00    -0.073 C 
ATOM      7  C   UNL     1      31.018  -5.571 -21.119  0.00  0.00    -0.072 C 
ATOM      8  C   UNL     1      31.917  -6.268 -23.725  0.00  0.00    -0.042 C 
ATOM      9  C   UNL     1      30.536  -4.711 -22.286  0.00  0.00    +0.003 C 
ATOM     10  C   UNL     1      31.265  -5.031 -23.564  0.00  0.00    -0.027 C 
ATOM     11  C   UNL     1      32.603  -6.514 -24.926  0.00  0.00    +0.033 C 
ATOM     12  C   UNL     1      31.252  -4.101 -24.613  0.00  0.00    +0.035 C 
ATOM     13  C   UNL     1      32.598  -5.576 -25.960  0.00  0.00    +0.172 C 
ATOM     14  C   UNL     1      31.918  -4.373 -25.806  0.00  0.00    +0.172 C 
ATOM     15  H   UNL     1      30.041  -7.171 -21.873  0.00  0.00    -0.079 HD
ENDROOT
BRANCH  13  16
ATOM     16  O   UNL     1      33.267  -5.850 -27.115  0.00  0.00    -0.468 OA
ATOM     17  C   UNL     1      34.643  -5.481 -27.170  0.00  0.00    +0.253 C 
ENDBRANCH  13  16
BRANCH  14  18
ATOM     18  O   UNL     1      31.900  -3.452 -26.810  0.00  0.00    -0.468 OA
ATOM     19  C   UNL     1      31.138  -2.266 -26.589  0.00  0.00    +0.253 C 
ENDBRANCH  14  18
BRANCH   6  20
ATOM     20  C   UNL     1      31.172 -10.235 -19.490  0.00  0.00    +0.019 C 
ATOM     21  C   UNL     1      31.599  -9.536 -18.216  0.00  0.00    +0.005 C 
ENDBRANCH   6  20
BRANCH   4  22
ATOM     22  C   UNL     1      31.470 -11.162 -22.425  0.00  0.00    +0.004 C 
BRANCH  22  24
ATOM     23  N   UNL     1      32.730 -12.134 -20.615  0.00  0.00    +0.388 N 
ATOM     24  C   UNL     1      32.788 -11.859 -22.064  0.00  0.00    -0.035 C 
ATOM     25  C   UNL     1      33.057 -13.102 -22.901  0.00  0.00    -0.043 C 
ATOM     26  C   UNL     1      33.869 -12.936 -20.183  0.00  0.00    -0.076 C 
ATOM     27  C   UNL     1      33.560 -14.270 -22.295  0.00  0.00    -0.027 C 
ATOM     28  C   UNL     1      33.777 -14.327 -20.805  0.00  0.00    +0.003 C 
ATOM     29  C   UNL     1      32.890 -13.089 -24.296  0.00  0.00    +0.033 C 
ATOM     30  C   UNL     1      33.822 -15.409 -23.070  0.00  0.00    +0.035 C 
ATOM     31  C   UNL     1      33.165 -14.223 -25.062  0.00  0.00    +0.172 C 
ATOM     32  C   UNL     1      33.624 -15.384 -24.449  0.00  0.00    +0.172 C 
ATOM     33  H   UNL     1      31.869 -12.639 -20.407  0.00  0.00    -0.084 HD
ATOM     34  H   UNL     1      32.756 -11.244 -20.117  0.00  0.00    -0.084 HD
BRANCH  31  35
ATOM     35  O   UNL     1      32.982 -14.179 -26.411  0.00  0.00    -0.468 OA
ATOM     36  C   UNL     1      32.944 -12.889 -27.018  0.00  0.00    +0.253 C 
ENDBRANCH  31  35
BRANCH  32  37
ATOM     37  O   UNL     1      33.892 -16.499 -25.185  0.00  0.00    -0.468 OA
ATOM     38  C   UNL     1      33.493 -17.752 -24.632  0.00  0.00    +0.253 C 
ENDBRANCH  32  37
ENDBRANCH  22  24
ENDBRANCH   4  22
TORSDOF 7
ENDMDL
MODEL 3
REMARK VINA RESULT:      -9.3      1.977      9.235
REMARK  Name = 21022
REMARK  7 active torsions:
REMARK  status: ('A' for Active; 'I' for Inactive)
REMARK    1  A    between atoms: C_4  and  C_22
REMARK    2  A    between atoms: C_6  and  C_20
REMARK    3  A    between atoms: C_13  and  O_16
REMARK    4  A    between atoms: C_14  and  O_18
REMARK    5  A    between atoms: C_22  and  C_24
REMARK    6  A    between atoms: C_31  and  O_35
REMARK    7  A    between atoms: C_32  and  O_37
REMARK                            x       y       z     vdW  Elec       q    Type
REMARK                         _______ _______ _______ _____ _____    ______ ____
ROOT
ATOM      1  N   UNL     1      31.008  -7.543 -22.840  0.00  0.00    +0.394 N 
ATOM      2  C   UNL     1      32.435  -7.247 -23.083  0.00  0.00    -0.030 C 
ATOM      3  C   UNL     1      33.084  -8.551 -23.607  0.00  0.00    +0.005 C 
ATOM      4  C   UNL     1      32.719  -9.794 -22.819  0.00  0.00    -0.058 C 
ATOM      5  C   UNL     1      30.862  -8.522 -21.752  0.00  0.00    -0.054 C 
ATOM      6  C   UNL     1      31.707  -9.769 -21.927  0.00  0.00    -0.073 C 
ATOM      7  C   UNL     1      30.248  -6.326 -22.548  0.00  0.00    -0.072 C 
ATOM      8  C   UNL     1      32.658  -6.073 -24.034  0.00  0.00    -0.042 C 
ATOM      9  C   UNL     1      30.222  -5.438 -23.790  0.00  0.00    +0.003 C 
ATOM     10  C   UNL     1      31.601  -5.196 -24.344  0.00  0.00    -0.027 C 
ATOM     11  C   UNL     1      33.933  -5.795 -24.554  0.00  0.00    +0.033 C 
ATOM     12  C   UNL     1      31.815  -4.113 -25.207  0.00  0.00    +0.035 C 
ATOM     13  C   UNL     1      34.141  -4.706 -25.402  0.00  0.00    +0.172 C 
ATOM     14  C   UNL     1      33.081  -3.869 -25.733  0.00  0.00    +0.172 C 
ATOM     15  H   UNL     1      30.624  -7.946 -23.694  0.00  0.00    -0.079 HD
ENDROOT
BRANCH  13  16
ATOM     16  O   UNL     1      35.389  -4.471 -25.896  0.00  0.00    -0.468 OA
ATOM     17  C   UNL     1      35.721  -5.089 -27.137  0.00  0.00    +0.253 C 
ENDBRANCH  13  16
BRANCH  14  18
ATOM     18  O   UNL     1      33.269  -2.806 -26.564  0.00  0.00    -0.468 OA
ATOM     19  C   UNL     1      32.746  -2.916 -27.887  0.00  0.00    +0.253 C 
ENDBRANCH  14  18
BRANCH   6  20
ATOM     20  C   UNL     1      31.310 -10.908 -21.028  0.00  0.00    +0.019 C 
ATOM     21  C   UNL     1      31.544 -10.572 -19.570  0.00  0.00    +0.005 C 
ENDBRANCH   6  20
BRANCH   4  22
ATOM     22  C   UNL     1      33.572 -10.992 -23.136  0.00  0.00    +0.004 C 
BRANCH  22  24
ATOM     23  N   UNL     1      32.739 -11.681 -25.289  0.00  0.00    +0.388 N 
ATOM     24  C   UNL     1      32.770 -12.076 -23.868  0.00  0.00    -0.035 C 
ATOM     25  C   UNL     1      33.319 -13.479 -23.645  0.00  0.00    -0.043 C 
ATOM     26  C   UNL     1      32.133 -12.721 -26.114  0.00  0.00    -0.076 C 
ATOM     27  C   UNL     1      33.411 -14.384 -24.722  0.00  0.00    -0.027 C 
ATOM     28  C   UNL     1      33.028 -13.956 -26.116  0.00  0.00    +0.003 C 
ATOM     29  C   UNL     1      33.668 -13.928 -22.360  0.00  0.00    +0.033 C 
ATOM     30  C   UNL     1      33.902 -15.681 -24.512  0.00  0.00    +0.035 C 
ATOM     31  C   UNL     1      34.144 -15.225 -22.159  0.00  0.00    +0.172 C 
ATOM     32  C   UNL     1      34.267 -16.098 -23.234  0.00  0.00    +0.172 C 
ATOM     33  H   UNL     1      33.694 -11.517 -25.609  0.00  0.00    -0.084 HD
ATOM     34  H   UNL     1      32.178 -10.834 -25.376  0.00  0.00    -0.084 HD
BRANCH  31  35
ATOM     35  O   UNL     1      34.483 -15.625 -20.901  0.00  0.00    -0.468 OA
ATOM     36  C   UNL     1      33.716 -15.092 -19.824  0.00  0.00    +0.253 C 
ENDBRANCH  31  35
BRANCH  32  37
ATOM     37  O   UNL     1      34.735 -17.365 -23.051  0.00  0.00    -0.468 OA
ATOM     38  C   UNL     1      33.816 -18.433 -23.275  0.00  0.00    +0.253 C 
ENDBRANCH  32  37
ENDBRANCH  22  24
ENDBRANCH   4  22
TORSDOF 7
ENDMDL
MODEL 4
REMARK VINA RESULT:      -8.9      2.365      4.051
REMARK  Name = 21022
REMARK  7 active torsions:
REMARK  status: ('A' for Active; 'I' for Inactive)
REMARK    1  A    between atoms: C_4  and  C_22
REMARK    2  A    between atoms: C_6  and  C_20
REMARK    3  A    between atoms: C_13  and  O_16
REMARK    4  A    between atoms: C_14  and  O_18
REMARK    5  A    between atoms: C_22  and  C_24
REMARK    6  A    between atoms: C_31  and  O_35
REMARK    7  A    between atoms: C_32  and  O_37
REMARK                            x       y       z     vdW  Elec       q    Type
REMARK                         _______ _______ _______ _____ _____    ______ ____
ROOT
ATOM      1  N   UNL     1      31.753  -8.474 -20.881  0.00  0.00    +0.394 N 
ATOM      2  C   UNL     1      31.923  -8.867 -22.296  0.00  0.00    -0.030 C 
ATOM      3  C   UNL     1      33.027  -7.958 -22.887  0.00  0.00    +0.005 C 
ATOM      4  C   UNL     1      32.877  -6.487 -22.551  0.00  0.00    -0.058 C 
ATOM      5  C   UNL     1      31.229  -7.103 -20.787  0.00  0.00    -0.054 C 
ATOM      6  C   UNL     1      32.010  -6.087 -21.597  0.00  0.00    -0.073 C 
ATOM      7  C   UNL     1      30.886  -9.410 -20.163  0.00  0.00    -0.072 C 
ATOM      8  C   UNL     1      32.240 -10.349 -22.480  0.00  0.00    -0.042 C 
ATOM      9  C   UNL     1      31.577 -10.769 -20.075  0.00  0.00    +0.003 C 
ATOM     10  C   UNL     1      32.045 -11.256 -21.420  0.00  0.00    -0.027 C 
ATOM     11  C   UNL     1      32.655 -10.851 -23.724  0.00  0.00    +0.033 C 
ATOM     12  C   UNL     1      32.326 -12.618 -21.599  0.00  0.00    +0.035 C 
ATOM     13  C   UNL     1      32.919 -12.212 -23.898  0.00  0.00    +0.172 C 
ATOM     14  C   UNL     1      32.760 -13.093 -22.834  0.00  0.00    +0.172 C 
ATOM     15  H   UNL     1      32.671  -8.503 -20.438  0.00  0.00    -0.079 HD
ENDROOT
BRANCH  13  16
ATOM     16  O   UNL     1      33.328 -12.663 -25.116  0.00  0.00    -0.468 OA
ATOM     17  C   UNL     1      32.332 -12.784 -26.130  0.00  0.00    +0.253 C 
ENDBRANCH  13  16
BRANCH  14  18
ATOM     18  O   UNL     1      33.020 -14.421 -22.989  0.00  0.00    -0.468 OA
ATOM     19  C   UNL     1      34.186 -14.933 -22.344  0.00  0.00    +0.253 C 
ENDBRANCH  14  18
BRANCH   6  20
ATOM     20  C   UNL     1      31.712  -4.657 -21.237  0.00  0.00    +0.019 C 
ATOM     21  C   UNL     1      30.222  -4.416 -21.106  0.00  0.00    +0.005 C 
ENDBRANCH   6  20
BRANCH   4  22
ATOM     22  C   UNL     1      33.762  -5.580 -23.361  0.00  0.00    +0.004 C 
BRANCH  22  24
ATOM     23  N   UNL     1      31.804  -4.480 -24.236  0.00  0.00    +0.388 N 
ATOM     24  C   UNL     1      33.068  -5.121 -24.650  0.00  0.00    -0.035 C 
ATOM     25  C   UNL     1      33.943  -4.222 -25.513  0.00  0.00    -0.043 C 
ATOM     26  C   UNL     1      31.127  -3.864 -25.372  0.00  0.00    -0.076 C 
ATOM     27  C   UNL     1      33.396  -3.077 -26.126  0.00  0.00    -0.027 C 
ATOM     28  C   UNL     1      31.958  -2.692 -25.886  0.00  0.00    +0.003 C 
ATOM     29  C   UNL     1      35.281  -4.552 -25.783  0.00  0.00    +0.033 C 
ATOM     30  C   UNL     1      34.199  -2.259 -26.935  0.00  0.00    +0.035 C 
ATOM     31  C   UNL     1      36.070  -3.739 -26.598  0.00  0.00    +0.172 C 
ATOM     32  C   UNL     1      35.532  -2.590 -27.168  0.00  0.00    +0.172 C 
ATOM     33  H   UNL     1      32.008  -3.763 -23.541  0.00  0.00    -0.084 HD
ATOM     34  H   UNL     1      31.192  -5.198 -23.848  0.00  0.00    -0.084 HD
BRANCH  31  35
ATOM     35  O   UNL     1      37.368  -4.083 -26.831  0.00  0.00    -0.468 OA
ATOM     36  C   UNL     1      38.372  -3.294 -26.197  0.00  0.00    +0.253 C 
ENDBRANCH  31  35
BRANCH  32  37
ATOM     37  O   UNL     1      36.293  -1.786 -27.962  0.00  0.00    -0.468 OA
ATOM     38  C   UNL     1      36.164  -1.958 -29.372  0.00  0.00    +0.253 C 
ENDBRANCH  32  37
ENDBRANCH  22  24
ENDBRANCH   4  22
TORSDOF 7
ENDMDL
MODEL 5
REMARK VINA RESULT:      -8.6      1.878      3.232
REMARK  Name = 21022
REMARK  7 active torsions:
REMARK  status: ('A' for Active; 'I' for Inactive)
REMARK    1  A    between atoms: C_4  and  C_22
REMARK    2  A    between atoms: C_6  and  C_20
REMARK    3  A    between atoms: C_13  and  O_16
REMARK    4  A    between atoms: C_14  and  O_18
REMARK    5  A    between atoms: C_22  and  C_24
REMARK    6  A    between atoms: C_31  and  O_35
REMARK    7  A    between atoms: C_32  and  O_37
REMARK                            x       y       z     vdW  Elec       q    Type
REMARK                         _______ _______ _______ _____ _____    ______ ____
ROOT
ATOM      1  N   UNL     1      31.854  -9.762 -20.898  0.00  0.00    +0.394 N 
ATOM      2  C   UNL     1      31.896  -9.894 -22.370  0.00  0.00    -0.030 C 
ATOM      3  C   UNL     1      32.842  -8.789 -22.896  0.00  0.00    +0.005 C 
ATOM      4  C   UNL     1      32.603  -7.418 -22.292  0.00  0.00    -0.058 C 
ATOM      5  C   UNL     1      31.227  -8.488 -20.513  0.00  0.00    -0.054 C 
ATOM      6  C   UNL     1      31.819  -7.275 -21.203  0.00  0.00    -0.073 C 
ATOM      7  C   UNL     1      31.160 -10.891 -20.275  0.00  0.00    -0.072 C 
ATOM      8  C   UNL     1      32.318 -11.284 -22.842  0.00  0.00    -0.042 C 
ATOM      9  C   UNL     1      31.973 -12.165 -20.496  0.00  0.00    +0.003 C 
ATOM     10  C   UNL     1      32.325 -12.369 -21.945  0.00  0.00    -0.027 C 
ATOM     11  C   UNL     1      32.631 -11.525 -24.190  0.00  0.00    +0.033 C 
ATOM     12  C   UNL     1      32.702 -13.645 -22.388  0.00  0.00    +0.035 C 
ATOM     13  C   UNL     1      32.991 -12.802 -24.626  0.00  0.00    +0.172 C 
ATOM     14  C   UNL     1      33.033 -13.860 -23.724  0.00  0.00    +0.172 C 
ATOM     15  H   UNL     1      32.815  -9.767 -20.558  0.00  0.00    -0.079 HD
ENDROOT
BRANCH  13  16
ATOM     16  O   UNL     1      33.297 -12.999 -25.938  0.00  0.00    -0.468 OA
ATOM     17  C   UNL     1      32.307 -12.629 -26.896  0.00  0.00    +0.253 C 
ENDBRANCH  13  16
BRANCH  14  18
ATOM     18  O   UNL     1      33.389 -15.109 -24.135  0.00  0.00    -0.468 OA
ATOM     19  C   UNL     1      34.210 -15.873 -23.253  0.00  0.00    +0.253 C 
ENDBRANCH  14  18
BRANCH   6  20
ATOM     20  C   UNL     1      31.439  -5.965 -20.570  0.00  0.00    +0.019 C 
ATOM     21  C   UNL     1      32.433  -5.555 -19.502  0.00  0.00    +0.005 C 
ENDBRANCH   6  20
BRANCH   4  22
ATOM     22  C   UNL     1      33.307  -6.300 -23.012  0.00  0.00    +0.004 C 
BRANCH  22  24
ATOM     23  N   UNL     1      31.233  -5.129 -23.379  0.00  0.00    +0.388 N 
ATOM     24  C   UNL     1      32.411  -5.670 -24.085  0.00  0.00    -0.035 C 
ATOM     25  C   UNL     1      33.133  -4.631 -24.933  0.00  0.00    -0.043 C 
ATOM     26  C   UNL     1      30.379  -4.365 -24.283  0.00  0.00    -0.076 C 
ATOM     27  C   UNL     1      32.494  -3.420 -25.267  0.00  0.00    -0.027 C 
ATOM     28  C   UNL     1      31.116  -3.110 -24.741  0.00  0.00    +0.003 C 
ATOM     29  C   UNL     1      34.409  -4.885 -25.464  0.00  0.00    +0.033 C 
ATOM     30  C   UNL     1      33.155  -2.471 -26.062  0.00  0.00    +0.035 C 
ATOM     31  C   UNL     1      35.054  -3.939 -26.263  0.00  0.00    +0.172 C 
ATOM     32  C   UNL     1      34.431  -2.731 -26.556  0.00  0.00    +0.172 C 
ATOM     33  H   UNL     1      31.549  -4.519 -22.625  0.00  0.00    -0.084 HD
ATOM     34  H   UNL     1      30.693  -5.911 -23.010  0.00  0.00    -0.084 HD
BRANCH  31  35
ATOM     35  O   UNL     1      36.295  -4.214 -26.753  0.00  0.00    -0.468 OA
ATOM     36  C   UNL     1      36.364  -5.002 -27.940  0.00  0.00    +0.253 C 
ENDBRANCH  31  35
BRANCH  32  37
ATOM     37  O   UNL     1      35.052  -1.799 -27.332  0.00  0.00    -0.468 OA
ATOM     38  C   UNL     1      34.721  -1.786 -28.720  0.00  0.00    +0.253 C 
ENDBRANCH  32  37
ENDBRANCH  22  24
ENDBRANCH   4  22
TORSDOF 7
ENDMDL
MODEL 6
REMARK VINA RESULT:      -8.2      2.291      8.951
REMARK  Name = 21022
REMARK  7 active torsions:
REMARK  status: ('A' for Active; 'I' for Inactive)
REMARK    1  A    between atoms: C_4  and  C_22
REMARK    2  A    between atoms: C_6  and  C_20
REMARK    3  A    between atoms: C_13  and  O_16
REMARK    4  A    between atoms: C_14  and  O_18
REMARK    5  A    between atoms: C_22  and  C_24
REMARK    6  A    between atoms: C_31  and  O_35
REMARK    7  A    between atoms: C_32  and  O_37
REMARK                            x       y       z     vdW  Elec       q    Type
REMARK                         _______ _______ _______ _____ _____    ______ ____
ROOT
ATOM      1  N   UNL     1      31.535  -4.299 -23.624  0.00  0.00    +0.394 N 
ATOM      2  C   UNL     1      32.307  -5.212 -24.493  0.00  0.00    -0.030 C 
ATOM      3  C   UNL     1      31.606  -6.590 -24.437  0.00  0.00    +0.005 C 
ATOM      4  C   UNL     1      31.238  -7.050 -23.040  0.00  0.00    -0.058 C 
ATOM      5  C   UNL     1      31.622  -4.730 -22.220  0.00  0.00    -0.054 C 
ATOM      6  C   UNL     1      31.282  -6.191 -22.000  0.00  0.00    -0.073 C 
ATOM      7  C   UNL     1      31.980  -2.912 -23.769  0.00  0.00    -0.072 C 
ATOM      8  C   UNL     1      32.457  -4.702 -25.925  0.00  0.00    -0.042 C 
ATOM      9  C   UNL     1      31.652  -2.423 -25.178  0.00  0.00    +0.003 C 
ATOM     10  C   UNL     1      32.169  -3.360 -26.238  0.00  0.00    -0.027 C 
ATOM     11  C   UNL     1      32.958  -5.534 -26.940  0.00  0.00    +0.033 C 
ATOM     12  C   UNL     1      32.320  -2.895 -27.552  0.00  0.00    +0.035 C 
ATOM     13  C   UNL     1      33.120  -5.059 -28.243  0.00  0.00    +0.172 C 
ATOM     14  C   UNL     1      32.795  -3.742 -28.550  0.00  0.00    +0.172 C 
ATOM     15  H   UNL     1      30.560  -4.341 -23.917  0.00  0.00    -0.079 HD
ENDROOT
BRANCH  13  16
ATOM     16  O   UNL     1      33.601  -5.895 -29.205  0.00  0.00    -0.468 OA
ATOM     17  C   UNL     1      34.930  -5.657 -29.664  0.00  0.00    +0.253 C 
ENDBRANCH  13  16
BRANCH  14  18
ATOM     18  O   UNL     1      32.942  -3.268 -29.819  0.00  0.00    -0.468 OA
ATOM     19  C   UNL     1      33.767  -2.116 -29.989  0.00  0.00    +0.253 C 
ENDBRANCH  14  18
BRANCH   6  20
ATOM     20  C   UNL     1      31.025  -6.550 -20.563  0.00  0.00    +0.019 C 
ATOM     21  C   UNL     1      32.129  -6.044 -19.657  0.00  0.00    +0.005 C 
ENDBRANCH   6  20
BRANCH   4  22
ATOM     22  C   UNL     1      30.839  -8.498 -22.957  0.00  0.00    +0.004 C 
BRANCH  22  24
ATOM     23  N   UNL     1      30.877  -9.224 -20.659  0.00  0.00    +0.388 N 
ATOM     24  C   UNL     1      31.665  -9.251 -21.907  0.00  0.00    -0.035 C 
ATOM     25  C   UNL     1      32.050 -10.658 -22.344  0.00  0.00    -0.043 C 
ATOM     26  C   UNL     1      31.496 -10.046 -19.625  0.00  0.00    -0.076 C 
ATOM     27  C   UNL     1      31.968 -11.731 -21.434  0.00  0.00    -0.027 C 
ATOM     28  C   UNL     1      31.439 -11.513 -20.040  0.00  0.00    +0.003 C 
ATOM     29  C   UNL     1      32.568 -10.905 -23.627  0.00  0.00    +0.033 C 
ATOM     30  C   UNL     1      32.338 -13.024 -21.834  0.00  0.00    +0.035 C 
ATOM     31  C   UNL     1      32.945 -12.193 -24.012  0.00  0.00    +0.172 C 
ATOM     32  C   UNL     1      32.824 -13.252 -23.120  0.00  0.00    +0.172 C 
ATOM     33  H   UNL     1      29.940  -9.579 -20.851  0.00  0.00    -0.084 HD
ATOM     34  H   UNL     1      30.838  -8.261 -20.325  0.00  0.00    -0.084 HD
BRANCH  31  35
ATOM     35  O   UNL     1      33.434 -12.398 -25.267  0.00  0.00    -0.468 OA
ATOM     36  C   UNL     1      32.506 -12.819 -26.264  0.00  0.00    +0.253 C 
ENDBRANCH  31  35
BRANCH  32  37
ATOM     37  O   UNL     1      33.185 -14.514 -23.485  0.00  0.00    -0.468 OA
ATOM     38  C   UNL     1      34.378 -15.040 -22.906  0.00  0.00    +0.253 C 
ENDBRANCH  32  37
ENDBRANCH  22  24
ENDBRANCH   4  22
TORSDOF 7
ENDMDL
MODEL 7
REMARK VINA RESULT:      -8.2      3.033      5.926
REMARK  Name = 21022
REMARK  7 active torsions:
REMARK  status: ('A' for Active; 'I' for Inactive)
REMARK    1  A    between atoms: C_4  and  C_22
REMARK    2  A    between atoms: C_6  and  C_20
REMARK    3  A    between atoms: C_13  and  O_16
REMARK    4  A    between atoms: C_14  and  O_18
REMARK    5  A    between atoms: C_22  and  C_24
REMARK    6  A    between atoms: C_31  and  O_35
REMARK    7  A    between atoms: C_32  and  O_37
REMARK                            x       y       z     vdW  Elec       q    Type
REMARK                         _______ _______ _______ _____ _____    ______ ____
ROOT
ATOM      1  N   UNL     1      33.105 -16.055 -24.348  0.00  0.00    +0.394 N 
ATOM      2  C   UNL     1      34.267 -15.948 -23.442  0.00  0.00    -0.030 C 
ATOM      3  C   UNL     1      34.017 -14.724 -22.529  0.00  0.00    +0.005 C 
ATOM      4  C   UNL     1      33.543 -13.483 -23.259  0.00  0.00    -0.058 C 
ATOM      5  C   UNL     1      33.046 -14.895 -25.250  0.00  0.00    -0.054 C 
ATOM      6  C   UNL     1      33.126 -13.557 -24.540  0.00  0.00    -0.073 C 
ATOM      7  C   UNL     1      33.131 -17.304 -25.112  0.00  0.00    -0.072 C 
ATOM      8  C   UNL     1      34.529 -17.220 -22.638  0.00  0.00    -0.042 C 
ATOM      9  C   UNL     1      32.948 -18.482 -24.157  0.00  0.00    +0.003 C 
ATOM     10  C   UNL     1      33.916 -18.433 -23.005  0.00  0.00    -0.027 C 
ATOM     11  C   UNL     1      35.443 -17.226 -21.571  0.00  0.00    +0.033 C 
ATOM     12  C   UNL     1      34.170 -19.600 -22.270  0.00  0.00    +0.035 C 
ATOM     13  C   UNL     1      35.701 -18.396 -20.853  0.00  0.00    +0.172 C 
ATOM     14  C   UNL     1      35.060 -19.581 -21.199  0.00  0.00    +0.172 C 
ATOM     15  H   UNL     1      32.263 -16.064 -23.773  0.00  0.00    -0.079 HD
ENDROOT
BRANCH  13  16
ATOM     16  O   UNL     1      36.586 -18.364 -19.819  0.00  0.00    -0.468 OA
ATOM     17  C   UNL     1      36.579 -19.477 -18.926  0.00  0.00    +0.253 C 
ENDBRANCH  13  16
BRANCH  14  18
ATOM     18  O   UNL     1      35.299 -20.728 -20.504  0.00  0.00    -0.468 OA
ATOM     19  C   UNL     1      34.200 -21.295 -19.793  0.00  0.00    +0.253 C 
ENDBRANCH  14  18
BRANCH   6  20
ATOM     20  C   UNL     1      32.718 -12.387 -25.392  0.00  0.00    +0.019 C 
ATOM     21  C   UNL     1      32.680 -12.755 -26.861  0.00  0.00    +0.005 C 
ENDBRANCH   6  20
BRANCH   4  22
ATOM     22  C   UNL     1      33.590 -12.228 -22.429  0.00  0.00    +0.004 C 
BRANCH  22  24
ATOM     23  N   UNL     1      31.420 -11.968 -21.414  0.00  0.00    +0.388 N 
ATOM     24  C   UNL     1      32.268 -11.453 -22.507  0.00  0.00    -0.035 C 
ATOM     25  C   UNL     1      32.457  -9.943 -22.461  0.00  0.00    -0.043 C 
ATOM     26  C   UNL     1      30.189 -11.194 -21.290  0.00  0.00    -0.076 C 
ATOM     27  C   UNL     1      31.597  -9.144 -21.681  0.00  0.00    -0.027 C 
ATOM     28  C   UNL     1      30.523  -9.777 -20.834  0.00  0.00    +0.003 C 
ATOM     29  C   UNL     1      33.430  -9.308 -23.250  0.00  0.00    +0.033 C 
ATOM     30  C   UNL     1      31.762  -7.751 -21.653  0.00  0.00    +0.035 C 
ATOM     31  C   UNL     1      33.579  -7.919 -23.225  0.00  0.00    +0.172 C 
ATOM     32  C   UNL     1      32.751  -7.143 -22.422  0.00  0.00    +0.172 C 
ATOM     33  H   UNL     1      31.938 -11.912 -20.537  0.00  0.00    -0.084 HD
ATOM     34  H   UNL     1      31.172 -12.934 -21.627  0.00  0.00    -0.084 HD
BRANCH  31  35
ATOM     35  O   UNL     1      34.540  -7.337 -23.995  0.00  0.00    -0.468 OA
ATOM     36  C   UNL     1      34.102  -6.627 -25.152  0.00  0.00    +0.253 C 
ENDBRANCH  31  35
BRANCH  32  37
ATOM     37  O   UNL     1      32.890  -5.788 -22.386  0.00  0.00    -0.468 OA
ATOM     38  C   UNL     1      31.954  -5.062 -21.591  0.00  0.00    +0.253 C 
ENDBRANCH  32  37
ENDBRANCH  22  24
ENDBRANCH   4  22
TORSDOF 7
ENDMDL
MODEL 8
REMARK VINA RESULT:      -8.1      8.262     14.808
REMARK  Name = 21022
REMARK  7 active torsions:
REMARK  status: ('A' for Active; 'I' for Inactive)
REMARK    1  A    between atoms: C_4  and  C_22
REMARK    2  A    between atoms: C_6  and  C_20
REMARK    3  A    between atoms: C_13  and  O_16
REMARK    4  A    between atoms: C_14  and  O_18
REMARK    5  A    between atoms: C_22  and  C_24
REMARK    6  A    between atoms: C_31  and  O_35
REMARK    7  A    between atoms: C_32  and  O_37
REMARK                            x       y       z     vdW  Elec       q    Type
REMARK                         _______ _______ _______ _____ _____    ______ ____
ROOT
ATOM      1  N   UNL     1      35.736 -19.155 -20.030  0.00  0.00    +0.394 N 
ATOM      2  C   UNL     1      35.002 -19.888 -21.083  0.00  0.00    -0.030 C 
ATOM      3  C   UNL     1      33.896 -20.707 -20.376  0.00  0.00    +0.005 C 
ATOM      4  C   UNL     1      34.363 -21.465 -19.149  0.00  0.00    -0.058 C 
ATOM      5  C   UNL     1      36.443 -20.095 -19.146  0.00  0.00    -0.054 C 
ATOM      6  C   UNL     1      35.568 -21.205 -18.599  0.00  0.00    -0.073 C 
ATOM      7  C   UNL     1      36.667 -18.180 -20.601  0.00  0.00    -0.072 C 
ATOM      8  C   UNL     1      34.436 -18.979 -22.172  0.00  0.00    -0.042 C 
ATOM      9  C   UNL     1      35.875 -17.084 -21.312  0.00  0.00    +0.003 C 
ATOM     10  C   UNL     1      34.880 -17.648 -22.291  0.00  0.00    -0.027 C 
ATOM     11  C   UNL     1      33.525 -19.469 -23.122  0.00  0.00    +0.033 C 
ATOM     12  C   UNL     1      34.366 -16.822 -23.301  0.00  0.00    +0.035 C 
ATOM     13  C   UNL     1      33.028 -18.644 -24.133  0.00  0.00    +0.172 C 
ATOM     14  C   UNL     1      33.444 -17.320 -24.218  0.00  0.00    +0.172 C 
ATOM     15  H   UNL     1      35.053 -18.639 -19.476  0.00  0.00    -0.079 HD
ENDROOT
BRANCH  13  16
ATOM     16  O   UNL     1      32.139 -19.150 -25.033  0.00  0.00    -0.468 OA
ATOM     17  C   UNL     1      31.121 -18.269 -25.502  0.00  0.00    +0.253 C 
ENDBRANCH  13  16
BRANCH  14  18
ATOM     18  O   UNL     1      32.963 -16.503 -25.197  0.00  0.00    -0.468 OA
ATOM     19  C   UNL     1      33.207 -15.105 -25.052  0.00  0.00    +0.253 C 
ENDBRANCH  14  18
BRANCH   6  20
ATOM     20  C   UNL     1      36.175 -21.948 -17.440  0.00  0.00    +0.019 C 
ATOM     21  C   UNL     1      37.029 -21.038 -16.582  0.00  0.00    +0.005 C 
ENDBRANCH   6  20
BRANCH   4  22
ATOM     22  C   UNL     1      33.378 -22.484 -18.646  0.00  0.00    +0.004 C 
BRANCH  22  24
ATOM     23  N   UNL     1      31.143 -22.108 -17.827  0.00  0.00    +0.388 N 
ATOM     24  C   UNL     1      32.564 -21.944 -17.463  0.00  0.00    -0.035 C 
ATOM     25  C   UNL     1      32.925 -22.601 -16.138  0.00  0.00    -0.043 C 
ATOM     26  C   UNL     1      30.268 -21.769 -16.709  0.00  0.00    -0.076 C 
ATOM     27  C   UNL     1      31.912 -22.973 -15.231  0.00  0.00    -0.027 C 
ATOM     28  C   UNL     1      30.459 -22.785 -15.587  0.00  0.00    +0.003 C 
ATOM     29  C   UNL     1      34.265 -22.776 -15.755  0.00  0.00    +0.033 C 
ATOM     30  C   UNL     1      32.247 -23.563 -14.004  0.00  0.00    +0.035 C 
ATOM     31  C   UNL     1      34.590 -23.353 -14.525  0.00  0.00    +0.172 C 
ATOM     32  C   UNL     1      33.583 -23.753 -13.654  0.00  0.00    +0.172 C 
ATOM     33  H   UNL     1      30.979 -23.079 -18.095  0.00  0.00    -0.084 HD
ATOM     34  H   UNL     1      30.934 -21.479 -18.602  0.00  0.00    -0.084 HD
BRANCH  31  35
ATOM     35  O   UNL     1      35.900 -23.518 -14.190  0.00  0.00    -0.468 OA
ATOM     36  C   UNL     1      36.565 -24.663 -14.718  0.00  0.00    +0.253 C 
ENDBRANCH  31  35
BRANCH  32  37
ATOM     37  O   UNL     1      33.887 -24.322 -12.454  0.00  0.00    -0.468 OA
ATOM     38  C   UNL     1      34.635 -23.529 -11.533  0.00  0.00    +0.253 C 
ENDBRANCH  32  37
ENDBRANCH  22  24
ENDBRANCH   4  22
TORSDOF 7
ENDMDL
MODEL 9
REMARK VINA RESULT:      -8.0      4.445     11.584
REMARK  Name = 21022
REMARK  7 active torsions:
REMARK  status: ('A' for Active; 'I' for Inactive)
REMARK    1  A    between atoms: C_4  and  C_22
REMARK    2  A    between atoms: C_6  and  C_20
REMARK    3  A    between atoms: C_13  and  O_16
REMARK    4  A    between atoms: C_14  and  O_18
REMARK    5  A    between atoms: C_22  and  C_24
REMARK    6  A    between atoms: C_31  and  O_35
REMARK    7  A    between atoms: C_32  and  O_37
REMARK                            x       y       z     vdW  Elec       q    Type
REMARK                         _______ _______ _______ _____ _____    ______ ____
ROOT
ATOM      1  N   UNL     1      33.254 -13.350 -24.064  0.00  0.00    +0.394 N 
ATOM      2  C   UNL     1      32.421 -13.279 -22.846  0.00  0.00    -0.030 C 
ATOM      3  C   UNL     1      33.141 -14.109 -21.757  0.00  0.00    +0.005 C 
ATOM      4  C   UNL     1      33.636 -15.464 -22.225  0.00  0.00    -0.058 C 
ATOM      5  C   UNL     1      33.297 -14.726 -24.580  0.00  0.00    -0.054 C 
ATOM      6  C   UNL     1      33.673 -15.764 -23.541  0.00  0.00    -0.073 C 
ATOM      7  C   UNL     1      32.781 -12.424 -25.095  0.00  0.00    -0.072 C 
ATOM      8  C   UNL     1      32.139 -11.850 -22.386  0.00  0.00    -0.042 C 
ATOM      9  C   UNL     1      32.978 -10.988 -24.611  0.00  0.00    +0.003 C 
ATOM     10  C   UNL     1      32.382 -10.763 -23.247  0.00  0.00    -0.027 C 
ATOM     11  C   UNL     1      31.561 -11.595 -21.131  0.00  0.00    +0.033 C 
ATOM     12  C   UNL     1      32.110  -9.455 -22.823  0.00  0.00    +0.035 C 
ATOM     13  C   UNL     1      31.280 -10.289 -20.722  0.00  0.00    +0.172 C 
ATOM     14  C   UNL     1      31.560  -9.220 -21.566  0.00  0.00    +0.172 C 
ATOM     15  H   UNL     1      34.201 -13.068 -23.810  0.00  0.00    -0.079 HD
ENDROOT
BRANCH  13  16
ATOM     16  O   UNL     1      30.727 -10.077 -19.495  0.00  0.00    -0.468 OA
ATOM     17  C   UNL     1      31.606  -9.662 -18.452  0.00  0.00    +0.253 C 
ENDBRANCH  13  16
BRANCH  14  18
ATOM     18  O   UNL     1      31.296  -7.941 -21.176  0.00  0.00    -0.468 OA
ATOM     19  C   UNL     1      32.406  -7.050 -21.084  0.00  0.00    +0.253 C 
ENDBRANCH  14  18
BRANCH   6  20
ATOM     20  C   UNL     1      34.059 -17.097 -24.119  0.00  0.00    +0.019 C 
ATOM     21  C   UNL     1      32.861 -17.821 -24.699  0.00  0.00    +0.005 C 
ENDBRANCH   6  20
BRANCH   4  22
ATOM     22  C   UNL     1      34.060 -16.381 -21.111  0.00  0.00    +0.004 C 
BRANCH  22  24
ATOM     23  N   UNL     1      36.242 -17.215 -21.702  0.00  0.00    +0.388 N 
ATOM     24  C   UNL     1      34.819 -17.602 -21.644  0.00  0.00    -0.035 C 
ATOM     25  C   UNL     1      34.572 -18.864 -20.828  0.00  0.00    -0.043 C 
ATOM     26  C   UNL     1      37.086 -18.353 -22.050  0.00  0.00    -0.076 C 
ATOM     27  C   UNL     1      35.641 -19.725 -20.512  0.00  0.00    -0.027 C 
ATOM     28  C   UNL     1      37.050 -19.378 -20.921  0.00  0.00    +0.003 C 
ATOM     29  C   UNL     1      33.273 -19.239 -20.444  0.00  0.00    +0.033 C 
ATOM     30  C   UNL     1      35.410 -20.895 -19.774  0.00  0.00    +0.035 C 
ATOM     31  C   UNL     1      33.050 -20.412 -19.720  0.00  0.00    +0.172 C 
ATOM     32  C   UNL     1      34.117 -21.235 -19.379  0.00  0.00    +0.172 C 
ATOM     33  H   UNL     1      36.525 -16.857 -20.790  0.00  0.00    -0.084 HD
ATOM     34  H   UNL     1      36.352 -16.500 -22.421  0.00  0.00    -0.084 HD
BRANCH  31  35
ATOM     35  O   UNL     1      31.779 -20.739 -19.355  0.00  0.00    -0.468 OA
ATOM     36  C   UNL     1      31.606 -21.327 -18.067  0.00  0.00    +0.253 C 
ENDBRANCH  31  35
BRANCH  32  37
ATOM     37  O   UNL     1      33.913 -22.380 -18.669  0.00  0.00    -0.468 OA
ATOM     38  C   UNL     1      34.396 -22.404 -17.327  0.00  0.00    +0.253 C 
ENDBRANCH  32  37
ENDBRANCH  22  24
ENDBRANCH   4  22
TORSDOF 7
ENDMDL
