MODEL 1
REMARK VINA RESULT:     -11.1      0.000      0.000
REMARK  Name = 11609955
REMARK  7 active torsions:
REMARK  status: ('A' for Active; 'I' for Inactive)
REMARK    1  A    between atoms: S_1  and  C_4
REMARK    2  A    between atoms: S_1  and  N_15
REMARK    3  A    between atoms: C_5  and  C_10
REMARK    4  A    between atoms: C_10  and  N_11
REMARK    5  A    between atoms: C_18  and  C_20
REMARK    6  A    between atoms: C_21  and  C_24
REMARK    7  A    between atoms: N_23  and  O_26
REMARK                            x       y       z     vdW  Elec       q    Type
REMARK                         _______ _______ _______ _____ _____    ______ ____
ROOT
ATOM      1  S   UNL     1      35.073 -18.538 -22.555  0.00  0.00    +0.080 S 
ATOM      2  O   UNL     1      34.313 -19.076 -23.669  0.00  0.00    -0.149 OA
ATOM      3  O   UNL     1      36.522 -18.606 -22.496  0.00  0.00    -0.149 OA
ENDROOT
BRANCH   1   4
ATOM      4  C   UNL     1      34.590 -16.892 -22.228  0.00  0.00    +0.126 C 
ATOM      5  C   UNL     1      33.820 -14.277 -21.711  0.00  0.00    -0.043 C 
ATOM      6  C   UNL     1      34.322 -16.021 -23.285  0.00  0.00    +0.020 C 
ATOM      7  C   UNL     1      34.472 -16.448 -20.912  0.00  0.00    +0.020 C 
ATOM      8  C   UNL     1      33.934 -14.707 -23.024  0.00  0.00    -0.005 C 
ATOM      9  C   UNL     1      34.084 -15.134 -20.651  0.00  0.00    -0.005 C 
BRANCH   5  10
ATOM     10  C   UNL     1      33.401 -12.858 -21.429  0.00  0.00    -0.050 C 
BRANCH  10  11
ATOM     11  N   UNL     1      32.466 -12.356 -22.436  0.00  0.00    +0.387 N 
ATOM     12  C   UNL     1      33.119 -11.368 -23.294  0.00  0.00    -0.100 C 
ATOM     13  C   UNL     1      31.287 -11.776 -21.794  0.00  0.00    -0.100 C 
ATOM     14  H   UNL     1      32.164 -13.139 -23.016  0.00  0.00    -0.079 HD
ENDBRANCH  10  11
ENDBRANCH   5  10
ENDBRANCH   1   4
BRANCH   1  15
ATOM     15  N   UNL     1      34.502 -19.466 -21.214  0.00  0.00    -0.167 N 
ATOM     16  C   UNL     1      35.318 -20.094 -20.367  0.00  0.00    +0.089 C 
ATOM     17  C   UNL     1      33.206 -19.614 -20.937  0.00  0.00    +0.089 C 
ATOM     18  C   UNL     1      34.494 -20.711 -19.451  0.00  0.00    +0.018 C 
ATOM     19  C   UNL     1      33.159 -20.408 -19.811  0.00  0.00    +0.019 C 
BRANCH  18  20
ATOM     20  C   UNL     1      34.936 -21.494 -18.365  0.00  0.00    +0.006 C 
ATOM     21  C   UNL     1      36.027 -21.300 -17.570  0.00  0.00    +0.060 C 
BRANCH  21  24
ATOM     22  O   UNL     1      35.495 -22.889 -15.867  0.00  0.00    -0.268 OA
ATOM     23  N   UNL     1      37.695 -22.256 -16.186  0.00  0.00    -0.193 N 
ATOM     24  C   UNL     1      36.350 -22.233 -16.454  0.00  0.00    +0.268 C 
ATOM     25  H   UNL     1      38.339 -21.708 -16.689  0.00  0.00    +0.183 HD
BRANCH  23  26
ATOM     26  O   UNL     1      38.092 -23.112 -15.150  0.00  0.00    -0.295 OA
ATOM     27  H   UNL     1      38.382 -22.585 -14.389  0.00  0.00    +0.241 HD
ENDBRANCH  23  26
ENDBRANCH  21  24
ENDBRANCH  18  20
ENDBRANCH   1  15
TORSDOF 7
ENDMDL
MODEL 2
REMARK VINA RESULT:     -10.7      3.491      9.573
REMARK  Name = 11609955
REMARK  7 active torsions:
REMARK  status: ('A' for Active; 'I' for Inactive)
REMARK    1  A    between atoms: S_1  and  C_4
REMARK    2  A    between atoms: S_1  and  N_15
REMARK    3  A    between atoms: C_5  and  C_10
REMARK    4  A    between atoms: C_10  and  N_11
REMARK    5  A    between atoms: C_18  and  C_20
REMARK    6  A    between atoms: C_21  and  C_24
REMARK    7  A    between atoms: N_23  and  O_26
REMARK                            x       y       z     vdW  Elec       q    Type
REMARK                         _______ _______ _______ _____ _____    ______ ____
ROOT
ATOM      1  S   UNL     1      33.193 -22.315 -18.491  0.00  0.00    +0.080 S 
ATOM      2  O   UNL     1      33.376 -23.531 -19.263  0.00  0.00    -0.149 OA
ATOM      3  O   UNL     1      31.894 -21.692 -18.318  0.00  0.00    -0.149 OA
ENDROOT
BRANCH   1   4
ATOM      4  C   UNL     1      33.936 -22.475 -16.920  0.00  0.00    +0.126 C 
ATOM      5  C   UNL     1      35.117 -22.728 -14.421  0.00  0.00    -0.043 C 
ATOM      6  C   UNL     1      35.275 -22.125 -16.742  0.00  0.00    +0.020 C 
ATOM      7  C   UNL     1      33.192 -22.955 -15.842  0.00  0.00    +0.020 C 
ATOM      8  C   UNL     1      35.867 -22.251 -15.486  0.00  0.00    -0.005 C 
ATOM      9  C   UNL     1      33.785 -23.081 -14.586  0.00  0.00    -0.005 C 
BRANCH   5  10
ATOM     10  C   UNL     1      35.758 -22.865 -13.065  0.00  0.00    -0.050 C 
BRANCH  10  11
ATOM     11  N   UNL     1      36.893 -23.787 -13.089  0.00  0.00    +0.387 N 
ATOM     12  C   UNL     1      36.427 -25.169 -13.209  0.00  0.00    -0.100 C 
ATOM     13  C   UNL     1      37.709 -23.626 -11.887  0.00  0.00    -0.100 C 
ATOM     14  H   UNL     1      37.469 -23.569 -13.902  0.00  0.00    -0.079 HD
ENDBRANCH  10  11
ENDBRANCH   5  10
ENDBRANCH   1   4
BRANCH   1  15
ATOM     15  N   UNL     1      34.158 -21.165 -19.348  0.00  0.00    -0.167 N 
ATOM     16  C   UNL     1      33.634 -20.210 -20.117  0.00  0.00    +0.089 C 
ATOM     17  C   UNL     1      35.489 -21.157 -19.295  0.00  0.00    +0.089 C 
ATOM     18  C   UNL     1      34.710 -19.509 -20.616  0.00  0.00    +0.018 C 
ATOM     19  C   UNL     1      35.883 -20.108 -20.097  0.00  0.00    +0.019 C 
BRANCH  18  20
ATOM     20  C   UNL     1      34.621 -18.401 -21.485  0.00  0.00    +0.006 C 
ATOM     21  C   UNL     1      34.262 -18.386 -22.800  0.00  0.00    +0.060 C 
BRANCH  21  24
ATOM     22  O   UNL     1      33.678 -17.024 -24.676  0.00  0.00    -0.268 OA
ATOM     23  N   UNL     1      34.844 -16.092 -22.911  0.00  0.00    -0.193 N 
ATOM     24  C   UNL     1      34.218 -17.114 -23.577  0.00  0.00    +0.268 C 
ATOM     25  H   UNL     1      35.262 -16.219 -22.029  0.00  0.00    +0.183 HD
BRANCH  23  26
ATOM     26  O   UNL     1      34.848 -14.853 -23.567  0.00  0.00    -0.295 OA
ATOM     27  H   UNL     1      33.984 -14.425 -23.455  0.00  0.00    +0.241 HD
ENDBRANCH  23  26
ENDBRANCH  21  24
ENDBRANCH  18  20
ENDBRANCH   1  15
TORSDOF 7
ENDMDL
MODEL 3
REMARK VINA RESULT:     -10.5      3.444      5.483
REMARK  Name = 11609955
REMARK  7 active torsions:
REMARK  status: ('A' for Active; 'I' for Inactive)
REMARK    1  A    between atoms: S_1  and  C_4
REMARK    2  A    between atoms: S_1  and  N_15
REMARK    3  A    between atoms: C_5  and  C_10
REMARK    4  A    between atoms: C_10  and  N_11
REMARK    5  A    between atoms: C_18  and  C_20
REMARK    6  A    between atoms: C_21  and  C_24
REMARK    7  A    between atoms: N_23  and  O_26
REMARK                            x       y       z     vdW  Elec       q    Type
REMARK                         _______ _______ _______ _____ _____    ______ ____
ROOT
ATOM      1  S   UNL     1      33.207 -22.357 -18.384  0.00  0.00    +0.080 S 
ATOM      2  O   UNL     1      31.929 -21.967 -17.816  0.00  0.00    -0.149 OA
ATOM      3  O   UNL     1      33.399 -23.624 -19.067  0.00  0.00    -0.149 OA
ENDROOT
BRANCH   1   4
ATOM      4  C   UNL     1      33.832 -21.086 -19.404  0.00  0.00    +0.126 C 
ATOM      5  C   UNL     1      34.828 -19.066 -21.027  0.00  0.00    -0.043 C 
ATOM      6  C   UNL     1      35.210 -20.916 -19.540  0.00  0.00    +0.020 C 
ATOM      7  C   UNL     1      32.955 -20.240 -20.082  0.00  0.00    +0.020 C 
ATOM      8  C   UNL     1      35.710 -19.901 -20.357  0.00  0.00    -0.005 C 
ATOM      9  C   UNL     1      33.455 -19.225 -20.898  0.00  0.00    -0.005 C 
BRANCH   5  10
ATOM     10  C   UNL     1      35.367 -17.971 -21.908  0.00  0.00    -0.050 C 
BRANCH  10  11
ATOM     11  N   UNL     1      34.300 -17.119 -22.433  0.00  0.00    +0.387 N 
ATOM     12  C   UNL     1      34.226 -17.232 -23.890  0.00  0.00    -0.100 C 
ATOM     13  C   UNL     1      34.516 -15.727 -22.039  0.00  0.00    -0.100 C 
ATOM     14  H   UNL     1      33.413 -17.433 -22.039  0.00  0.00    -0.079 HD
ENDBRANCH  10  11
ENDBRANCH   5  10
ENDBRANCH   1   4
BRANCH   1  15
ATOM     15  N   UNL     1      34.246 -22.402 -17.005  0.00  0.00    -0.167 N 
ATOM     16  C   UNL     1      33.929 -23.045 -15.880  0.00  0.00    +0.089 C 
ATOM     17  C   UNL     1      35.433 -21.798 -16.974  0.00  0.00    +0.089 C 
ATOM     18  C   UNL     1      34.998 -22.850 -15.032  0.00  0.00    +0.018 C 
ATOM     19  C   UNL     1      35.949 -22.061 -15.723  0.00  0.00    +0.019 C 
BRANCH  18  20
ATOM     20  C   UNL     1      35.092 -23.358 -13.720  0.00  0.00    +0.006 C 
ATOM     21  C   UNL     1      36.211 -23.738 -13.039  0.00  0.00    +0.060 C 
BRANCH  21  24
ATOM     22  O   UNL     1      36.122 -25.456 -11.379  0.00  0.00    -0.268 OA
ATOM     23  N   UNL     1      36.075 -23.239 -10.727  0.00  0.00    -0.193 N 
ATOM     24  C   UNL     1      36.131 -24.257 -11.644  0.00  0.00    +0.268 C 
ATOM     25  H   UNL     1      36.086 -22.291 -10.995  0.00  0.00    +0.183 HD
BRANCH  23  26
ATOM     26  O   UNL     1      36.002 -23.635  -9.384  0.00  0.00    -0.295 OA
ATOM     27  H   UNL     1      35.901 -22.851  -8.822  0.00  0.00    +0.241 HD
ENDBRANCH  23  26
ENDBRANCH  21  24
ENDBRANCH  18  20
ENDBRANCH   1  15
TORSDOF 7
ENDMDL
MODEL 4
REMARK VINA RESULT:     -10.2      4.024      6.247
REMARK  Name = 11609955
REMARK  7 active torsions:
REMARK  status: ('A' for Active; 'I' for Inactive)
REMARK    1  A    between atoms: S_1  and  C_4
REMARK    2  A    between atoms: S_1  and  N_15
REMARK    3  A    between atoms: C_5  and  C_10
REMARK    4  A    between atoms: C_10  and  N_11
REMARK    5  A    between atoms: C_18  and  C_20
REMARK    6  A    between atoms: C_21  and  C_24
REMARK    7  A    between atoms: N_23  and  O_26
REMARK                            x       y       z     vdW  Elec       q    Type
REMARK                         _______ _______ _______ _____ _____    ______ ____
ROOT
ATOM      1  S   UNL     1      32.922 -22.961 -17.192  0.00  0.00    +0.080 S 
ATOM      2  O   UNL     1      31.787 -22.477 -16.427  0.00  0.00    -0.149 OA
ATOM      3  O   UNL     1      32.962 -24.292 -17.768  0.00  0.00    -0.149 OA
ENDROOT
BRANCH   1   4
ATOM      4  C   UNL     1      33.349 -21.814 -18.438  0.00  0.00    +0.126 C 
ATOM      5  C   UNL     1      34.026 -19.992 -20.419  0.00  0.00    -0.043 C 
ATOM      6  C   UNL     1      34.683 -21.655 -18.812  0.00  0.00    +0.020 C 
ATOM      7  C   UNL     1      32.355 -21.057 -19.058  0.00  0.00    +0.020 C 
ATOM      8  C   UNL     1      35.023 -20.740 -19.808  0.00  0.00    -0.005 C 
ATOM      9  C   UNL     1      32.695 -20.142 -20.054  0.00  0.00    -0.005 C 
BRANCH   5  10
ATOM     10  C   UNL     1      34.394 -19.005 -21.494  0.00  0.00    -0.050 C 
BRANCH  10  11
ATOM     11  N   UNL     1      35.307 -17.975 -20.999  0.00  0.00    +0.387 N 
ATOM     12  C   UNL     1      34.738 -16.643 -21.209  0.00  0.00    -0.100 C 
ATOM     13  C   UNL     1      36.607 -18.084 -21.659  0.00  0.00    -0.100 C 
ATOM     14  H   UNL     1      35.440 -18.115 -19.997  0.00  0.00    -0.079 HD
ENDBRANCH  10  11
ENDBRANCH   5  10
ENDBRANCH   1   4
BRANCH   1  15
ATOM     15  N   UNL     1      34.213 -22.903 -16.045  0.00  0.00    -0.167 N 
ATOM     16  C   UNL     1      34.939 -23.973 -15.716  0.00  0.00    +0.089 C 
ATOM     17  C   UNL     1      34.569 -21.785 -15.412  0.00  0.00    +0.089 C 
ATOM     18  C   UNL     1      35.853 -23.526 -14.788  0.00  0.00    +0.018 C 
ATOM     19  C   UNL     1      35.620 -22.143 -14.595  0.00  0.00    +0.019 C 
BRANCH  18  20
ATOM     20  C   UNL     1      36.830 -24.330 -14.163  0.00  0.00    +0.006 C 
ATOM     21  C   UNL     1      38.113 -24.565 -14.562  0.00  0.00    +0.060 C 
BRANCH  21  24
ATOM     22  O   UNL     1      38.726 -25.886 -12.667  0.00  0.00    -0.268 OA
ATOM     23  N   UNL     1      40.191 -25.694 -14.444  0.00  0.00    -0.193 N 
ATOM     24  C   UNL     1      39.020 -25.447 -13.775  0.00  0.00    +0.268 C 
ATOM     25  H   UNL     1      40.377 -25.316 -15.334  0.00  0.00    +0.183 HD
BRANCH  23  26
ATOM     26  O   UNL     1      41.107 -26.522 -13.779  0.00  0.00    -0.295 OA
ATOM     27  H   UNL     1      40.959 -27.444 -14.042  0.00  0.00    +0.241 HD
ENDBRANCH  23  26
ENDBRANCH  21  24
ENDBRANCH  18  20
ENDBRANCH   1  15
TORSDOF 7
ENDMDL
MODEL 5
REMARK VINA RESULT:     -10.0      2.086      2.540
REMARK  Name = 11609955
REMARK  7 active torsions:
REMARK  status: ('A' for Active; 'I' for Inactive)
REMARK    1  A    between atoms: S_1  and  C_4
REMARK    2  A    between atoms: S_1  and  N_15
REMARK    3  A    between atoms: C_5  and  C_10
REMARK    4  A    between atoms: C_10  and  N_11
REMARK    5  A    between atoms: C_18  and  C_20
REMARK    6  A    between atoms: C_21  and  C_24
REMARK    7  A    between atoms: N_23  and  O_26
REMARK                            x       y       z     vdW  Elec       q    Type
REMARK                         _______ _______ _______ _____ _____    ______ ____
ROOT
ATOM      1  S   UNL     1      35.627 -18.311 -21.988  0.00  0.00    +0.080 S 
ATOM      2  O   UNL     1      35.894 -19.132 -23.155  0.00  0.00    -0.149 OA
ATOM      3  O   UNL     1      36.663 -17.946 -21.040  0.00  0.00    -0.149 OA
ENDROOT
BRANCH   1   4
ATOM      4  C   UNL     1      34.772 -16.860 -22.449  0.00  0.00    +0.126 C 
ATOM      5  C   UNL     1      33.411 -14.555 -23.182  0.00  0.00    -0.043 C 
ATOM      6  C   UNL     1      34.329 -16.699 -23.762  0.00  0.00    +0.020 C 
ATOM      7  C   UNL     1      34.532 -15.862 -21.505  0.00  0.00    +0.020 C 
ATOM      8  C   UNL     1      33.644 -15.541 -24.130  0.00  0.00    -0.005 C 
ATOM      9  C   UNL     1      33.847 -14.704 -21.873  0.00  0.00    -0.005 C 
BRANCH   5  10
ATOM     10  C   UNL     1      32.672 -13.304 -23.579  0.00  0.00    -0.050 C 
BRANCH  10  11
ATOM     11  N   UNL     1      32.952 -12.194 -22.669  0.00  0.00    +0.387 N 
ATOM     12  C   UNL     1      31.770 -11.882 -21.865  0.00  0.00    -0.100 C 
ATOM     13  C   UNL     1      33.387 -11.016 -23.417  0.00  0.00    -0.100 C 
ATOM     14  H   UNL     1      33.706 -12.474 -22.040  0.00  0.00    -0.079 HD
ENDBRANCH  10  11
ENDBRANCH   5  10
ENDBRANCH   1   4
BRANCH   1  15
ATOM     15  N   UNL     1      34.488 -19.261 -21.101  0.00  0.00    -0.167 N 
ATOM     16  C   UNL     1      34.841 -20.063 -20.096  0.00  0.00    +0.089 C 
ATOM     17  C   UNL     1      33.181 -19.253 -21.362  0.00  0.00    +0.089 C 
ATOM     18  C   UNL     1      33.669 -20.636 -19.654  0.00  0.00    +0.018 C 
ATOM     19  C   UNL     1      32.619 -20.124 -20.454  0.00  0.00    +0.019 C 
BRANCH  18  20
ATOM     20  C   UNL     1      33.570 -21.561 -18.593  0.00  0.00    +0.006 C 
ATOM     21  C   UNL     1      32.467 -21.899 -17.866  0.00  0.00    +0.060 C 
BRANCH  21  24
ATOM     22  O   UNL     1      33.539 -23.585 -16.555  0.00  0.00    -0.268 OA
ATOM     23  N   UNL     1      31.369 -22.965 -16.058  0.00  0.00    -0.193 N 
ATOM     24  C   UNL     1      32.539 -22.907 -16.771  0.00  0.00    +0.268 C 
ATOM     25  H   UNL     1      30.595 -22.397 -16.274  0.00  0.00    +0.183 HD
BRANCH  23  26
ATOM     26  O   UNL     1      31.347 -23.887 -15.002  0.00  0.00    -0.295 OA
ATOM     27  H   UNL     1      31.252 -23.412 -14.161  0.00  0.00    +0.241 HD
ENDBRANCH  23  26
ENDBRANCH  21  24
ENDBRANCH  18  20
ENDBRANCH   1  15
TORSDOF 7
ENDMDL
MODEL 6
REMARK VINA RESULT:      -9.9      4.943      9.315
REMARK  Name = 11609955
REMARK  7 active torsions:
REMARK  status: ('A' for Active; 'I' for Inactive)
REMARK    1  A    between atoms: S_1  and  C_4
REMARK    2  A    between atoms: S_1  and  N_15
REMARK    3  A    between atoms: C_5  and  C_10
REMARK    4  A    between atoms: C_10  and  N_11
REMARK    5  A    between atoms: C_18  and  C_20
REMARK    6  A    between atoms: C_21  and  C_24
REMARK    7  A    between atoms: N_23  and  O_26
REMARK                            x       y       z     vdW  Elec       q    Type
REMARK                         _______ _______ _______ _____ _____    ______ ____
ROOT
ATOM      1  S   UNL     1      34.889 -24.052 -14.465  0.00  0.00    +0.080 S 
ATOM      2  O   UNL     1      35.400 -23.813 -13.127  0.00  0.00    -0.149 OA
ATOM      3  O   UNL     1      34.993 -25.343 -15.119  0.00  0.00    -0.149 OA
ENDROOT
BRANCH   1   4
ATOM      4  C   UNL     1      33.235 -23.507 -14.591  0.00  0.00    +0.126 C 
ATOM      5  C   UNL     1      30.606 -22.640 -14.788  0.00  0.00    -0.043 C 
ATOM      6  C   UNL     1      32.434 -23.442 -13.450  0.00  0.00    +0.020 C 
ATOM      7  C   UNL     1      32.714 -23.138 -15.830  0.00  0.00    +0.020 C 
ATOM      8  C   UNL     1      31.113 -23.006 -13.550  0.00  0.00    -0.005 C 
ATOM      9  C   UNL     1      31.393 -22.701 -15.930  0.00  0.00    -0.005 C 
BRANCH   5  10
ATOM     10  C   UNL     1      29.180 -22.169 -14.896  0.00  0.00    -0.050 C 
BRANCH  10  11
ATOM     11  N   UNL     1      28.495 -22.764 -16.043  0.00  0.00    +0.387 N 
ATOM     12  C   UNL     1      27.256 -22.041 -16.331  0.00  0.00    -0.100 C 
ATOM     13  C   UNL     1      28.216 -24.178 -15.796  0.00  0.00    -0.100 C 
ATOM     14  H   UNL     1      29.107 -22.693 -16.857  0.00  0.00    -0.079 HD
ENDBRANCH  10  11
ENDBRANCH   5  10
ENDBRANCH   1   4
BRANCH   1  15
ATOM     15  N   UNL     1      35.814 -22.958 -15.432  0.00  0.00    -0.167 N 
ATOM     16  C   UNL     1      35.306 -22.312 -16.482  0.00  0.00    +0.089 C 
ATOM     17  C   UNL     1      37.096 -22.686 -15.190  0.00  0.00    +0.089 C 
ATOM     18  C   UNL     1      36.339 -21.548 -16.979  0.00  0.00    +0.018 C 
ATOM     19  C   UNL     1      37.472 -21.784 -16.162  0.00  0.00    +0.019 C 
BRANCH  18  20
ATOM     20  C   UNL     1      36.250 -20.696 -18.100  0.00  0.00    +0.006 C 
ATOM     21  C   UNL     1      35.459 -20.830 -19.202  0.00  0.00    +0.060 C 
BRANCH  21  24
ATOM     22  O   UNL     1      34.613 -19.757 -21.163  0.00  0.00    -0.268 OA
ATOM     23  N   UNL     1      36.590 -19.017 -20.223  0.00  0.00    -0.193 N 
ATOM     24  C   UNL     1      35.487 -19.827 -20.304  0.00  0.00    +0.268 C 
ATOM     25  H   UNL     1      37.262 -19.116 -19.510  0.00  0.00    +0.183 HD
BRANCH  23  26
ATOM     26  O   UNL     1      36.698 -18.037 -21.220  0.00  0.00    -0.295 OA
ATOM     27  H   UNL     1      37.471 -18.225 -21.775  0.00  0.00    +0.241 HD
ENDBRANCH  23  26
ENDBRANCH  21  24
ENDBRANCH  18  20
ENDBRANCH   1  15
TORSDOF 7
ENDMDL
MODEL 7
REMARK VINA RESULT:      -9.6      2.769      3.525
REMARK  Name = 11609955
REMARK  7 active torsions:
REMARK  status: ('A' for Active; 'I' for Inactive)
REMARK    1  A    between atoms: S_1  and  C_4
REMARK    2  A    between atoms: S_1  and  N_15
REMARK    3  A    between atoms: C_5  and  C_10
REMARK    4  A    between atoms: C_10  and  N_11
REMARK    5  A    between atoms: C_18  and  C_20
REMARK    6  A    between atoms: C_21  and  C_24
REMARK    7  A    between atoms: N_23  and  O_26
REMARK                            x       y       z     vdW  Elec       q    Type
REMARK                         _______ _______ _______ _____ _____    ______ ____
ROOT
ATOM      1  S   UNL     1      33.689 -16.419 -24.463  0.00  0.00    +0.080 S 
ATOM      2  O   UNL     1      32.416 -17.075 -24.705  0.00  0.00    -0.149 OA
ATOM      3  O   UNL     1      34.769 -16.437 -25.431  0.00  0.00    -0.149 OA
ENDROOT
BRANCH   1   4
ATOM      4  C   UNL     1      33.434 -14.767 -23.959  0.00  0.00    +0.126 C 
ATOM      5  C   UNL     1      33.028 -12.142 -23.157  0.00  0.00    -0.043 C 
ATOM      6  C   UNL     1      32.885 -13.843 -24.848  0.00  0.00    +0.020 C 
ATOM      7  C   UNL     1      33.780 -14.371 -22.667  0.00  0.00    +0.020 C 
ATOM      8  C   UNL     1      32.680 -12.524 -24.444  0.00  0.00    -0.005 C 
ATOM      9  C   UNL     1      33.575 -13.052 -22.263  0.00  0.00    -0.005 C 
BRANCH   5  10
ATOM     10  C   UNL     1      32.806 -10.717 -22.721  0.00  0.00    -0.050 C 
BRANCH  10  11
ATOM     11  N   UNL     1      31.402 -10.456 -22.406  0.00  0.00    +0.387 N 
ATOM     12  C   UNL     1      31.093  -9.037 -22.584  0.00  0.00    -0.100 C 
ATOM     13  C   UNL     1      31.098 -10.877 -21.039  0.00  0.00    -0.100 C 
ATOM     14  H   UNL     1      30.821 -10.997 -23.047  0.00  0.00    -0.079 HD
ENDBRANCH  10  11
ENDBRANCH   5  10
ENDBRANCH   1   4
BRANCH   1  15
ATOM     15  N   UNL     1      34.290 -17.245 -23.069  0.00  0.00    -0.167 N 
ATOM     16  C   UNL     1      33.794 -18.408 -22.646  0.00  0.00    +0.089 C 
ATOM     17  C   UNL     1      35.290 -16.773 -22.325  0.00  0.00    +0.089 C 
ATOM     18  C   UNL     1      34.528 -18.735 -21.527  0.00  0.00    +0.018 C 
ATOM     19  C   UNL     1      35.474 -17.702 -21.323  0.00  0.00    +0.019 C 
BRANCH  18  20
ATOM     20  C   UNL     1      34.342 -19.897 -20.749  0.00  0.00    +0.006 C 
ATOM     21  C   UNL     1      33.262 -20.246 -19.994  0.00  0.00    +0.060 C 
BRANCH  21  24
ATOM     22  O   UNL     1      34.104 -22.380 -19.325  0.00  0.00    -0.268 OA
ATOM     23  N   UNL     1      32.122 -21.605 -18.424  0.00  0.00    -0.193 N 
ATOM     24  C   UNL     1      33.230 -21.524 -19.228  0.00  0.00    +0.268 C 
ATOM     25  H   UNL     1      31.450 -20.887 -18.383  0.00  0.00    +0.183 HD
BRANCH  23  26
ATOM     26  O   UNL     1      32.011 -22.776 -17.661  0.00  0.00    -0.295 OA
ATOM     27  H   UNL     1      32.842 -23.274 -17.711  0.00  0.00    +0.241 HD
ENDBRANCH  23  26
ENDBRANCH  21  24
ENDBRANCH  18  20
ENDBRANCH   1  15
TORSDOF 7
ENDMDL
MODEL 8
REMARK VINA RESULT:      -9.4      3.223      8.905
REMARK  Name = 11609955
REMARK  7 active torsions:
REMARK  status: ('A' for Active; 'I' for Inactive)
REMARK    1  A    between atoms: S_1  and  C_4
REMARK    2  A    between atoms: S_1  and  N_15
REMARK    3  A    between atoms: C_5  and  C_10
REMARK    4  A    between atoms: C_10  and  N_11
REMARK    5  A    between atoms: C_18  and  C_20
REMARK    6  A    between atoms: C_21  and  C_24
REMARK    7  A    between atoms: N_23  and  O_26
REMARK                            x       y       z     vdW  Elec       q    Type
REMARK                         _______ _______ _______ _____ _____    ______ ____
ROOT
ATOM      1  S   UNL     1      35.528 -18.118 -22.022  0.00  0.00    +0.080 S 
ATOM      2  O   UNL     1      36.914 -17.910 -21.643  0.00  0.00    -0.149 OA
ATOM      3  O   UNL     1      35.123 -18.346 -23.398  0.00  0.00    -0.149 OA
ENDROOT
BRANCH   1   4
ATOM      4  C   UNL     1      34.806 -19.358 -21.028  0.00  0.00    +0.126 C 
ATOM      5  C   UNL     1      33.657 -21.331 -19.449  0.00  0.00    -0.043 C 
ATOM      6  C   UNL     1      33.418 -19.485 -20.969  0.00  0.00    +0.020 C 
ATOM      7  C   UNL     1      35.616 -20.222 -20.292  0.00  0.00    +0.020 C 
ATOM      8  C   UNL     1      32.841 -20.477 -20.176  0.00  0.00    -0.005 C 
ATOM      9  C   UNL     1      35.040 -21.214 -19.499  0.00  0.00    -0.005 C 
BRANCH   5  10
ATOM     10  C   UNL     1      33.035 -22.402 -18.593  0.00  0.00    -0.050 C 
BRANCH  10  11
ATOM     11  N   UNL     1      32.898 -21.975 -17.201  0.00  0.00    +0.387 N 
ATOM     12  C   UNL     1      33.929 -22.597 -16.371  0.00  0.00    -0.100 C 
ATOM     13  C   UNL     1      31.566 -22.304 -16.694  0.00  0.00    -0.100 C 
ATOM     14  H   UNL     1      33.017 -20.962 -17.160  0.00  0.00    -0.079 HD
ENDBRANCH  10  11
ENDBRANCH   5  10
ENDBRANCH   1   4
BRANCH   1  15
ATOM     15  N   UNL     1      34.771 -16.640 -21.546  0.00  0.00    -0.167 N 
ATOM     16  C   UNL     1      34.468 -15.669 -22.410  0.00  0.00    +0.089 C 
ATOM     17  C   UNL     1      34.438 -16.372 -20.284  0.00  0.00    +0.089 C 
ATOM     18  C   UNL     1      33.886 -14.675 -21.656  0.00  0.00    +0.018 C 
ATOM     19  C   UNL     1      33.867 -15.118 -20.312  0.00  0.00    +0.019 C 
BRANCH  18  20
ATOM     20  C   UNL     1      33.407 -13.449 -22.165  0.00  0.00    +0.006 C 
ATOM     21  C   UNL     1      32.392 -12.674 -21.688  0.00  0.00    +0.060 C 
BRANCH  21  24
ATOM     22  O   UNL     1      32.609 -10.952 -23.331  0.00  0.00    -0.268 OA
ATOM     23  N   UNL     1      30.941 -10.802 -21.738  0.00  0.00    -0.193 N 
ATOM     24  C   UNL     1      32.015 -11.395 -22.352  0.00  0.00    +0.268 C 
ATOM     25  H   UNL     1      30.500 -11.201 -20.954  0.00  0.00    +0.183 HD
BRANCH  23  26
ATOM     26  O   UNL     1      30.512  -9.592 -22.300  0.00  0.00    -0.295 OA
ATOM     27  H   UNL     1      30.307  -9.727 -23.239  0.00  0.00    +0.241 HD
ENDBRANCH  23  26
ENDBRANCH  21  24
ENDBRANCH  18  20
ENDBRANCH   1  15
TORSDOF 7
ENDMDL
MODEL 9
REMARK VINA RESULT:      -9.4      4.216      9.636
REMARK  Name = 11609955
REMARK  7 active torsions:
REMARK  status: ('A' for Active; 'I' for Inactive)
REMARK    1  A    between atoms: S_1  and  C_4
REMARK    2  A    between atoms: S_1  and  N_15
REMARK    3  A    between atoms: C_5  and  C_10
REMARK    4  A    between atoms: C_10  and  N_11
REMARK    5  A    between atoms: C_18  and  C_20
REMARK    6  A    between atoms: C_21  and  C_24
REMARK    7  A    between atoms: N_23  and  O_26
REMARK                            x       y       z     vdW  Elec       q    Type
REMARK                         _______ _______ _______ _____ _____    ______ ____
ROOT
ATOM      1  S   UNL     1      33.729 -15.775 -24.478  0.00  0.00    +0.080 S 
ATOM      2  O   UNL     1      34.871 -15.387 -25.285  0.00  0.00    -0.149 OA
ATOM      3  O   UNL     1      32.469 -16.197 -25.063  0.00  0.00    -0.149 OA
ENDROOT
BRANCH   1   4
ATOM      4  C   UNL     1      34.202 -16.960 -23.286  0.00  0.00    +0.126 C 
ATOM      5  C   UNL     1      34.955 -18.846 -21.394  0.00  0.00    -0.043 C 
ATOM      6  C   UNL     1      33.864 -18.302 -23.465  0.00  0.00    +0.020 C 
ATOM      7  C   UNL     1      34.917 -16.566 -22.156  0.00  0.00    +0.020 C 
ATOM      8  C   UNL     1      34.243 -19.249 -22.515  0.00  0.00    -0.005 C 
ATOM      9  C   UNL     1      35.296 -17.513 -21.205  0.00  0.00    -0.005 C 
BRANCH   5  10
ATOM     10  C   UNL     1      35.365 -19.868 -20.367  0.00  0.00    -0.050 C 
BRANCH  10  11
ATOM     11  N   UNL     1      34.309 -20.852 -20.127  0.00  0.00    +0.387 N 
ATOM     12  C   UNL     1      33.034 -20.182 -19.869  0.00  0.00    -0.100 C 
ATOM     13  C   UNL     1      34.665 -21.721 -19.007  0.00  0.00    -0.100 C 
ATOM     14  H   UNL     1      34.208 -21.428 -20.963  0.00  0.00    -0.079 HD
ENDBRANCH  10  11
ENDBRANCH   5  10
ENDBRANCH   1   4
BRANCH   1  15
ATOM     15  N   UNL     1      33.378 -14.335 -23.589  0.00  0.00    -0.167 N 
ATOM     16  C   UNL     1      33.012 -13.194 -24.173  0.00  0.00    +0.089 C 
ATOM     17  C   UNL     1      33.448 -14.272 -22.259  0.00  0.00    +0.089 C 
ATOM     18  C   UNL     1      32.825 -12.298 -23.144  0.00  0.00    +0.018 C 
ATOM     19  C   UNL     1      33.100 -12.978 -21.934  0.00  0.00    +0.019 C 
BRANCH  18  20
ATOM     20  C   UNL     1      32.430 -10.953 -23.305  0.00  0.00    +0.006 C 
ATOM     21  C   UNL     1      31.799 -10.144 -22.407  0.00  0.00    +0.060 C 
BRANCH  21  24
ATOM     22  O   UNL     1      31.434  -8.309 -23.893  0.00  0.00    -0.268 OA
ATOM     23  N   UNL     1      31.164  -8.002 -21.618  0.00  0.00    -0.193 N 
ATOM     24  C   UNL     1      31.453  -8.734 -22.742  0.00  0.00    +0.268 C 
ATOM     25  H   UNL     1      31.194  -8.394 -20.716  0.00  0.00    +0.183 HD
BRANCH  23  26
ATOM     26  O   UNL     1      30.822  -6.661 -21.839  0.00  0.00    -0.295 OA
ATOM     27  H   UNL     1      31.304  -6.328 -22.613  0.00  0.00    +0.241 HD
ENDBRANCH  23  26
ENDBRANCH  21  24
ENDBRANCH  18  20
ENDBRANCH   1  15
TORSDOF 7
ENDMDL
