MODEL 1
REMARK VINA RESULT:     -10.4      0.000      0.000
REMARK  Name = 10286462
REMARK  3 active torsions:
REMARK  status: ('A' for Active; 'I' for Inactive)
REMARK    1  A    between atoms: C_3  and  C_12
REMARK    2  A    between atoms: C_10  and  O_20
REMARK    3  A    between atoms: C_17  and  O_18
REMARK                            x       y       z     vdW  Elec       q    Type
REMARK                         _______ _______ _______ _____ _____    ______ ____
ROOT
ATOM      1 BR   UNL     1      33.908 -18.786 -24.424  0.00  0.00    -0.049 Br
ATOM      2  O   UNL     1      34.484 -15.680 -20.250  0.00  0.00    -0.287 OA
ATOM      3  C   UNL     1      34.274 -17.440 -21.909  0.00  0.00    +0.045 C 
ATOM      4  C   UNL     1      33.956 -15.177 -22.516  0.00  0.00    +0.042 C 
ATOM      5  C   UNL     1      33.785 -15.994 -23.626  0.00  0.00    +0.010 C 
ATOM      6  C   UNL     1      34.273 -16.043 -21.390  0.00  0.00    +0.196 C 
ATOM      7  C   UNL     1      33.992 -17.383 -23.226  0.00  0.00    +0.038 C 
ATOM      8  C   UNL     1      33.831 -13.801 -22.552  0.00  0.00    +0.040 C 
ATOM      9  C   UNL     1      33.472 -15.421 -24.849  0.00  0.00    +0.004 C 
ATOM     10  C   UNL     1      33.515 -13.225 -23.782  0.00  0.00    +0.134 C 
ATOM     11  C   UNL     1      33.336 -14.028 -24.921  0.00  0.00    +0.037 C 
ENDROOT
BRANCH   3  12
ATOM     12  C   UNL     1      34.570 -18.611 -21.084  0.00  0.00    +0.004 C 
ATOM     13  C   UNL     1      35.887 -18.893 -20.706  0.00  0.00    +0.003 C 
ATOM     14  C   UNL     1      33.539 -19.459 -20.667  0.00  0.00    +0.003 C 
ATOM     15  C   UNL     1      36.170 -20.010 -19.919  0.00  0.00    +0.037 C 
ATOM     16  C   UNL     1      33.821 -20.576 -19.881  0.00  0.00    +0.037 C 
ATOM     17  C   UNL     1      35.136 -20.851 -19.506  0.00  0.00    +0.134 C 
BRANCH  17  18
ATOM     18  O   UNL     1      35.412 -21.941 -18.738  0.00  0.00    -0.506 OA
ATOM     19  H   UNL     1      35.758 -22.716 -19.133  0.00  0.00    +0.292 HD
ENDBRANCH  17  18
ENDBRANCH   3  12
BRANCH  10  20
ATOM     20  O   UNL     1      33.382 -11.873 -23.883  0.00  0.00    -0.506 OA
ATOM     21  H   UNL     1      32.549 -11.499 -24.094  0.00  0.00    +0.292 HD
ENDBRANCH  10  20
TORSDOF 3
ENDMDL
MODEL 2
REMARK VINA RESULT:     -10.2      2.463      6.998
REMARK  Name = 10286462
REMARK  3 active torsions:
REMARK  status: ('A' for Active; 'I' for Inactive)
REMARK    1  A    between atoms: C_3  and  C_12
REMARK    2  A    between atoms: C_10  and  O_20
REMARK    3  A    between atoms: C_17  and  O_18
REMARK                            x       y       z     vdW  Elec       q    Type
REMARK                         _______ _______ _______ _____ _____    ______ ____
ROOT
ATOM      1 BR   UNL     1      33.053 -14.494 -25.256  0.00  0.00    -0.049 Br
ATOM      2  O   UNL     1      33.884 -14.038 -20.108  0.00  0.00    -0.287 OA
ATOM      3  C   UNL     1      33.372 -13.843 -22.473  0.00  0.00    +0.045 C 
ATOM      4  C   UNL     1      34.321 -15.829 -21.613  0.00  0.00    +0.042 C 
ATOM      5  C   UNL     1      34.119 -15.954 -22.982  0.00  0.00    +0.010 C 
ATOM      6  C   UNL     1      33.860 -14.503 -21.230  0.00  0.00    +0.196 C 
ATOM      7  C   UNL     1      33.528 -14.718 -23.486  0.00  0.00    +0.038 C 
ATOM      8  C   UNL     1      34.866 -16.827 -20.826  0.00  0.00    +0.040 C 
ATOM      9  C   UNL     1      34.476 -17.134 -23.615  0.00  0.00    +0.004 C 
ATOM     10  C   UNL     1      35.225 -18.013 -21.464  0.00  0.00    +0.134 C 
ATOM     11  C   UNL     1      35.033 -18.166 -22.848  0.00  0.00    +0.037 C 
ENDROOT
BRANCH   3  12
ATOM     12  C   UNL     1      32.805 -12.494 -22.505  0.00  0.00    +0.004 C 
ATOM     13  C   UNL     1      33.364 -11.513 -23.332  0.00  0.00    +0.003 C 
ATOM     14  C   UNL     1      31.701 -12.174 -21.708  0.00  0.00    +0.003 C 
ATOM     15  C   UNL     1      32.824 -10.227 -23.362  0.00  0.00    +0.037 C 
ATOM     16  C   UNL     1      31.161 -10.889 -21.738  0.00  0.00    +0.037 C 
ATOM     17  C   UNL     1      31.722  -9.915 -22.565  0.00  0.00    +0.134 C 
BRANCH  17  18
ATOM     18  O   UNL     1      31.195  -8.660 -22.594  0.00  0.00    -0.506 OA
ATOM     19  H   UNL     1      30.848  -8.318 -23.394  0.00  0.00    +0.292 HD
ENDBRANCH  17  18
ENDBRANCH   3  12
BRANCH  10  20
ATOM     20  O   UNL     1      35.764 -19.035 -20.742  0.00  0.00    -0.506 OA
ATOM     21  H   UNL     1      36.298 -19.678 -21.166  0.00  0.00    +0.292 HD
ENDBRANCH  10  20
TORSDOF 3
ENDMDL
MODEL 3
REMARK VINA RESULT:     -10.0      2.086      6.956
REMARK  Name = 10286462
REMARK  3 active torsions:
REMARK  status: ('A' for Active; 'I' for Inactive)
REMARK    1  A    between atoms: C_3  and  C_12
REMARK    2  A    between atoms: C_10  and  O_20
REMARK    3  A    between atoms: C_17  and  O_18
REMARK                            x       y       z     vdW  Elec       q    Type
REMARK                         _______ _______ _______ _____ _____    ______ ____
ROOT
ATOM      1 BR   UNL     1      37.109 -18.384 -21.361  0.00  0.00    -0.049 Br
ATOM      2  O   UNL     1      32.020 -19.603 -21.250  0.00  0.00    -0.287 OA
ATOM      3  C   UNL     1      34.265 -18.746 -21.591  0.00  0.00    +0.045 C 
ATOM      4  C   UNL     1      33.852 -20.411 -19.964  0.00  0.00    +0.042 C 
ATOM      5  C   UNL     1      35.202 -20.082 -19.974  0.00  0.00    +0.010 C 
ATOM      6  C   UNL     1      33.203 -19.592 -20.976  0.00  0.00    +0.196 C 
ATOM      7  C   UNL     1      35.430 -19.059 -20.989  0.00  0.00    +0.038 C 
ATOM      8  C   UNL     1      33.301 -21.353 -19.116  0.00  0.00    +0.040 C 
ATOM      9  C   UNL     1      36.063 -20.722 -19.095  0.00  0.00    +0.004 C 
ATOM     10  C   UNL     1      34.167 -21.995 -18.232  0.00  0.00    +0.134 C 
ATOM     11  C   UNL     1      35.537 -21.682 -18.221  0.00  0.00    +0.037 C 
ENDROOT
BRANCH   3  12
ATOM     12  C   UNL     1      34.017 -17.793 -22.672  0.00  0.00    +0.004 C 
ATOM     13  C   UNL     1      33.450 -18.223 -23.876  0.00  0.00    +0.003 C 
ATOM     14  C   UNL     1      34.346 -16.442 -22.511  0.00  0.00    +0.003 C 
ATOM     15  C   UNL     1      33.214 -17.313 -24.908  0.00  0.00    +0.037 C 
ATOM     16  C   UNL     1      34.110 -15.533 -23.542  0.00  0.00    +0.037 C 
ATOM     17  C   UNL     1      33.544 -15.969 -24.740  0.00  0.00    +0.134 C 
BRANCH  17  18
ATOM     18  O   UNL     1      33.313 -15.081 -25.746  0.00  0.00    -0.506 OA
ATOM     19  H   UNL     1      33.176 -15.390 -26.620  0.00  0.00    +0.292 HD
ENDBRANCH  17  18
ENDBRANCH   3  12
BRANCH  10  20
ATOM     20  O   UNL     1      33.685 -22.937 -17.374  0.00  0.00    -0.506 OA
ATOM     21  H   UNL     1      34.276 -23.445 -16.855  0.00  0.00    +0.292 HD
ENDBRANCH  10  20
TORSDOF 3
ENDMDL
MODEL 4
REMARK VINA RESULT:      -9.8      3.041      7.606
REMARK  Name = 10286462
REMARK  3 active torsions:
REMARK  status: ('A' for Active; 'I' for Inactive)
REMARK    1  A    between atoms: C_3  and  C_12
REMARK    2  A    between atoms: C_10  and  O_20
REMARK    3  A    between atoms: C_17  and  O_18
REMARK                            x       y       z     vdW  Elec       q    Type
REMARK                         _______ _______ _______ _____ _____    ______ ____
ROOT
ATOM      1 BR   UNL     1      32.777 -13.327 -25.360  0.00  0.00    -0.049 Br
ATOM      2  O   UNL     1      33.304 -13.111 -20.157  0.00  0.00    -0.287 OA
ATOM      3  C   UNL     1      32.919 -12.810 -22.535  0.00  0.00    +0.045 C 
ATOM      4  C   UNL     1      33.880 -14.811 -21.721  0.00  0.00    +0.042 C 
ATOM      5  C   UNL     1      33.760 -14.871 -23.103  0.00  0.00    +0.010 C 
ATOM      6  C   UNL     1      33.357 -13.520 -21.299  0.00  0.00    +0.196 C 
ATOM      7  C   UNL     1      33.159 -13.628 -23.578  0.00  0.00    +0.038 C 
ATOM      8  C   UNL     1      34.411 -15.831 -20.954  0.00  0.00    +0.040 C 
ATOM      9  C   UNL     1      34.188 -16.007 -23.772  0.00  0.00    +0.004 C 
ATOM     10  C   UNL     1      34.842 -16.972 -21.628  0.00  0.00    +0.134 C 
ATOM     11  C   UNL     1      34.733 -17.060 -23.026  0.00  0.00    +0.037 C 
ENDROOT
BRANCH   3  12
ATOM     12  C   UNL     1      32.314 -11.479 -22.533  0.00  0.00    +0.004 C 
ATOM     13  C   UNL     1      31.116 -11.249 -21.848  0.00  0.00    +0.003 C 
ATOM     14  C   UNL     1      32.927 -10.424 -23.217  0.00  0.00    +0.003 C 
ATOM     15  C   UNL     1      30.539  -9.978 -21.846  0.00  0.00    +0.037 C 
ATOM     16  C   UNL     1      32.351  -9.154 -23.216  0.00  0.00    +0.037 C 
ATOM     17  C   UNL     1      31.156  -8.931 -22.530  0.00  0.00    +0.134 C 
BRANCH  17  18
ATOM     18  O   UNL     1      30.593  -7.692 -22.528  0.00  0.00    -0.506 OA
ATOM     19  H   UNL     1      30.308  -7.306 -23.333  0.00  0.00    +0.292 HD
ENDBRANCH  17  18
ENDBRANCH   3  12
BRANCH  10  20
ATOM     20  O   UNL     1      35.371 -18.014 -20.927  0.00  0.00    -0.506 OA
ATOM     21  H   UNL     1      35.134 -18.894 -21.145  0.00  0.00    +0.292 HD
ENDBRANCH  10  20
TORSDOF 3
ENDMDL
MODEL 5
REMARK VINA RESULT:      -9.8      2.066      2.806
REMARK  Name = 10286462
REMARK  3 active torsions:
REMARK  status: ('A' for Active; 'I' for Inactive)
REMARK    1  A    between atoms: C_3  and  C_12
REMARK    2  A    between atoms: C_10  and  O_20
REMARK    3  A    between atoms: C_17  and  O_18
REMARK                            x       y       z     vdW  Elec       q    Type
REMARK                         _______ _______ _______ _____ _____    ______ ____
ROOT
ATOM      1 BR   UNL     1      33.976 -14.623 -20.274  0.00  0.00    -0.049 Br
ATOM      2  O   UNL     1      34.133 -17.306 -24.766  0.00  0.00    -0.287 OA
ATOM      3  C   UNL     1      34.223 -16.416 -22.509  0.00  0.00    +0.045 C 
ATOM      4  C   UNL     1      33.535 -15.048 -24.310  0.00  0.00    +0.042 C 
ATOM      5  C   UNL     1      33.506 -14.323 -23.126  0.00  0.00    +0.010 C 
ATOM      6  C   UNL     1      33.982 -16.392 -23.980  0.00  0.00    +0.196 C 
ATOM      7  C   UNL     1      33.928 -15.191 -22.031  0.00  0.00    +0.038 C 
ATOM      8  C   UNL     1      33.189 -14.519 -25.540  0.00  0.00    +0.040 C 
ATOM      9  C   UNL     1      33.111 -12.994 -23.154  0.00  0.00    +0.004 C 
ATOM     10  C   UNL     1      32.793 -13.183 -25.567  0.00  0.00    +0.134 C 
ATOM     11  C   UNL     1      32.754 -12.426 -24.383  0.00  0.00    +0.037 C 
ENDROOT
BRANCH   3  12
ATOM     12  C   UNL     1      34.666 -17.603 -21.780  0.00  0.00    +0.004 C 
ATOM     13  C   UNL     1      33.741 -18.576 -21.385  0.00  0.00    +0.003 C 
ATOM     14  C   UNL     1      36.020 -17.776 -21.469  0.00  0.00    +0.003 C 
ATOM     15  C   UNL     1      34.165 -19.709 -20.689  0.00  0.00    +0.037 C 
ATOM     16  C   UNL     1      36.443 -18.908 -20.773  0.00  0.00    +0.037 C 
ATOM     17  C   UNL     1      35.516 -19.874 -20.383  0.00  0.00    +0.134 C 
BRANCH  17  18
ATOM     18  O   UNL     1      35.929 -20.980 -19.704  0.00  0.00    -0.506 OA
ATOM     19  H   UNL     1      35.655 -21.831 -19.985  0.00  0.00    +0.292 HD
ENDBRANCH  17  18
ENDBRANCH   3  12
BRANCH  10  20
ATOM     20  O   UNL     1      32.436 -12.605 -26.748  0.00  0.00    -0.506 OA
ATOM     21  H   UNL     1      32.873 -12.850 -27.540  0.00  0.00    +0.292 HD
ENDBRANCH  10  20
TORSDOF 3
ENDMDL
MODEL 6
REMARK VINA RESULT:      -9.3      5.266      8.085
REMARK  Name = 10286462
REMARK  3 active torsions:
REMARK  status: ('A' for Active; 'I' for Inactive)
REMARK    1  A    between atoms: C_3  and  C_12
REMARK    2  A    between atoms: C_10  and  O_20
REMARK    3  A    between atoms: C_17  and  O_18
REMARK                            x       y       z     vdW  Elec       q    Type
REMARK                         _______ _______ _______ _____ _____    ______ ____
ROOT
ATOM      1 BR   UNL     1      32.177 -23.209 -16.193  0.00  0.00    -0.049 Br
ATOM      2  O   UNL     1      37.182 -21.774 -16.735  0.00  0.00    -0.287 OA
ATOM      3  C   UNL     1      34.987 -22.603 -16.111  0.00  0.00    +0.045 C 
ATOM      4  C   UNL     1      35.275 -21.352 -18.096  0.00  0.00    +0.042 C 
ATOM      5  C   UNL     1      33.942 -21.714 -17.952  0.00  0.00    +0.010 C 
ATOM      6  C   UNL     1      35.993 -21.894 -16.952  0.00  0.00    +0.196 C 
ATOM      7  C   UNL     1      33.793 -22.489 -16.725  0.00  0.00    +0.038 C 
ATOM      8  C   UNL     1      35.756 -20.611 -19.159  0.00  0.00    +0.040 C 
ATOM      9  C   UNL     1      33.025 -21.322 -18.916  0.00  0.00    +0.004 C 
ATOM     10  C   UNL     1      34.834 -20.216 -20.127  0.00  0.00    +0.134 C 
ATOM     11  C   UNL     1      33.478 -20.568 -20.006  0.00  0.00    +0.037 C 
ENDROOT
BRANCH   3  12
ATOM     12  C   UNL     1      35.319 -23.304 -14.871  0.00  0.00    +0.004 C 
ATOM     13  C   UNL     1      35.274 -22.631 -13.645  0.00  0.00    +0.003 C 
ATOM     14  C   UNL     1      35.685 -24.655 -14.900  0.00  0.00    +0.003 C 
ATOM     15  C   UNL     1      35.590 -23.300 -12.462  0.00  0.00    +0.037 C 
ATOM     16  C   UNL     1      36.002 -25.323 -13.718  0.00  0.00    +0.037 C 
ATOM     17  C   UNL     1      35.954 -24.646 -12.499  0.00  0.00    +0.134 C 
BRANCH  17  18
ATOM     18  O   UNL     1      36.263 -25.299 -11.345  0.00  0.00    -0.506 OA
ATOM     19  H   UNL     1      36.942 -24.971 -10.789  0.00  0.00    +0.292 HD
ENDBRANCH  17  18
ENDBRANCH   3  12
BRANCH  10  20
ATOM     20  O   UNL     1      35.247 -19.487 -21.200  0.00  0.00    -0.506 OA
ATOM     21  H   UNL     1      36.077 -19.667 -21.598  0.00  0.00    +0.292 HD
ENDBRANCH  10  20
TORSDOF 3
ENDMDL
MODEL 7
REMARK VINA RESULT:      -9.1      5.763      8.659
REMARK  Name = 10286462
REMARK  3 active torsions:
REMARK  status: ('A' for Active; 'I' for Inactive)
REMARK    1  A    between atoms: C_3  and  C_12
REMARK    2  A    between atoms: C_10  and  O_20
REMARK    3  A    between atoms: C_17  and  O_18
REMARK                            x       y       z     vdW  Elec       q    Type
REMARK                         _______ _______ _______ _____ _____    ______ ____
ROOT
ATOM      1 BR   UNL     1      37.409 -21.816 -16.362  0.00  0.00    -0.049 Br
ATOM      2  O   UNL     1      32.429 -23.329 -15.803  0.00  0.00    -0.287 OA
ATOM      3  C   UNL     1      34.809 -22.856 -15.709  0.00  0.00    +0.045 C 
ATOM      4  C   UNL     1      33.501 -22.068 -17.514  0.00  0.00    +0.042 C 
ATOM      5  C   UNL     1      34.823 -21.676 -17.680  0.00  0.00    +0.010 C 
ATOM      6  C   UNL     1      33.429 -22.823 -16.272  0.00  0.00    +0.196 C 
ATOM      7  C   UNL     1      35.606 -22.169 -16.551  0.00  0.00    +0.038 C 
ATOM      8  C   UNL     1      32.494 -21.760 -18.410  0.00  0.00    +0.040 C 
ATOM      9  C   UNL     1      35.176 -20.934 -18.796  0.00  0.00    +0.004 C 
ATOM     10  C   UNL     1      32.850 -21.015 -19.533  0.00  0.00    +0.134 C 
ATOM     11  C   UNL     1      34.181 -20.605 -19.725  0.00  0.00    +0.037 C 
ENDROOT
BRANCH   3  12
ATOM     12  C   UNL     1      35.153 -23.509 -14.446  0.00  0.00    +0.004 C 
ATOM     13  C   UNL     1      34.658 -23.010 -13.236  0.00  0.00    +0.003 C 
ATOM     14  C   UNL     1      35.980 -24.637 -14.438  0.00  0.00    +0.003 C 
ATOM     15  C   UNL     1      34.987 -23.633 -12.031  0.00  0.00    +0.037 C 
ATOM     16  C   UNL     1      36.308 -25.260 -13.234  0.00  0.00    +0.037 C 
ATOM     17  C   UNL     1      35.812 -24.758 -12.031  0.00  0.00    +0.134 C 
BRANCH  17  18
ATOM     18  O   UNL     1      36.132 -25.365 -10.855  0.00  0.00    -0.506 OA
ATOM     19  H   UNL     1      36.326 -26.282 -10.840  0.00  0.00    +0.292 HD
ENDBRANCH  17  18
ENDBRANCH   3  12
BRANCH  10  20
ATOM     20  O   UNL     1      31.902 -20.677 -20.451  0.00  0.00    -0.506 OA
ATOM     21  H   UNL     1      31.098 -21.157 -20.493  0.00  0.00    +0.292 HD
ENDBRANCH  10  20
TORSDOF 3
ENDMDL
MODEL 8
REMARK VINA RESULT:      -9.1      4.544      7.111
REMARK  Name = 10286462
REMARK  3 active torsions:
REMARK  status: ('A' for Active; 'I' for Inactive)
REMARK    1  A    between atoms: C_3  and  C_12
REMARK    2  A    between atoms: C_10  and  O_20
REMARK    3  A    between atoms: C_17  and  O_18
REMARK                            x       y       z     vdW  Elec       q    Type
REMARK                         _______ _______ _______ _____ _____    ______ ____
ROOT
ATOM      1 BR   UNL     1      36.647 -21.798 -16.696  0.00  0.00    -0.049 Br
ATOM      2  O   UNL     1      31.693 -21.778 -18.387  0.00  0.00    -0.287 OA
ATOM      3  C   UNL     1      33.842 -22.030 -17.286  0.00  0.00    +0.045 C 
ATOM      4  C   UNL     1      33.677 -20.870 -19.338  0.00  0.00    +0.042 C 
ATOM      5  C   UNL     1      34.997 -20.884 -18.906  0.00  0.00    +0.010 C 
ATOM      6  C   UNL     1      32.891 -21.584 -18.344  0.00  0.00    +0.196 C 
ATOM      7  C   UNL     1      35.070 -21.600 -17.637  0.00  0.00    +0.038 C 
ATOM      8  C   UNL     1      33.262 -20.267 -20.512  0.00  0.00    +0.040 C 
ATOM      9  C   UNL     1      35.969 -20.266 -19.677  0.00  0.00    +0.004 C 
ATOM     10  C   UNL     1      34.241 -19.647 -21.286  0.00  0.00    +0.134 C 
ATOM     11  C   UNL     1      35.584 -19.646 -20.873  0.00  0.00    +0.037 C 
ENDROOT
BRANCH   3  12
ATOM     12  C   UNL     1      33.435 -22.771 -16.091  0.00  0.00    +0.004 C 
ATOM     13  C   UNL     1      32.116 -22.699 -15.631  0.00  0.00    +0.003 C 
ATOM     14  C   UNL     1      34.363 -23.556 -15.398  0.00  0.00    +0.003 C 
ATOM     15  C   UNL     1      31.729 -23.406 -14.492  0.00  0.00    +0.037 C 
ATOM     16  C   UNL     1      33.976 -24.262 -14.260  0.00  0.00    +0.037 C 
ATOM     17  C   UNL     1      32.659 -24.187 -13.806  0.00  0.00    +0.134 C 
BRANCH  17  18
ATOM     18  O   UNL     1      32.281 -24.876 -12.695  0.00  0.00    -0.506 OA
ATOM     19  H   UNL     1      31.606 -25.523 -12.753  0.00  0.00    +0.292 HD
ENDBRANCH  17  18
ENDBRANCH   3  12
BRANCH  10  20
ATOM     20  O   UNL     1      33.894 -19.032 -22.452  0.00  0.00    -0.506 OA
ATOM     21  H   UNL     1      34.322 -19.269 -23.252  0.00  0.00    +0.292 HD
ENDBRANCH  10  20
TORSDOF 3
ENDMDL
MODEL 9
REMARK VINA RESULT:      -9.0      3.333      5.292
REMARK  Name = 10286462
REMARK  3 active torsions:
REMARK  status: ('A' for Active; 'I' for Inactive)
REMARK    1  A    between atoms: C_3  and  C_12
REMARK    2  A    between atoms: C_10  and  O_20
REMARK    3  A    between atoms: C_17  and  O_18
REMARK                            x       y       z     vdW  Elec       q    Type
REMARK                         _______ _______ _______ _____ _____    ______ ____
ROOT
ATOM      1 BR   UNL     1      31.821 -13.819 -19.695  0.00  0.00    -0.049 Br
ATOM      2  O   UNL     1      33.572 -12.181 -24.348  0.00  0.00    -0.287 OA
ATOM      3  C   UNL     1      32.979 -13.296 -22.274  0.00  0.00    +0.045 C 
ATOM      4  C   UNL     1      32.285 -11.073 -22.679  0.00  0.00    +0.042 C 
ATOM      5  C   UNL     1      31.830 -11.493 -21.436  0.00  0.00    +0.010 C 
ATOM      6  C   UNL     1      33.024 -12.182 -23.264  0.00  0.00    +0.196 C 
ATOM      7  C   UNL     1      32.266 -12.867 -21.214  0.00  0.00    +0.038 C 
ATOM      8  C   UNL     1      32.042  -9.815 -23.198  0.00  0.00    +0.040 C 
ATOM      9  C   UNL     1      31.089 -10.620 -20.655  0.00  0.00    +0.004 C 
ATOM     10  C   UNL     1      31.297  -8.937 -22.412  0.00  0.00    +0.134 C 
ATOM     11  C   UNL     1      30.824  -9.336 -21.150  0.00  0.00    +0.037 C 
ENDROOT
BRANCH   3  12
ATOM     12  C   UNL     1      33.595 -14.604 -22.499  0.00  0.00    +0.004 C 
ATOM     13  C   UNL     1      33.569 -15.187 -23.770  0.00  0.00    +0.003 C 
ATOM     14  C   UNL     1      34.213 -15.283 -21.443  0.00  0.00    +0.003 C 
ATOM     15  C   UNL     1      34.156 -16.435 -23.984  0.00  0.00    +0.037 C 
ATOM     16  C   UNL     1      34.800 -16.530 -21.657  0.00  0.00    +0.037 C 
ATOM     17  C   UNL     1      34.771 -17.106 -22.927  0.00  0.00    +0.134 C 
BRANCH  17  18
ATOM     18  O   UNL     1      35.344 -18.323 -23.136  0.00  0.00    -0.506 OA
ATOM     19  H   UNL     1      35.247 -18.750 -23.964  0.00  0.00    +0.292 HD
ENDBRANCH  17  18
ENDBRANCH   3  12
BRANCH  10  20
ATOM     20  O   UNL     1      31.020  -7.684 -22.870  0.00  0.00    -0.506 OA
ATOM     21  H   UNL     1      30.665  -7.567 -23.729  0.00  0.00    +0.292 HD
ENDBRANCH  10  20
TORSDOF 3
ENDMDL
