MODEL 1
REMARK VINA RESULT:     -12.2      0.000      0.000
REMARK  Name = 654376
REMARK  2 active torsions:
REMARK  status: ('A' for Active; 'I' for Inactive)
REMARK    1  A    between atoms: N_4  and  C_16
REMARK    2  A    between atoms: C_16  and  C_18
REMARK                            x       y       z     vdW  Elec       q    Type
REMARK                         _______ _______ _______ _____ _____    ______ ____
ROOT
ATOM      1  S   UNL     1      32.047 -12.066 -20.284  0.00  0.00    -0.090 S 
ATOM      2  O   UNL     1      34.514 -16.230 -24.332  0.00  0.00    -0.267 OA
ATOM      3  N   UNL     1      33.011 -13.790 -23.548  0.00  0.00    -0.321 N 
ATOM      4  N   UNL     1      34.850 -16.641 -22.063  0.00  0.00    -0.171 N 
ATOM      5  N   UNL     1      34.673 -16.282 -20.728  0.00  0.00    -0.173 NA
ATOM      6  C   UNL     1      33.626 -14.725 -22.765  0.00  0.00    +0.118 A 
ATOM      7  C   UNL     1      32.450 -12.847 -22.711  0.00  0.00    +0.066 A 
ATOM      8  C   UNL     1      33.463 -14.391 -21.451  0.00  0.00    +0.048 A 
ATOM      9  C   UNL     1      32.714 -13.195 -21.412  0.00  0.00    +0.048 A 
ATOM     10  C   UNL     1      34.349 -15.903 -23.159  0.00  0.00    +0.284 C 
ATOM     11  C   UNL     1      31.696 -11.651 -22.839  0.00  0.00    +0.020 C 
ATOM     12  C   UNL     1      34.010 -15.207 -20.426  0.00  0.00    +0.120 C 
ATOM     13  C   UNL     1      31.418 -11.138 -21.590  0.00  0.00    +0.009 C 
ATOM     14  C   UNL     1      32.929 -13.739 -24.987  0.00  0.00    +0.131 C 
ATOM     15  C   UNL     1      30.658  -9.906 -21.273  0.00  0.00    +0.038 C 
ENDROOT
BRANCH   4  16
ATOM     16  C   UNL     1      35.609 -17.864 -22.258  0.00  0.00    +0.148 C 
BRANCH  16  18
ATOM     17  F   UNL     1      33.040 -19.039 -22.179  0.00  0.00    -0.204 F 
ATOM     18  C   UNL     1      35.228 -18.926 -21.267  0.00  0.00    +0.027 C 
ATOM     19  C   UNL     1      33.946 -19.461 -21.286  0.00  0.00    +0.138 C 
ATOM     20  C   UNL     1      36.167 -19.365 -20.340  0.00  0.00    -0.000 C 
ATOM     21  C   UNL     1      33.596 -20.448 -20.365  0.00  0.00    +0.029 C 
ATOM     22  C   UNL     1      35.817 -20.353 -19.420  0.00  0.00    -0.000 C 
ATOM     23  C   UNL     1      34.532 -20.894 -19.431  0.00  0.00    +0.002 C 
ENDBRANCH  16  18
ENDBRANCH   4  16
TORSDOF 2
ENDMDL
MODEL 2
REMARK VINA RESULT:     -12.1      1.011      1.426
REMARK  Name = 654376
REMARK  2 active torsions:
REMARK  status: ('A' for Active; 'I' for Inactive)
REMARK    1  A    between atoms: N_4  and  C_16
REMARK    2  A    between atoms: C_16  and  C_18
REMARK                            x       y       z     vdW  Elec       q    Type
REMARK                         _______ _______ _______ _____ _____    ______ ____
ROOT
ATOM      1  S   UNL     1      32.007 -11.738 -20.247  0.00  0.00    -0.090 S 
ATOM      2  O   UNL     1      34.308 -15.819 -24.475  0.00  0.00    -0.267 OA
ATOM      3  N   UNL     1      32.904 -13.356 -23.584  0.00  0.00    -0.321 N 
ATOM      4  N   UNL     1      34.625 -16.341 -22.227  0.00  0.00    -0.171 N 
ATOM      5  N   UNL     1      34.461 -16.033 -20.877  0.00  0.00    -0.173 NA
ATOM      6  C   UNL     1      33.480 -14.349 -22.843  0.00  0.00    +0.118 A 
ATOM      7  C   UNL     1      32.381 -12.428 -22.707  0.00  0.00    +0.066 A 
ATOM      8  C   UNL     1      33.329 -14.066 -21.516  0.00  0.00    +0.048 A 
ATOM      9  C   UNL     1      32.630 -12.843 -21.424  0.00  0.00    +0.048 A 
ATOM     10  C   UNL     1      34.155 -15.537 -23.288  0.00  0.00    +0.284 C 
ATOM     11  C   UNL     1      31.675 -11.198 -22.782  0.00  0.00    +0.020 C 
ATOM     12  C   UNL     1      33.842 -14.947 -20.528  0.00  0.00    +0.120 C 
ATOM     13  C   UNL     1      31.417 -10.729 -21.511  0.00  0.00    +0.009 C 
ATOM     14  C   UNL     1      32.825 -13.240 -25.019  0.00  0.00    +0.131 C 
ATOM     15  C   UNL     1      30.707  -9.483 -21.140  0.00  0.00    +0.038 C 
ENDROOT
BRANCH   4  16
ATOM     16  C   UNL     1      35.335 -17.584 -22.476  0.00  0.00    +0.148 C 
BRANCH  16  18
ATOM     17  F   UNL     1      37.157 -18.783 -20.678  0.00  0.00    -0.204 F 
ATOM     18  C   UNL     1      34.936 -18.661 -21.508  0.00  0.00    +0.027 C 
ATOM     19  C   UNL     1      35.885 -19.207 -20.651  0.00  0.00    +0.138 C 
ATOM     20  C   UNL     1      33.618 -19.102 -21.479  0.00  0.00    -0.000 C 
ATOM     21  C   UNL     1      35.512 -20.206 -19.753  0.00  0.00    +0.029 C 
ATOM     22  C   UNL     1      33.244 -20.100 -20.580  0.00  0.00    -0.000 C 
ATOM     23  C   UNL     1      34.191 -20.653 -19.717  0.00  0.00    +0.002 C 
ENDBRANCH  16  18
ENDBRANCH   4  16
TORSDOF 2
ENDMDL
MODEL 3
REMARK VINA RESULT:     -11.6      1.580      2.092
REMARK  Name = 654376
REMARK  2 active torsions:
REMARK  status: ('A' for Active; 'I' for Inactive)
REMARK    1  A    between atoms: N_4  and  C_16
REMARK    2  A    between atoms: C_16  and  C_18
REMARK                            x       y       z     vdW  Elec       q    Type
REMARK                         _______ _______ _______ _____ _____    ______ ____
ROOT
ATOM      1  S   UNL     1      33.241 -12.399 -21.404  0.00  0.00    -0.090 S 
ATOM      2  O   UNL     1      34.482 -18.041 -23.943  0.00  0.00    -0.267 OA
ATOM      3  N   UNL     1      33.583 -15.208 -23.963  0.00  0.00    -0.321 N 
ATOM      4  N   UNL     1      34.888 -17.800 -21.661  0.00  0.00    -0.171 N 
ATOM      5  N   UNL     1      34.888 -17.019 -20.507  0.00  0.00    -0.173 NA
ATOM      6  C   UNL     1      34.044 -15.971 -22.927  0.00  0.00    +0.118 A 
ATOM      7  C   UNL     1      33.294 -13.955 -23.464  0.00  0.00    +0.066 A 
ATOM      8  C   UNL     1      34.050 -15.223 -21.785  0.00  0.00    +0.048 A 
ATOM      9  C   UNL     1      33.574 -13.938 -22.122  0.00  0.00    +0.048 A 
ATOM     10  C   UNL     1      34.475 -17.342 -22.932  0.00  0.00    +0.284 C 
ATOM     11  C   UNL     1      32.799 -12.720 -23.960  0.00  0.00    +0.020 C 
ATOM     12  C   UNL     1      34.488 -15.785 -20.556  0.00  0.00    +0.120 C 
ATOM     13  C   UNL     1      32.726 -11.801 -22.935  0.00  0.00    +0.009 C 
ATOM     14  C   UNL     1      33.409 -15.585 -25.344  0.00  0.00    +0.131 C 
ATOM     15  C   UNL     1      32.266 -10.395 -23.019  0.00  0.00    +0.038 C 
ENDROOT
BRANCH   4  16
ATOM     16  C   UNL     1      35.359 -19.160 -21.464  0.00  0.00    +0.148 C 
BRANCH  16  18
ATOM     17  F   UNL     1      36.318 -20.874 -19.431  0.00  0.00    -0.204 F 
ATOM     18  C   UNL     1      34.450 -19.944 -20.562  0.00  0.00    +0.027 C 
ATOM     19  C   UNL     1      34.990 -20.768 -19.581  0.00  0.00    +0.138 C 
ATOM     20  C   UNL     1      33.072 -19.835 -20.716  0.00  0.00    -0.000 C 
ATOM     21  C   UNL     1      34.143 -21.493 -18.744  0.00  0.00    +0.029 C 
ATOM     22  C   UNL     1      32.225 -20.558 -19.878  0.00  0.00    -0.000 C 
ATOM     23  C   UNL     1      32.759 -21.388 -18.892  0.00  0.00    +0.002 C 
ENDBRANCH  16  18
ENDBRANCH   4  16
TORSDOF 2
ENDMDL
MODEL 4
REMARK VINA RESULT:     -10.6      2.475      3.369
REMARK  Name = 654376
REMARK  2 active torsions:
REMARK  status: ('A' for Active; 'I' for Inactive)
REMARK    1  A    between atoms: N_4  and  C_16
REMARK    2  A    between atoms: C_16  and  C_18
REMARK                            x       y       z     vdW  Elec       q    Type
REMARK                         _______ _______ _______ _____ _____    ______ ____
ROOT
ATOM      1  S   UNL     1      33.120 -14.617 -25.620  0.00  0.00    -0.090 S 
ATOM      2  O   UNL     1      35.026 -16.749 -19.995  0.00  0.00    -0.267 OA
ATOM      3  N   UNL     1      33.954 -14.735 -21.899  0.00  0.00    -0.321 N 
ATOM      4  N   UNL     1      35.140 -18.241 -21.781  0.00  0.00    -0.171 N 
ATOM      5  N   UNL     1      34.947 -18.532 -23.130  0.00  0.00    -0.173 NA
ATOM      6  C   UNL     1      34.335 -16.028 -22.119  0.00  0.00    +0.118 A 
ATOM      7  C   UNL     1      33.524 -14.214 -23.102  0.00  0.00    +0.066 A 
ATOM      8  C   UNL     1      34.154 -16.333 -23.438  0.00  0.00    +0.048 A 
ATOM      9  C   UNL     1      33.638 -15.180 -24.068  0.00  0.00    +0.048 A 
ATOM     10  C   UNL     1      34.853 -16.992 -21.188  0.00  0.00    +0.284 C 
ATOM     11  C   UNL     1      33.013 -12.981 -23.586  0.00  0.00    +0.020 C 
ATOM     12  C   UNL     1      34.476 -17.625 -23.931  0.00  0.00    +0.120 C 
ATOM     13  C   UNL     1      32.758 -13.079 -24.937  0.00  0.00    +0.009 C 
ATOM     14  C   UNL     1      33.973 -13.993 -20.663  0.00  0.00    +0.131 C 
ATOM     15  C   UNL     1      32.218 -12.026 -25.829  0.00  0.00    +0.038 C 
ENDROOT
BRANCH   4  16
ATOM     16  C   UNL     1      35.672 -19.345 -21.000  0.00  0.00    +0.148 C 
BRANCH  16  18
ATOM     17  F   UNL     1      36.222 -21.343 -19.078  0.00  0.00    -0.204 F 
ATOM     18  C   UNL     1      34.594 -20.071 -20.247  0.00  0.00    +0.027 C 
ATOM     19  C   UNL     1      34.937 -21.042 -19.314  0.00  0.00    +0.138 C 
ATOM     20  C   UNL     1      33.261 -19.759 -20.490  0.00  0.00    -0.000 C 
ATOM     21  C   UNL     1      33.934 -21.713 -18.615  0.00  0.00    +0.029 C 
ATOM     22  C   UNL     1      32.258 -20.429 -19.790  0.00  0.00    -0.000 C 
ATOM     23  C   UNL     1      32.594 -21.407 -18.853  0.00  0.00    +0.002 C 
ENDBRANCH  16  18
ENDBRANCH   4  16
TORSDOF 2
ENDMDL
MODEL 5
REMARK VINA RESULT:     -10.5      3.728      8.014
REMARK  Name = 654376
REMARK  2 active torsions:
REMARK  status: ('A' for Active; 'I' for Inactive)
REMARK    1  A    between atoms: N_4  and  C_16
REMARK    2  A    between atoms: C_16  and  C_18
REMARK                            x       y       z     vdW  Elec       q    Type
REMARK                         _______ _______ _______ _____ _____    ______ ____
ROOT
ATOM      1  S   UNL     1      31.419 -22.339 -17.183  0.00  0.00    -0.090 S 
ATOM      2  O   UNL     1      36.424 -20.021 -20.249  0.00  0.00    -0.267 OA
ATOM      3  N   UNL     1      35.030 -21.475 -18.065  0.00  0.00    -0.321 N 
ATOM      4  N   UNL     1      34.333 -19.629 -21.198  0.00  0.00    -0.171 N 
ATOM      5  N   UNL     1      32.946 -19.769 -21.175  0.00  0.00    -0.173 NA
ATOM      6  C   UNL     1      34.515 -20.852 -19.166  0.00  0.00    +0.118 A 
ATOM      7  C   UNL     1      33.974 -22.006 -17.352  0.00  0.00    +0.066 A 
ATOM      8  C   UNL     1      33.155 -20.978 -19.161  0.00  0.00    +0.048 A 
ATOM      9  C   UNL     1      32.806 -21.712 -18.007  0.00  0.00    +0.048 A 
ATOM     10  C   UNL     1      35.202 -20.150 -20.215  0.00  0.00    +0.284 C 
ATOM     11  C   UNL     1      33.787 -22.750 -16.157  0.00  0.00    +0.020 C 
ATOM     12  C   UNL     1      32.374 -20.413 -20.203  0.00  0.00    +0.120 C 
ATOM     13  C   UNL     1      32.444 -22.989 -15.961  0.00  0.00    +0.009 C 
ATOM     14  C   UNL     1      36.410 -21.594 -17.666  0.00  0.00    +0.131 C 
ATOM     15  C   UNL     1      31.816 -23.729 -14.842  0.00  0.00    +0.038 C 
ENDROOT
BRANCH   4  16
ATOM     16  C   UNL     1      34.840 -18.887 -22.340  0.00  0.00    +0.148 C 
BRANCH  16  18
ATOM     17  F   UNL     1      34.087 -17.331 -24.576  0.00  0.00    -0.204 F 
ATOM     18  C   UNL     1      34.523 -17.423 -22.245  0.00  0.00    +0.027 C 
ATOM     19  C   UNL     1      34.158 -16.718 -23.386  0.00  0.00    +0.138 C 
ATOM     20  C   UNL     1      34.597 -16.786 -21.011  0.00  0.00    -0.000 C 
ATOM     21  C   UNL     1      33.863 -15.358 -23.293  0.00  0.00    +0.029 C 
ATOM     22  C   UNL     1      34.301 -15.426 -20.918  0.00  0.00    -0.000 C 
ATOM     23  C   UNL     1      33.934 -14.712 -22.059  0.00  0.00    +0.002 C 
ENDBRANCH  16  18
ENDBRANCH   4  16
TORSDOF 2
ENDMDL
MODEL 6
REMARK VINA RESULT:     -10.5      3.387      7.734
REMARK  Name = 654376
REMARK  2 active torsions:
REMARK  status: ('A' for Active; 'I' for Inactive)
REMARK    1  A    between atoms: N_4  and  C_16
REMARK    2  A    between atoms: C_16  and  C_18
REMARK                            x       y       z     vdW  Elec       q    Type
REMARK                         _______ _______ _______ _____ _____    ______ ____
ROOT
ATOM      1  S   UNL     1      36.694 -21.464 -17.053  0.00  0.00    -0.090 S 
ATOM      2  O   UNL     1      32.990 -19.445 -21.746  0.00  0.00    -0.267 OA
ATOM      3  N   UNL     1      33.650 -21.010 -19.307  0.00  0.00    -0.321 N 
ATOM      4  N   UNL     1      35.163 -18.608 -21.684  0.00  0.00    -0.171 N 
ATOM      5  N   UNL     1      36.421 -18.544 -21.086  0.00  0.00    -0.173 NA
ATOM      6  C   UNL     1      34.428 -20.150 -20.029  0.00  0.00    +0.118 A 
ATOM      7  C   UNL     1      34.412 -21.486 -18.260  0.00  0.00    +0.066 A 
ATOM      8  C   UNL     1      35.666 -20.074 -19.459  0.00  0.00    +0.048 A 
ATOM      9  C   UNL     1      35.660 -20.924 -18.331  0.00  0.00    +0.048 A 
ATOM     10  C   UNL     1      34.095 -19.399 -21.209  0.00  0.00    +0.284 C 
ATOM     11  C   UNL     1      34.248 -22.375 -17.166  0.00  0.00    +0.020 C 
ATOM     12  C   UNL     1      36.670 -19.243 -20.020  0.00  0.00    +0.120 C 
ATOM     13  C   UNL     1      35.418 -22.445 -16.440  0.00  0.00    +0.009 C 
ATOM     14  C   UNL     1      32.279 -21.391 -19.543  0.00  0.00    +0.131 C 
ATOM     15  C   UNL     1      35.676 -23.252 -15.225  0.00  0.00    +0.038 C 
ENDROOT
BRANCH   4  16
ATOM     16  C   UNL     1      35.021 -17.776 -22.868  0.00  0.00    +0.148 C 
BRANCH  16  18
ATOM     17  F   UNL     1      34.478 -15.814 -24.828  0.00  0.00    -0.204 F 
ATOM     18  C   UNL     1      34.560 -16.388 -22.527  0.00  0.00    +0.027 C 
ATOM     19  C   UNL     1      34.311 -15.473 -23.543  0.00  0.00    +0.138 C 
ATOM     20  C   UNL     1      34.385 -16.034 -21.193  0.00  0.00    -0.000 C 
ATOM     21  C   UNL     1      33.881 -14.186 -23.223  0.00  0.00    +0.029 C 
ATOM     22  C   UNL     1      33.954 -14.747 -20.874  0.00  0.00    -0.000 C 
ATOM     23  C   UNL     1      33.703 -13.822 -21.888  0.00  0.00    +0.002 C 
ENDBRANCH  16  18
ENDBRANCH   4  16
TORSDOF 2
ENDMDL
MODEL 7
REMARK VINA RESULT:     -10.3      6.050     10.115
REMARK  Name = 654376
REMARK  2 active torsions:
REMARK  status: ('A' for Active; 'I' for Inactive)
REMARK    1  A    between atoms: N_4  and  C_16
REMARK    2  A    between atoms: C_16  and  C_18
REMARK                            x       y       z     vdW  Elec       q    Type
REMARK                         _______ _______ _______ _____ _____    ______ ____
ROOT
ATOM      1  S   UNL     1      36.680 -22.753 -13.058  0.00  0.00    -0.090 S 
ATOM      2  O   UNL     1      32.133 -22.807 -17.433  0.00  0.00    -0.267 OA
ATOM      3  N   UNL     1      33.275 -23.204 -14.718  0.00  0.00    -0.321 N 
ATOM      4  N   UNL     1      34.244 -22.096 -18.116  0.00  0.00    -0.171 N 
ATOM      5  N   UNL     1      35.581 -21.825 -17.833  0.00  0.00    -0.173 NA
ATOM      6  C   UNL     1      33.876 -22.760 -15.861  0.00  0.00    +0.118 A 
ATOM      7  C   UNL     1      34.227 -23.212 -13.720  0.00  0.00    +0.066 A 
ATOM      8  C   UNL     1      35.189 -22.489 -15.604  0.00  0.00    +0.048 A 
ATOM      9  C   UNL     1      35.417 -22.776 -14.241  0.00  0.00    +0.048 A 
ATOM     10  C   UNL     1      33.311 -22.573 -17.170  0.00  0.00    +0.284 C 
ATOM     11  C   UNL     1      34.295 -23.544 -12.341  0.00  0.00    +0.020 C 
ATOM     12  C   UNL     1      36.043 -22.010 -16.633  0.00  0.00    +0.120 C 
ATOM     13  C   UNL     1      35.575 -23.336 -11.873  0.00  0.00    +0.009 C 
ATOM     14  C   UNL     1      31.903 -23.603 -14.524  0.00  0.00    +0.131 C 
ATOM     15  C   UNL     1      36.075 -23.556 -10.496  0.00  0.00    +0.038 C 
ENDROOT
BRANCH   4  16
ATOM     16  C   UNL     1      33.862 -21.844 -19.495  0.00  0.00    +0.148 C 
BRANCH  16  18
ATOM     17  F   UNL     1      32.345 -19.840 -20.788  0.00  0.00    -0.204 F 
ATOM     18  C   UNL     1      34.468 -20.576 -20.024  0.00  0.00    +0.027 C 
ATOM     19  C   UNL     1      33.662 -19.632 -20.649  0.00  0.00    +0.138 C 
ATOM     20  C   UNL     1      35.834 -20.359 -19.879  0.00  0.00    -0.000 C 
ATOM     21  C   UNL     1      34.228 -18.455 -21.137  0.00  0.00    +0.029 C 
ATOM     22  C   UNL     1      36.400 -19.181 -20.366  0.00  0.00    -0.000 C 
ATOM     23  C   UNL     1      35.597 -18.229 -20.996  0.00  0.00    +0.002 C 
ENDBRANCH  16  18
ENDBRANCH   4  16
TORSDOF 2
ENDMDL
MODEL 8
REMARK VINA RESULT:     -10.2      4.508      8.508
REMARK  Name = 654376
REMARK  2 active torsions:
REMARK  status: ('A' for Active; 'I' for Inactive)
REMARK    1  A    between atoms: N_4  and  C_16
REMARK    2  A    between atoms: C_16  and  C_18
REMARK                            x       y       z     vdW  Elec       q    Type
REMARK                         _______ _______ _______ _____ _____    ______ ____
ROOT
ATOM      1  S   UNL     1      30.335 -22.371 -16.790  0.00  0.00    -0.090 S 
ATOM      2  O   UNL     1      36.320 -21.370 -18.521  0.00  0.00    -0.267 OA
ATOM      3  N   UNL     1      34.150 -22.356 -16.746  0.00  0.00    -0.321 N 
ATOM      4  N   UNL     1      34.662 -20.598 -19.965  0.00  0.00    -0.171 N 
ATOM      5  N   UNL     1      33.316 -20.437 -20.288  0.00  0.00    -0.173 NA
ATOM      6  C   UNL     1      34.069 -21.705 -17.945  0.00  0.00    +0.118 A 
ATOM      7  C   UNL     1      32.862 -22.604 -16.317  0.00  0.00    +0.066 A 
ATOM      8  C   UNL     1      32.756 -21.537 -18.279  0.00  0.00    +0.048 A 
ATOM      9  C   UNL     1      31.983 -22.108 -17.244  0.00  0.00    +0.048 A 
ATOM     10  C   UNL     1      35.129 -21.232 -18.793  0.00  0.00    +0.284 C 
ATOM     11  C   UNL     1      32.231 -23.216 -15.202  0.00  0.00    +0.020 C 
ATOM     12  C   UNL     1      32.396 -20.883 -19.486  0.00  0.00    +0.120 C 
ATOM     13  C   UNL     1      30.861 -23.151 -15.347  0.00  0.00    +0.009 C 
ATOM     14  C   UNL     1      35.331 -22.743 -16.015  0.00  0.00    +0.131 C 
ATOM     15  C   UNL     1      29.833 -23.669 -14.415  0.00  0.00    +0.038 C 
ENDROOT
BRANCH   4  16
ATOM     16  C   UNL     1      35.582 -20.054 -20.949  0.00  0.00    +0.148 C 
BRANCH  16  18
ATOM     17  F   UNL     1      34.578 -19.813 -23.580  0.00  0.00    -0.204 F 
ATOM     18  C   UNL     1      35.091 -18.754 -21.518  0.00  0.00    +0.027 C 
ATOM     19  C   UNL     1      34.609 -18.708 -22.821  0.00  0.00    +0.138 C 
ATOM     20  C   UNL     1      35.123 -17.607 -20.733  0.00  0.00    -0.000 C 
ATOM     21  C   UNL     1      34.152 -17.500 -23.346  0.00  0.00    +0.029 C 
ATOM     22  C   UNL     1      34.665 -16.399 -21.258  0.00  0.00    -0.000 C 
ATOM     23  C   UNL     1      34.180 -16.344 -22.565  0.00  0.00    +0.002 C 
ENDBRANCH  16  18
ENDBRANCH   4  16
TORSDOF 2
ENDMDL
MODEL 9
REMARK VINA RESULT:     -10.1      4.479      8.636
REMARK  Name = 654376
REMARK  2 active torsions:
REMARK  status: ('A' for Active; 'I' for Inactive)
REMARK    1  A    between atoms: N_4  and  C_16
REMARK    2  A    between atoms: C_16  and  C_18
REMARK                            x       y       z     vdW  Elec       q    Type
REMARK                         _______ _______ _______ _____ _____    ______ ____
ROOT
ATOM      1  S   UNL     1      37.168 -21.932 -15.843  0.00  0.00    -0.090 S 
ATOM      2  O   UNL     1      32.246 -21.386 -19.755  0.00  0.00    -0.267 OA
ATOM      3  N   UNL     1      33.640 -22.221 -17.266  0.00  0.00    -0.321 N 
ATOM      4  N   UNL     1      34.267 -20.471 -20.469  0.00  0.00    -0.171 N 
ATOM      5  N   UNL     1      35.616 -20.199 -20.253  0.00  0.00    -0.173 NA
ATOM      6  C   UNL     1      34.123 -21.550 -18.354  0.00  0.00    +0.118 A 
ATOM      7  C   UNL     1      34.678 -22.370 -16.370  0.00  0.00    +0.066 A 
ATOM      8  C   UNL     1      35.446 -21.274 -18.162  0.00  0.00    +0.048 A 
ATOM      9  C   UNL     1      35.804 -21.794 -16.899  0.00  0.00    +0.048 A 
ATOM     10  C   UNL     1      33.437 -21.154 -19.553  0.00  0.00    +0.284 C 
ATOM     11  C   UNL     1      34.880 -22.944 -15.088  0.00  0.00    +0.020 C 
ATOM     12  C   UNL     1      36.189 -20.580 -19.152  0.00  0.00    +0.120 C 
ATOM     13  C   UNL     1      36.191 -22.770 -14.698  0.00  0.00    +0.009 C 
ATOM     14  C   UNL     1      32.302 -22.709 -17.035  0.00  0.00    +0.131 C 
ATOM     15  C   UNL     1      36.820 -23.215 -13.433  0.00  0.00    +0.038 C 
ENDROOT
BRANCH   4  16
ATOM     16  C   UNL     1      33.754 -19.990 -21.741  0.00  0.00    +0.148 C 
BRANCH  16  18
ATOM     17  F   UNL     1      33.781 -18.794 -24.301  0.00  0.00    -0.204 F 
ATOM     18  C   UNL     1      34.070 -18.538 -21.959  0.00  0.00    +0.027 C 
ATOM     19  C   UNL     1      34.064 -18.015 -23.247  0.00  0.00    +0.138 C 
ATOM     20  C   UNL     1      34.363 -17.729 -20.867  0.00  0.00    -0.000 C 
ATOM     21  C   UNL     1      34.356 -16.666 -23.447  0.00  0.00    +0.029 C 
ATOM     22  C   UNL     1      34.653 -16.380 -21.066  0.00  0.00    -0.000 C 
ATOM     23  C   UNL     1      34.651 -15.848 -22.356  0.00  0.00    +0.002 C 
ENDBRANCH  16  18
ENDBRANCH   4  16
TORSDOF 2
ENDMDL
