MODEL 1
REMARK VINA RESULT:     -12.0      0.000      0.000
REMARK  Name = 23644582
REMARK  5 active torsions:
REMARK  status: ('A' for Active; 'I' for Inactive)
REMARK    1  A    between atoms: C_3  and  N_18
REMARK    2  A    between atoms: C_5  and  C_13
REMARK    3  A    between atoms: C_15  and  C_17
REMARK    4  A    between atoms: N_18  and  C_20
REMARK    5  A    between atoms: C_24  and  O_27
REMARK                            x       y       z     vdW  Elec       q    Type
REMARK                         _______ _______ _______ _____ _____    ______ ____
ROOT
ATOM      1  N   UNL     1      34.320 -21.776 -18.357  0.00  0.00    -0.248 NA
ATOM      2  C   UNL     1      34.571 -22.309 -16.020  0.00  0.00    +0.010 C 
ATOM      3  C   UNL     1      35.939 -22.018 -16.106  0.00  0.00    +0.047 C 
ATOM      4  C   UNL     1      33.788 -22.173 -17.186  0.00  0.00    +0.061 C 
ATOM      5  C   UNL     1      31.842 -22.878 -15.902  0.00  0.00    +0.006 C 
ATOM      6  C   UNL     1      33.981 -22.727 -14.815  0.00  0.00    +0.055 C 
ATOM      7  C   UNL     1      32.429 -22.463 -17.100  0.00  0.00    +0.074 C 
ATOM      8  C   UNL     1      32.620 -23.010 -14.758  0.00  0.00    -0.023 C 
ATOM      9  C   UNL     1      36.491 -21.609 -17.311  0.00  0.00    +0.035 C 
ATOM     10  C   UNL     1      35.645 -21.504 -18.397  0.00  0.00    +0.100 C 
ENDROOT
BRANCH   5  13
ATOM     11  S   UNL     1      28.216 -24.258 -15.299  0.00  0.00    -0.071 S 
ATOM     12  N   UNL     1      29.517 -22.408 -16.549  0.00  0.00    -0.396 NA
ATOM     13  C   UNL     1      30.438 -23.168 -15.854  0.00  0.00    +0.117 C 
ATOM     14  C   UNL     1      29.921 -24.215 -15.120  0.00  0.00    +0.123 C 
ATOM     15  C   UNL     1      28.314 -22.890 -16.329  0.00  0.00    +0.199 C 
BRANCH  15  17
ATOM     16  O   UNL     1      26.785 -21.136 -16.868  0.00  0.00    -0.280 OA
ATOM     17  C   UNL     1      27.137 -22.331 -16.903  0.00  0.00    +0.272 C 
ENDBRANCH  15  17
ENDBRANCH   5  13
BRANCH   3  18
ATOM     18  N   UNL     1      36.795 -22.130 -14.985  0.00  0.00    -0.313 N 
ATOM     19  H   UNL     1      36.882 -21.298 -14.467  0.00  0.00    +0.152 HD
BRANCH  18  20
ATOM     20  C   UNL     1      37.548 -23.199 -14.469  0.00  0.00    +0.047 C 
ATOM     21  C   UNL     1      37.393 -23.606 -13.144  0.00  0.00    -0.008 C 
ATOM     22  C   UNL     1      38.457 -23.855 -15.299  0.00  0.00    +0.051 C 
ATOM     23  C   UNL     1      38.149 -24.669 -12.648  0.00  0.00    +0.000 C 
ATOM     24  C   UNL     1      39.212 -24.918 -14.803  0.00  0.00    +0.135 C 
ATOM     25  C   UNL     1      36.426 -22.922 -12.234  0.00  0.00    +0.032 C 
ATOM     26  C   UNL     1      39.058 -25.325 -13.478  0.00  0.00    +0.036 C 
BRANCH  24  27
ATOM     27  O   UNL     1      40.101 -25.556 -15.612  0.00  0.00    -0.505 OA
ATOM     28  H   UNL     1      39.811 -26.249 -16.172  0.00  0.00    +0.292 HD
ENDBRANCH  24  27
ENDBRANCH  18  20
ENDBRANCH   3  18
TORSDOF 5
ENDMDL
MODEL 2
REMARK VINA RESULT:     -11.9      4.477      8.560
REMARK  Name = 23644582
REMARK  5 active torsions:
REMARK  status: ('A' for Active; 'I' for Inactive)
REMARK    1  A    between atoms: C_3  and  N_18
REMARK    2  A    between atoms: C_5  and  C_13
REMARK    3  A    between atoms: C_15  and  C_17
REMARK    4  A    between atoms: N_18  and  C_20
REMARK    5  A    between atoms: C_24  and  O_27
REMARK                            x       y       z     vdW  Elec       q    Type
REMARK                         _______ _______ _______ _____ _____    ______ ____
ROOT
ATOM      1  N   UNL     1      32.450 -21.850 -18.386  0.00  0.00    -0.248 NA
ATOM      2  C   UNL     1      34.639 -20.933 -18.801  0.00  0.00    +0.010 C 
ATOM      3  C   UNL     1      34.138 -20.259 -19.922  0.00  0.00    +0.047 C 
ATOM      4  C   UNL     1      33.748 -21.730 -18.052  0.00  0.00    +0.061 C 
ATOM      5  C   UNL     1      35.588 -22.297 -16.560  0.00  0.00    +0.006 C 
ATOM      6  C   UNL     1      35.989 -20.830 -18.422  0.00  0.00    +0.055 C 
ATOM      7  C   UNL     1      34.247 -22.399 -16.938  0.00  0.00    +0.074 C 
ATOM      8  C   UNL     1      36.460 -21.511 -17.304  0.00  0.00    -0.023 C 
ATOM      9  C   UNL     1      32.801 -20.381 -20.271  0.00  0.00    +0.035 C 
ATOM     10  C   UNL     1      32.006 -21.182 -19.476  0.00  0.00    +0.100 C 
ENDROOT
BRANCH   5  13
ATOM     11  S   UNL     1      36.980 -23.516 -13.097  0.00  0.00    -0.071 S 
ATOM     12  N   UNL     1      36.133 -24.384 -15.379  0.00  0.00    -0.396 NA
ATOM     13  C   UNL     1      36.064 -23.005 -15.406  0.00  0.00    +0.117 C 
ATOM     14  C   UNL     1      36.481 -22.359 -14.260  0.00  0.00    +0.123 C 
ATOM     15  C   UNL     1      36.600 -24.764 -14.211  0.00  0.00    +0.199 C 
BRANCH  15  17
ATOM     16  O   UNL     1      37.726 -26.871 -14.234  0.00  0.00    -0.280 OA
ATOM     17  C   UNL     1      36.796 -26.130 -13.860  0.00  0.00    +0.272 C 
ENDBRANCH  15  17
ENDBRANCH   5  13
BRANCH   3  18
ATOM     18  N   UNL     1      34.964 -19.441 -20.730  0.00  0.00    -0.313 N 
ATOM     19  H   UNL     1      35.889 -19.769 -20.811  0.00  0.00    +0.152 HD
BRANCH  18  20
ATOM     20  C   UNL     1      34.722 -18.251 -21.436  0.00  0.00    +0.047 C 
ATOM     21  C   UNL     1      34.562 -18.263 -22.821  0.00  0.00    -0.008 C 
ATOM     22  C   UNL     1      34.640 -17.048 -20.734  0.00  0.00    +0.051 C 
ATOM     23  C   UNL     1      34.322 -17.071 -23.506  0.00  0.00    +0.000 C 
ATOM     24  C   UNL     1      34.399 -15.856 -21.419  0.00  0.00    +0.135 C 
ATOM     25  C   UNL     1      34.643 -19.537 -23.597  0.00  0.00    +0.032 C 
ATOM     26  C   UNL     1      34.240 -15.868 -22.805  0.00  0.00    +0.036 C 
BRANCH  24  27
ATOM     27  O   UNL     1      34.322 -14.682 -20.736  0.00  0.00    -0.505 OA
ATOM     28  H   UNL     1      33.508 -14.413 -20.357  0.00  0.00    +0.292 HD
ENDBRANCH  24  27
ENDBRANCH  18  20
ENDBRANCH   3  18
TORSDOF 5
ENDMDL
MODEL 3
REMARK VINA RESULT:     -11.7      4.451      6.189
REMARK  Name = 23644582
REMARK  5 active torsions:
REMARK  status: ('A' for Active; 'I' for Inactive)
REMARK    1  A    between atoms: C_3  and  N_18
REMARK    2  A    between atoms: C_5  and  C_13
REMARK    3  A    between atoms: C_15  and  C_17
REMARK    4  A    between atoms: N_18  and  C_20
REMARK    5  A    between atoms: C_24  and  O_27
REMARK                            x       y       z     vdW  Elec       q    Type
REMARK                         _______ _______ _______ _____ _____    ______ ____
ROOT
ATOM      1  N   UNL     1      31.432 -21.596 -18.044  0.00  0.00    -0.248 NA
ATOM      2  C   UNL     1      33.813 -21.932 -17.887  0.00  0.00    +0.010 C 
ATOM      3  C   UNL     1      33.613 -22.805 -16.809  0.00  0.00    +0.047 C 
ATOM      4  C   UNL     1      32.679 -21.341 -18.482  0.00  0.00    +0.061 C 
ATOM      5  C   UNL     1      34.157 -20.185 -20.034  0.00  0.00    +0.006 C 
ATOM      6  C   UNL     1      35.100 -21.642 -18.371  0.00  0.00    +0.055 C 
ATOM      7  C   UNL     1      32.878 -20.473 -19.553  0.00  0.00    +0.074 C 
ATOM      8  C   UNL     1      35.270 -20.771 -19.442  0.00  0.00    -0.023 C 
ATOM      9  C   UNL     1      32.329 -23.070 -16.355  0.00  0.00    +0.035 C 
ATOM     10  C   UNL     1      31.282 -22.445 -17.002  0.00  0.00    +0.100 C 
ENDROOT
BRANCH   5  13
ATOM     11  S   UNL     1      35.151 -17.387 -22.604  0.00  0.00    -0.071 S 
ATOM     12  N   UNL     1      33.569 -19.406 -22.292  0.00  0.00    -0.396 NA
ATOM     13  C   UNL     1      34.322 -19.284 -21.140  0.00  0.00    +0.117 C 
ATOM     14  C   UNL     1      35.232 -18.249 -21.123  0.00  0.00    +0.123 C 
ATOM     15  C   UNL     1      33.921 -18.460 -23.133  0.00  0.00    +0.199 C 
BRANCH  15  17
ATOM     16  O   UNL     1      33.106 -17.233 -25.013  0.00  0.00    -0.280 OA
ATOM     17  C   UNL     1      33.331 -18.306 -24.419  0.00  0.00    +0.272 C 
ENDBRANCH  15  17
ENDBRANCH   5  13
BRANCH   3  18
ATOM     18  N   UNL     1      34.695 -23.438 -16.154  0.00  0.00    -0.313 N 
ATOM     19  H   UNL     1      35.214 -24.040 -16.735  0.00  0.00    +0.152 HD
BRANCH  18  20
ATOM     20  C   UNL     1      35.172 -23.377 -14.834  0.00  0.00    +0.047 C 
ATOM     21  C   UNL     1      36.371 -22.728 -14.537  0.00  0.00    -0.008 C 
ATOM     22  C   UNL     1      34.432 -23.975 -13.814  0.00  0.00    +0.051 C 
ATOM     23  C   UNL     1      36.829 -22.677 -13.220  0.00  0.00    +0.000 C 
ATOM     24  C   UNL     1      34.890 -23.923 -12.497  0.00  0.00    +0.135 C 
ATOM     25  C   UNL     1      37.183 -22.078 -15.610  0.00  0.00    +0.032 C 
ATOM     26  C   UNL     1      36.088 -23.274 -12.201  0.00  0.00    +0.036 C 
BRANCH  24  27
ATOM     27  O   UNL     1      34.169 -24.508 -11.502  0.00  0.00    -0.505 OA
ATOM     28  H   UNL     1      34.027 -25.434 -11.509  0.00  0.00    +0.292 HD
ENDBRANCH  24  27
ENDBRANCH  18  20
ENDBRANCH   3  18
TORSDOF 5
ENDMDL
MODEL 4
REMARK VINA RESULT:     -11.4      9.181     12.391
REMARK  Name = 23644582
REMARK  5 active torsions:
REMARK  status: ('A' for Active; 'I' for Inactive)
REMARK    1  A    between atoms: C_3  and  N_18
REMARK    2  A    between atoms: C_5  and  C_13
REMARK    3  A    between atoms: C_15  and  C_17
REMARK    4  A    between atoms: N_18  and  C_20
REMARK    5  A    between atoms: C_24  and  O_27
REMARK                            x       y       z     vdW  Elec       q    Type
REMARK                         _______ _______ _______ _____ _____    ______ ____
ROOT
ATOM      1  N   UNL     1      33.568 -16.028 -24.824  0.00  0.00    -0.248 NA
ATOM      2  C   UNL     1      33.881 -14.875 -22.731  0.00  0.00    +0.010 C 
ATOM      3  C   UNL     1      33.595 -13.658 -23.366  0.00  0.00    +0.047 C 
ATOM      4  C   UNL     1      33.856 -16.051 -23.509  0.00  0.00    +0.061 C 
ATOM      5  C   UNL     1      34.443 -17.322 -21.516  0.00  0.00    +0.006 C 
ATOM      6  C   UNL     1      34.185 -14.937 -21.361  0.00  0.00    +0.055 C 
ATOM      7  C   UNL     1      34.140 -17.259 -22.878  0.00  0.00    +0.074 C 
ATOM      8  C   UNL     1      34.465 -16.158 -20.757  0.00  0.00    -0.023 C 
ATOM      9  C   UNL     1      33.298 -13.630 -24.720  0.00  0.00    +0.035 C 
ATOM     10  C   UNL     1      33.297 -14.833 -25.398  0.00  0.00    +0.100 C 
ENDROOT
BRANCH   5  13
ATOM     11  S   UNL     1      35.979 -20.575 -19.942  0.00  0.00    -0.071 S 
ATOM     12  N   UNL     1      33.724 -19.436 -20.487  0.00  0.00    -0.396 NA
ATOM     13  C   UNL     1      34.731 -18.587 -20.903  0.00  0.00    +0.117 C 
ATOM     14  C   UNL     1      36.019 -19.032 -20.691  0.00  0.00    +0.123 C 
ATOM     15  C   UNL     1      34.265 -20.514 -19.965  0.00  0.00    +0.199 C 
BRANCH  15  17
ATOM     16  O   UNL     1      32.256 -21.707 -19.470  0.00  0.00    -0.280 OA
ATOM     17  C   UNL     1      33.496 -21.592 -19.441  0.00  0.00    +0.272 C 
ENDBRANCH  15  17
ENDBRANCH   5  13
BRANCH   3  18
ATOM     18  N   UNL     1      33.600 -12.431 -22.659  0.00  0.00    -0.313 N 
ATOM     19  H   UNL     1      34.472 -12.204 -22.266  0.00  0.00    +0.152 HD
BRANCH  18  20
ATOM     20  C   UNL     1      32.600 -11.477 -22.410  0.00  0.00    +0.047 C 
ATOM     21  C   UNL     1      31.672 -11.666 -21.386  0.00  0.00    -0.008 C 
ATOM     22  C   UNL     1      32.542 -10.329 -23.200  0.00  0.00    +0.051 C 
ATOM     23  C   UNL     1      30.685 -10.708 -21.152  0.00  0.00    +0.000 C 
ATOM     24  C   UNL     1      31.556  -9.370 -22.966  0.00  0.00    +0.135 C 
ATOM     25  C   UNL     1      31.711 -12.886 -20.524  0.00  0.00    +0.032 C 
ATOM     26  C   UNL     1      30.628  -9.560 -21.942  0.00  0.00    +0.036 C 
BRANCH  24  27
ATOM     27  O   UNL     1      31.498  -8.251 -23.738  0.00  0.00    -0.505 OA
ATOM     28  H   UNL     1      30.837  -8.171 -24.398  0.00  0.00    +0.292 HD
ENDBRANCH  24  27
ENDBRANCH  18  20
ENDBRANCH   3  18
TORSDOF 5
ENDMDL
MODEL 5
REMARK VINA RESULT:     -11.3      4.141      7.294
REMARK  Name = 23644582
REMARK  5 active torsions:
REMARK  status: ('A' for Active; 'I' for Inactive)
REMARK    1  A    between atoms: C_3  and  N_18
REMARK    2  A    between atoms: C_5  and  C_13
REMARK    3  A    between atoms: C_15  and  C_17
REMARK    4  A    between atoms: N_18  and  C_20
REMARK    5  A    between atoms: C_24  and  O_27
REMARK                            x       y       z     vdW  Elec       q    Type
REMARK                         _______ _______ _______ _____ _____    ______ ____
ROOT
ATOM      1  N   UNL     1      36.662 -21.446 -17.020  0.00  0.00    -0.248 NA
ATOM      2  C   UNL     1      34.386 -21.986 -17.600  0.00  0.00    +0.010 C 
ATOM      3  C   UNL     1      34.305 -22.821 -16.478  0.00  0.00    +0.047 C 
ATOM      4  C   UNL     1      35.601 -21.309 -17.837  0.00  0.00    +0.061 C 
ATOM      5  C   UNL     1      34.601 -20.313 -19.822  0.00  0.00    +0.006 C 
ATOM      6  C   UNL     1      33.299 -21.819 -18.475  0.00  0.00    +0.055 C 
ATOM      7  C   UNL     1      35.681 -20.480 -18.952  0.00  0.00    +0.074 C 
ATOM      8  C   UNL     1      33.408 -20.984 -19.582  0.00  0.00    -0.023 C 
ATOM      9  C   UNL     1      35.396 -22.965 -15.634  0.00  0.00    +0.035 C 
ATOM     10  C   UNL     1      36.542 -22.261 -15.947  0.00  0.00    +0.100 C 
ENDROOT
BRANCH   5  13
ATOM     11  S   UNL     1      35.563 -17.672 -22.564  0.00  0.00    -0.071 S 
ATOM     12  N   UNL     1      33.828 -19.506 -22.012  0.00  0.00    -0.396 NA
ATOM     13  C   UNL     1      34.724 -19.450 -20.962  0.00  0.00    +0.117 C 
ATOM     14  C   UNL     1      35.733 -18.518 -21.081  0.00  0.00    +0.123 C 
ATOM     15  C   UNL     1      34.173 -18.614 -22.914  0.00  0.00    +0.199 C 
BRANCH  15  17
ATOM     16  O   UNL     1      33.435 -17.382 -24.822  0.00  0.00    -0.280 OA
ATOM     17  C   UNL     1      33.450 -18.414 -24.124  0.00  0.00    +0.272 C 
ENDBRANCH  15  17
ENDBRANCH   5  13
BRANCH   3  18
ATOM     18  N   UNL     1      33.124 -23.539 -16.168  0.00  0.00    -0.313 N 
ATOM     19  H   UNL     1      33.173 -24.496 -16.389  0.00  0.00    +0.152 HD
BRANCH  18  20
ATOM     20  C   UNL     1      31.896 -23.149 -15.609  0.00  0.00    +0.047 C 
ATOM     21  C   UNL     1      31.702 -23.173 -14.228  0.00  0.00    -0.008 C 
ATOM     22  C   UNL     1      30.865 -22.733 -16.451  0.00  0.00    +0.051 C 
ATOM     23  C   UNL     1      30.475 -22.781 -13.689  0.00  0.00    +0.000 C 
ATOM     24  C   UNL     1      29.640 -22.342 -15.913  0.00  0.00    +0.135 C 
ATOM     25  C   UNL     1      32.789 -23.611 -13.302  0.00  0.00    +0.032 C 
ATOM     26  C   UNL     1      29.445 -22.366 -14.532  0.00  0.00    +0.036 C 
BRANCH  24  27
ATOM     27  O   UNL     1      28.633 -21.939 -16.735  0.00  0.00    -0.505 OA
ATOM     28  H   UNL     1      27.878 -22.482 -16.852  0.00  0.00    +0.292 HD
ENDBRANCH  24  27
ENDBRANCH  18  20
ENDBRANCH   3  18
TORSDOF 5
ENDMDL
MODEL 6
REMARK VINA RESULT:     -11.3     12.845     15.916
REMARK  Name = 23644582
REMARK  5 active torsions:
REMARK  status: ('A' for Active; 'I' for Inactive)
REMARK    1  A    between atoms: C_3  and  N_18
REMARK    2  A    between atoms: C_5  and  C_13
REMARK    3  A    between atoms: C_15  and  C_17
REMARK    4  A    between atoms: N_18  and  C_20
REMARK    5  A    between atoms: C_24  and  O_27
REMARK                            x       y       z     vdW  Elec       q    Type
REMARK                         _______ _______ _______ _____ _____    ______ ____
ROOT
ATOM      1  N   UNL     1      31.632 -11.494 -20.150  0.00  0.00    -0.248 NA
ATOM      2  C   UNL     1      32.116 -10.917 -22.439  0.00  0.00    +0.010 C 
ATOM      3  C   UNL     1      31.611  -9.629 -22.214  0.00  0.00    +0.047 C 
ATOM      4  C   UNL     1      32.106 -11.830 -21.364  0.00  0.00    +0.061 C 
ATOM      5  C   UNL     1      33.108 -13.494 -22.834  0.00  0.00    +0.006 C 
ATOM      6  C   UNL     1      32.619 -11.302 -23.693  0.00  0.00    +0.055 C 
ATOM      7  C   UNL     1      32.608 -13.110 -21.588  0.00  0.00    +0.074 C 
ATOM      8  C   UNL     1      33.114 -12.588 -23.888  0.00  0.00    -0.023 C 
ATOM      9  C   UNL     1      31.121  -9.279 -20.964  0.00  0.00    +0.035 C 
ATOM     10  C   UNL     1      31.155 -10.241 -19.974  0.00  0.00    +0.100 C 
ENDROOT
BRANCH   5  13
ATOM     11  S   UNL     1      34.201 -17.054 -24.079  0.00  0.00    -0.071 S 
ATOM     12  N   UNL     1      34.273 -15.499 -22.017  0.00  0.00    -0.396 NA
ATOM     13  C   UNL     1      33.615 -14.822 -23.026  0.00  0.00    +0.117 C 
ATOM     14  C   UNL     1      33.479 -15.504 -24.217  0.00  0.00    +0.123 C 
ATOM     15  C   UNL     1      34.628 -16.684 -22.459  0.00  0.00    +0.199 C 
BRANCH  15  17
ATOM     16  O   UNL     1      35.674 -17.497 -20.472  0.00  0.00    -0.280 OA
ATOM     17  C   UNL     1      35.326 -17.634 -21.661  0.00  0.00    +0.272 C 
ENDBRANCH  15  17
ENDBRANCH   5  13
BRANCH   3  18
ATOM     18  N   UNL     1      31.582  -8.652 -23.238  0.00  0.00    -0.313 N 
ATOM     19  H   UNL     1      31.333  -9.010 -24.120  0.00  0.00    +0.152 HD
BRANCH  18  20
ATOM     20  C   UNL     1      31.841  -7.271 -23.240  0.00  0.00    +0.047 C 
ATOM     21  C   UNL     1      33.146  -6.790 -23.345  0.00  0.00    -0.008 C 
ATOM     22  C   UNL     1      30.774  -6.378 -23.134  0.00  0.00    +0.051 C 
ATOM     23  C   UNL     1      33.385  -5.415 -23.345  0.00  0.00    +0.000 C 
ATOM     24  C   UNL     1      31.013  -5.004 -23.134  0.00  0.00    +0.135 C 
ATOM     25  C   UNL     1      34.306  -7.724 -23.461  0.00  0.00    +0.032 C 
ATOM     26  C   UNL     1      32.318  -4.523 -23.240  0.00  0.00    +0.036 C 
BRANCH  24  27
ATOM     27  O   UNL     1      29.973  -4.133 -23.029  0.00  0.00    -0.505 OA
ATOM     28  H   UNL     1      29.667  -3.674 -23.787  0.00  0.00    +0.292 HD
ENDBRANCH  24  27
ENDBRANCH  18  20
ENDBRANCH   3  18
TORSDOF 5
ENDMDL
MODEL 7
REMARK VINA RESULT:     -11.0      4.344      6.044
REMARK  Name = 23644582
REMARK  5 active torsions:
REMARK  status: ('A' for Active; 'I' for Inactive)
REMARK    1  A    between atoms: C_3  and  N_18
REMARK    2  A    between atoms: C_5  and  C_13
REMARK    3  A    between atoms: C_15  and  C_17
REMARK    4  A    between atoms: N_18  and  C_20
REMARK    5  A    between atoms: C_24  and  O_27
REMARK                            x       y       z     vdW  Elec       q    Type
REMARK                         _______ _______ _______ _____ _____    ______ ____
ROOT
ATOM      1  N   UNL     1      32.167 -21.962 -17.913  0.00  0.00    -0.248 NA
ATOM      2  C   UNL     1      34.571 -21.804 -17.841  0.00  0.00    +0.010 C 
ATOM      3  C   UNL     1      34.589 -22.678 -16.746  0.00  0.00    +0.047 C 
ATOM      4  C   UNL     1      33.320 -21.468 -18.401  0.00  0.00    +0.061 C 
ATOM      5  C   UNL     1      34.479 -20.067 -20.022  0.00  0.00    +0.006 C 
ATOM      6  C   UNL     1      35.755 -21.269 -18.377  0.00  0.00    +0.055 C 
ATOM      7  C   UNL     1      33.302 -20.599 -19.489  0.00  0.00    +0.074 C 
ATOM      8  C   UNL     1      35.707 -20.403 -19.465  0.00  0.00    -0.023 C 
ATOM      9  C   UNL     1      33.403 -23.189 -16.240  0.00  0.00    +0.035 C 
ATOM     10  C   UNL     1      32.229 -22.803 -16.855  0.00  0.00    +0.100 C 
ENDROOT
BRANCH   5  13
ATOM     11  S   UNL     1      34.178 -18.275 -23.503  0.00  0.00    -0.071 S 
ATOM     12  N   UNL     1      34.601 -17.812 -20.996  0.00  0.00    -0.396 NA
ATOM     13  C   UNL     1      34.419 -19.174 -21.144  0.00  0.00    +0.117 C 
ATOM     14  C   UNL     1      34.178 -19.612 -22.429  0.00  0.00    +0.123 C 
ATOM     15  C   UNL     1      34.495 -17.238 -22.173  0.00  0.00    +0.199 C 
BRANCH  15  17
ATOM     16  O   UNL     1      34.268 -14.934 -21.588  0.00  0.00    -0.280 OA
ATOM     17  C   UNL     1      34.634 -15.835 -22.368  0.00  0.00    +0.272 C 
ENDBRANCH  15  17
ENDBRANCH   5  13
BRANCH   3  18
ATOM     18  N   UNL     1      35.800 -23.066 -16.124  0.00  0.00    -0.313 N 
ATOM     19  H   UNL     1      36.564 -23.118 -16.742  0.00  0.00    +0.152 HD
BRANCH  18  20
ATOM     20  C   UNL     1      36.122 -23.392 -14.796  0.00  0.00    +0.047 C 
ATOM     21  C   UNL     1      36.076 -24.715 -14.355  0.00  0.00    -0.008 C 
ATOM     22  C   UNL     1      36.492 -22.375 -13.915  0.00  0.00    +0.051 C 
ATOM     23  C   UNL     1      36.400 -25.021 -13.032  0.00  0.00    +0.000 C 
ATOM     24  C   UNL     1      36.815 -22.681 -12.593  0.00  0.00    +0.135 C 
ATOM     25  C   UNL     1      35.686 -25.823 -15.277  0.00  0.00    +0.032 C 
ATOM     26  C   UNL     1      36.769 -24.004 -12.152  0.00  0.00    +0.036 C 
BRANCH  24  27
ATOM     27  O   UNL     1      37.173 -21.689 -11.733  0.00  0.00    -0.505 OA
ATOM     28  H   UNL     1      36.674 -21.542 -10.954  0.00  0.00    +0.292 HD
ENDBRANCH  24  27
ENDBRANCH  18  20
ENDBRANCH   3  18
TORSDOF 5
ENDMDL
MODEL 8
REMARK VINA RESULT:     -11.0      1.502      1.997
REMARK  Name = 23644582
REMARK  5 active torsions:
REMARK  status: ('A' for Active; 'I' for Inactive)
REMARK    1  A    between atoms: C_3  and  N_18
REMARK    2  A    between atoms: C_5  and  C_13
REMARK    3  A    between atoms: C_15  and  C_17
REMARK    4  A    between atoms: N_18  and  C_20
REMARK    5  A    between atoms: C_24  and  O_27
REMARK                            x       y       z     vdW  Elec       q    Type
REMARK                         _______ _______ _______ _____ _____    ______ ____
ROOT
ATOM      1  N   UNL     1      34.483 -21.868 -18.017  0.00  0.00    -0.248 NA
ATOM      2  C   UNL     1      34.609 -22.445 -15.681  0.00  0.00    +0.010 C 
ATOM      3  C   UNL     1      35.984 -22.180 -15.696  0.00  0.00    +0.047 C 
ATOM      4  C   UNL     1      33.887 -22.275 -16.881  0.00  0.00    +0.061 C 
ATOM      5  C   UNL     1      31.867 -22.961 -15.706  0.00  0.00    +0.006 C 
ATOM      6  C   UNL     1      33.953 -22.871 -14.513  0.00  0.00    +0.055 C 
ATOM      7  C   UNL     1      32.520 -22.538 -16.866  0.00  0.00    +0.074 C 
ATOM      8  C   UNL     1      32.585 -23.127 -14.528  0.00  0.00    -0.023 C 
ATOM      9  C   UNL     1      36.602 -21.762 -16.865  0.00  0.00    +0.035 C 
ATOM     10  C   UNL     1      35.813 -21.622 -17.989  0.00  0.00    +0.100 C 
ENDROOT
BRANCH   5  13
ATOM     11  S   UNL     1      28.194 -24.300 -15.333  0.00  0.00    -0.071 S 
ATOM     12  N   UNL     1      29.579 -22.402 -16.411  0.00  0.00    -0.396 NA
ATOM     13  C   UNL     1      30.457 -23.224 -15.731  0.00  0.00    +0.117 C 
ATOM     14  C   UNL     1      29.892 -24.304 -15.086  0.00  0.00    +0.123 C 
ATOM     15  C   UNL     1      28.359 -22.872 -16.270  0.00  0.00    +0.199 C 
BRANCH  15  17
ATOM     16  O   UNL     1      26.641 -22.592 -17.904  0.00  0.00    -0.280 OA
ATOM     17  C   UNL     1      27.217 -22.253 -16.852  0.00  0.00    +0.272 C 
ENDBRANCH  15  17
ENDBRANCH   5  13
BRANCH   3  18
ATOM     18  N   UNL     1      36.783 -22.327 -14.536  0.00  0.00    -0.313 N 
ATOM     19  H   UNL     1      37.255 -21.505 -14.272  0.00  0.00    +0.152 HD
BRANCH  18  20
ATOM     20  C   UNL     1      37.034 -23.420 -13.690  0.00  0.00    +0.047 C 
ATOM     21  C   UNL     1      38.087 -24.297 -13.951  0.00  0.00    -0.008 C 
ATOM     22  C   UNL     1      36.216 -23.623 -12.579  0.00  0.00    +0.051 C 
ATOM     23  C   UNL     1      38.323 -25.378 -13.099  0.00  0.00    +0.000 C 
ATOM     24  C   UNL     1      36.451 -24.703 -11.728  0.00  0.00    +0.135 C 
ATOM     25  C   UNL     1      38.980 -24.103 -15.133  0.00  0.00    +0.032 C 
ATOM     26  C   UNL     1      37.504 -25.580 -11.988  0.00  0.00    +0.036 C 
BRANCH  24  27
ATOM     27  O   UNL     1      35.652 -24.903 -10.645  0.00  0.00    -0.505 OA
ATOM     28  H   UNL     1      35.364 -25.767 -10.428  0.00  0.00    +0.292 HD
ENDBRANCH  24  27
ENDBRANCH  18  20
ENDBRANCH   3  18
TORSDOF 5
ENDMDL
MODEL 9
REMARK VINA RESULT:     -10.8      9.661     11.829
REMARK  Name = 23644582
REMARK  5 active torsions:
REMARK  status: ('A' for Active; 'I' for Inactive)
REMARK    1  A    between atoms: C_3  and  N_18
REMARK    2  A    between atoms: C_5  and  C_13
REMARK    3  A    between atoms: C_15  and  C_17
REMARK    4  A    between atoms: N_18  and  C_20
REMARK    5  A    between atoms: C_24  and  O_27
REMARK                            x       y       z     vdW  Elec       q    Type
REMARK                         _______ _______ _______ _____ _____    ______ ____
ROOT
ATOM      1  N   UNL     1      33.244 -14.970 -24.942  0.00  0.00    -0.248 NA
ATOM      2  C   UNL     1      33.744 -14.861 -22.587  0.00  0.00    +0.010 C 
ATOM      3  C   UNL     1      34.240 -16.170 -22.638  0.00  0.00    +0.047 C 
ATOM      4  C   UNL     1      33.248 -14.292 -23.779  0.00  0.00    +0.061 C 
ATOM      5  C   UNL     1      32.743 -12.257 -22.539  0.00  0.00    +0.006 C 
ATOM      6  C   UNL     1      33.733 -14.123 -21.391  0.00  0.00    +0.055 C 
ATOM      7  C   UNL     1      32.755 -12.991 -23.728  0.00  0.00    +0.074 C 
ATOM      8  C   UNL     1      33.233 -12.824 -21.369  0.00  0.00    -0.023 C 
ATOM      9  C   UNL     1      34.237 -16.872 -23.834  0.00  0.00    +0.035 C 
ATOM     10  C   UNL     1      33.733 -16.231 -24.948  0.00  0.00    +0.100 C 
ENDROOT
BRANCH   5  13
ATOM     11  S   UNL     1      30.744  -8.908 -22.086  0.00  0.00    -0.071 S 
ATOM     12  N   UNL     1      32.885  -9.881 -23.158  0.00  0.00    -0.396 NA
ATOM     13  C   UNL     1      32.226 -10.919 -22.527  0.00  0.00    +0.117 C 
ATOM     14  C   UNL     1      31.047 -10.585 -21.893  0.00  0.00    +0.123 C 
ATOM     15  C   UNL     1      32.197  -8.775 -22.990  0.00  0.00    +0.199 C 
BRANCH  15  17
ATOM     16  O   UNL     1      33.699  -6.950 -23.335  0.00  0.00    -0.280 OA
ATOM     17  C   UNL     1      32.605  -7.518 -23.520  0.00  0.00    +0.272 C 
ENDBRANCH  15  17
ENDBRANCH   5  13
BRANCH   3  18
ATOM     18  N   UNL     1      34.754 -16.816 -21.488  0.00  0.00    -0.313 N 
ATOM     19  H   UNL     1      35.251 -16.218 -20.885  0.00  0.00    +0.152 HD
BRANCH  18  20
ATOM     20  C   UNL     1      34.695 -18.147 -21.041  0.00  0.00    +0.047 C 
ATOM     21  C   UNL     1      35.848 -18.928 -20.971  0.00  0.00    -0.008 C 
ATOM     22  C   UNL     1      33.464 -18.684 -20.664  0.00  0.00    +0.051 C 
ATOM     23  C   UNL     1      35.770 -20.249 -20.525  0.00  0.00    +0.000 C 
ATOM     24  C   UNL     1      33.386 -20.003 -20.218  0.00  0.00    +0.135 C 
ATOM     25  C   UNL     1      37.179 -18.378 -21.367  0.00  0.00    +0.032 C 
ATOM     26  C   UNL     1      34.539 -20.785 -20.148  0.00  0.00    +0.036 C 
BRANCH  24  27
ATOM     27  O   UNL     1      32.185 -20.529 -19.853  0.00  0.00    -0.505 OA
ATOM     28  H   UNL     1      31.621 -20.903 -20.500  0.00  0.00    +0.292 HD
ENDBRANCH  24  27
ENDBRANCH  18  20
ENDBRANCH   3  18
TORSDOF 5
ENDMDL
