MODEL 1
REMARK VINA RESULT:     -14.8      0.000      0.000
REMARK  Name = 16750097
REMARK  3 active torsions:
REMARK  status: ('A' for Active; 'I' for Inactive)
REMARK    1  A    between atoms: N_3  and  C_10
REMARK    2  A    between atoms: N_3  and  C_23
REMARK    3  A    between atoms: C_23  and  C_24
REMARK                            x       y       z     vdW  Elec       q    Type
REMARK                         _______ _______ _______ _____ _____    ______ ____
ROOT
ATOM      1  O   UNL     1      33.067 -14.566 -26.048  0.00  0.00    -0.209 OA
ATOM      2  N   UNL     1      34.753 -18.320 -22.782  0.00  0.00    -0.305 N 
ATOM      3  N   UNL     1      34.974 -17.411 -20.766  0.00  0.00    -0.305 N 
ATOM      4  N   UNL     1      33.484 -12.981 -22.394  0.00  0.00    -0.275 N 
ATOM      5  N   UNL     1      32.907 -12.730 -24.689  0.00  0.00    -0.302 NA
ATOM      6  N   UNL     1      32.791 -10.941 -23.180  0.00  0.00    -0.320 N 
ATOM      7  C   UNL     1      34.387 -17.007 -22.930  0.00  0.00    +0.061 C 
ATOM      8  C   UNL     1      34.532 -16.461 -21.658  0.00  0.00    +0.061 C 
ATOM      9  C   UNL     1      35.096 -18.513 -21.472  0.00  0.00    +0.208 C 
ATOM     10  C   UNL     1      33.794 -14.336 -22.545  0.00  0.00    +0.064 C 
ATOM     11  C   UNL     1      33.659 -14.922 -23.813  0.00  0.00    +0.110 C 
ATOM     12  C   UNL     1      33.953 -16.275 -24.037  0.00  0.00    +0.030 C 
ATOM     13  C   UNL     1      34.233 -15.104 -21.454  0.00  0.00    +0.031 C 
ATOM     14  C   UNL     1      33.190 -14.061 -24.936  0.00  0.00    +0.208 C 
ATOM     15  C   UNL     1      33.056 -12.254 -23.480  0.00  0.00    +0.248 C 
ATOM     16  H   UNL     1      34.767 -19.002 -23.491  0.00  0.00    +0.150 HD
ATOM     17  H   UNL     1      35.159 -17.292 -19.807  0.00  0.00    +0.150 HD
ATOM     18  H   UNL     1      33.571 -12.550 -21.514  0.00  0.00    +0.156 HD
ATOM     19  H   UNL     1      32.914 -10.612 -22.261  0.00  0.00    +0.146 HD
ATOM     20  H   UNL     1      32.479 -10.328 -23.885  0.00  0.00    +0.146 HD
ENDROOT
BRANCH   9  21
ATOM     21  N   UNL     1      35.496 -19.745 -21.090  0.00  0.00    -0.263 NA
ATOM     22  H   UNL     1      35.432 -20.473 -21.749  0.00  0.00    +0.127 HD
BRANCH  21  23
ATOM     23  C   UNL     1      36.013 -20.071 -19.772  0.00  0.00    +0.098 C 
BRANCH  23  24
ATOM     24  C   UNL     1      35.014 -20.886 -18.999  0.00  0.00    -0.006 C 
ATOM     25  C   UNL     1      35.330 -21.479 -17.767  0.00  0.00    -0.003 C 
ATOM     26  C   UNL     1      34.344 -22.235 -17.089  0.00  0.00    -0.000 C 
ATOM     27  C   UNL     1      33.743 -21.036 -19.556  0.00  0.00    -0.003 C 
ATOM     28  C   UNL     1      36.604 -21.339 -17.192  0.00  0.00    -0.000 C 
ATOM     29  C   UNL     1      33.070 -22.375 -17.664  0.00  0.00    -0.000 C 
ATOM     30  C   UNL     1      32.773 -21.778 -18.890  0.00  0.00    -0.000 C 
ATOM     31  C   UNL     1      34.660 -22.828 -15.856  0.00  0.00    -0.000 C 
ATOM     32  C   UNL     1      36.901 -21.936 -15.966  0.00  0.00    -0.000 C 
ATOM     33  C   UNL     1      35.931 -22.678 -15.299  0.00  0.00    -0.000 C 
ENDBRANCH  23  24
ENDBRANCH  21  23
ENDBRANCH   9  21
TORSDOF 3
ENDMDL
MODEL 2
REMARK VINA RESULT:     -14.3      1.302      2.682
REMARK  Name = 16750097
REMARK  3 active torsions:
REMARK  status: ('A' for Active; 'I' for Inactive)
REMARK    1  A    between atoms: N_3  and  C_10
REMARK    2  A    between atoms: N_3  and  C_23
REMARK    3  A    between atoms: C_23  and  C_24
REMARK                            x       y       z     vdW  Elec       q    Type
REMARK                         _______ _______ _______ _____ _____    ______ ____
ROOT
ATOM      1  O   UNL     1      33.535 -12.526 -21.764  0.00  0.00    -0.209 OA
ATOM      2  N   UNL     1      34.970 -17.443 -20.591  0.00  0.00    -0.305 N 
ATOM      3  N   UNL     1      34.803 -18.655 -22.445  0.00  0.00    -0.305 N 
ATOM      4  N   UNL     1      33.253 -14.760 -25.076  0.00  0.00    -0.275 N 
ATOM      5  N   UNL     1      33.022 -12.654 -23.992  0.00  0.00    -0.302 NA
ATOM      6  N   UNL     1      32.535 -12.935 -26.266  0.00  0.00    -0.320 N 
ATOM      7  C   UNL     1      34.532 -16.574 -21.558  0.00  0.00    +0.061 C 
ATOM      8  C   UNL     1      34.436 -17.354 -22.706  0.00  0.00    +0.061 C 
ATOM      9  C   UNL     1      35.117 -18.673 -21.169  0.00  0.00    +0.208 C 
ATOM     10  C   UNL     1      33.685 -15.395 -23.908  0.00  0.00    +0.064 C 
ATOM     11  C   UNL     1      33.795 -14.641 -22.730  0.00  0.00    +0.110 C 
ATOM     12  C   UNL     1      34.222 -15.213 -21.522  0.00  0.00    +0.030 C 
ATOM     13  C   UNL     1      34.007 -16.763 -23.906  0.00  0.00    +0.031 C 
ATOM     14  C   UNL     1      33.441 -13.194 -22.789  0.00  0.00    +0.208 C 
ATOM     15  C   UNL     1      32.945 -13.419 -25.049  0.00  0.00    +0.248 C 
ATOM     16  H   UNL     1      35.147 -17.221 -19.649  0.00  0.00    +0.150 HD
ATOM     17  H   UNL     1      34.826 -19.408 -23.078  0.00  0.00    +0.150 HD
ATOM     18  H   UNL     1      33.169 -15.269 -25.914  0.00  0.00    +0.156 HD
ATOM     19  H   UNL     1      32.487 -13.537 -27.044  0.00  0.00    +0.146 HD
ATOM     20  H   UNL     1      32.288 -11.987 -26.361  0.00  0.00    +0.146 HD
ENDROOT
BRANCH   9  21
ATOM     21  N   UNL     1      35.543 -19.697 -20.399  0.00  0.00    -0.263 NA
ATOM     22  H   UNL     1      36.479 -19.682 -20.094  0.00  0.00    +0.127 HD
BRANCH  21  23
ATOM     23  C   UNL     1      34.716 -20.817 -19.987  0.00  0.00    +0.098 C 
BRANCH  23  24
ATOM     24  C   UNL     1      35.077 -21.256 -18.596  0.00  0.00    -0.006 C 
ATOM     25  C   UNL     1      34.136 -21.836 -17.730  0.00  0.00    -0.003 C 
ATOM     26  C   UNL     1      34.539 -22.228 -16.431  0.00  0.00    -0.000 C 
ATOM     27  C   UNL     1      36.397 -21.066 -18.186  0.00  0.00    -0.003 C 
ATOM     28  C   UNL     1      32.802 -22.034 -18.124  0.00  0.00    -0.000 C 
ATOM     29  C   UNL     1      35.872 -22.028 -16.036  0.00  0.00    -0.000 C 
ATOM     30  C   UNL     1      36.795 -21.452 -16.910  0.00  0.00    -0.000 C 
ATOM     31  C   UNL     1      33.598 -22.807 -15.565  0.00  0.00    -0.000 C 
ATOM     32  C   UNL     1      31.880 -22.611 -17.250  0.00  0.00    -0.000 C 
ATOM     33  C   UNL     1      32.277 -22.997 -15.973  0.00  0.00    -0.000 C 
ENDBRANCH  23  24
ENDBRANCH  21  23
ENDBRANCH   9  21
TORSDOF 3
ENDMDL
MODEL 3
REMARK VINA RESULT:     -13.8      3.399      9.411
REMARK  Name = 16750097
REMARK  3 active torsions:
REMARK  status: ('A' for Active; 'I' for Inactive)
REMARK    1  A    between atoms: N_3  and  C_10
REMARK    2  A    between atoms: N_3  and  C_23
REMARK    3  A    between atoms: C_23  and  C_24
REMARK                            x       y       z     vdW  Elec       q    Type
REMARK                         _______ _______ _______ _____ _____    ______ ____
ROOT
ATOM      1  O   UNL     1      32.302 -23.164 -16.758  0.00  0.00    -0.209 OA
ATOM      2  N   UNL     1      33.310 -19.938 -20.781  0.00  0.00    -0.305 N 
ATOM      3  N   UNL     1      35.468 -19.418 -20.704  0.00  0.00    -0.305 N 
ATOM      4  N   UNL     1      36.186 -22.191 -16.668  0.00  0.00    -0.275 N 
ATOM      5  N   UNL     1      34.340 -23.369 -15.735  0.00  0.00    -0.302 NA
ATOM      6  N   UNL     1      36.484 -23.484 -14.797  0.00  0.00    -0.320 N 
ATOM      7  C   UNL     1      33.809 -20.605 -19.691  0.00  0.00    +0.061 C 
ATOM      8  C   UNL     1      35.158 -20.265 -19.665  0.00  0.00    +0.061 C 
ATOM      9  C   UNL     1      34.339 -19.243 -21.353  0.00  0.00    +0.208 C 
ATOM     10  C   UNL     1      35.411 -21.644 -17.695  0.00  0.00    +0.064 C 
ATOM     11  C   UNL     1      34.046 -21.965 -17.755  0.00  0.00    +0.110 C 
ATOM     12  C   UNL     1      33.209 -21.452 -18.757  0.00  0.00    +0.030 C 
ATOM     13  C   UNL     1      35.979 -20.789 -18.653  0.00  0.00    +0.031 C 
ATOM     14  C   UNL     1      33.494 -22.877 -16.713  0.00  0.00    +0.208 C 
ATOM     15  C   UNL     1      35.602 -23.026 -15.743  0.00  0.00    +0.248 C 
ATOM     16  H   UNL     1      32.378 -19.956 -21.096  0.00  0.00    +0.150 HD
ATOM     17  H   UNL     1      36.347 -19.027 -20.915  0.00  0.00    +0.150 HD
ATOM     18  H   UNL     1      37.145 -21.980 -16.607  0.00  0.00    +0.156 HD
ATOM     19  H   UNL     1      37.428 -23.207 -14.830  0.00  0.00    +0.146 HD
ATOM     20  H   UNL     1      36.172 -24.088 -14.085  0.00  0.00    +0.146 HD
ENDROOT
BRANCH   9  21
ATOM     21  N   UNL     1      34.080 -18.503 -22.452  0.00  0.00    -0.263 NA
ATOM     22  H   UNL     1      33.279 -18.729 -22.979  0.00  0.00    +0.127 HD
BRANCH  21  23
ATOM     23  C   UNL     1      34.900 -17.396 -22.912  0.00  0.00    +0.098 C 
BRANCH  23  24
ATOM     24  C   UNL     1      34.366 -16.092 -22.389  0.00  0.00    -0.006 C 
ATOM     25  C   UNL     1      33.821 -15.116 -23.237  0.00  0.00    -0.003 C 
ATOM     26  C   UNL     1      33.335 -13.907 -22.682  0.00  0.00    -0.000 C 
ATOM     27  C   UNL     1      34.434 -15.879 -21.011  0.00  0.00    -0.003 C 
ATOM     28  C   UNL     1      33.745 -15.311 -24.626  0.00  0.00    -0.000 C 
ATOM     29  C   UNL     1      33.412 -13.711 -21.293  0.00  0.00    -0.000 C 
ATOM     30  C   UNL     1      33.957 -14.692 -20.464  0.00  0.00    -0.000 C 
ATOM     31  C   UNL     1      32.790 -12.931 -23.531  0.00  0.00    -0.000 C 
ATOM     32  C   UNL     1      33.200 -14.330 -25.455  0.00  0.00    -0.000 C 
ATOM     33  C   UNL     1      32.722 -13.142 -24.908  0.00  0.00    -0.000 C 
ENDBRANCH  23  24
ENDBRANCH  21  23
ENDBRANCH   9  21
TORSDOF 3
ENDMDL
MODEL 4
REMARK VINA RESULT:     -13.8      3.503      9.257
REMARK  Name = 16750097
REMARK  3 active torsions:
REMARK  status: ('A' for Active; 'I' for Inactive)
REMARK    1  A    between atoms: N_3  and  C_10
REMARK    2  A    between atoms: N_3  and  C_23
REMARK    3  A    between atoms: C_23  and  C_24
REMARK                            x       y       z     vdW  Elec       q    Type
REMARK                         _______ _______ _______ _____ _____    ______ ____
ROOT
ATOM      1  O   UNL     1      35.394 -22.776 -16.455  0.00  0.00    -0.209 OA
ATOM      2  N   UNL     1      35.544 -19.627 -20.658  0.00  0.00    -0.305 N 
ATOM      3  N   UNL     1      33.451 -19.278 -21.315  0.00  0.00    -0.305 N 
ATOM      4  N   UNL     1      31.640 -22.113 -17.684  0.00  0.00    -0.275 N 
ATOM      5  N   UNL     1      33.152 -23.146 -16.164  0.00  0.00    -0.302 NA
ATOM      6  N   UNL     1      30.834 -23.433 -15.991  0.00  0.00    -0.320 N 
ATOM      7  C   UNL     1      34.763 -20.335 -19.782  0.00  0.00    +0.061 C 
ATOM      8  C   UNL     1      33.461 -20.101 -20.212  0.00  0.00    +0.061 C 
ATOM      9  C   UNL     1      34.716 -19.014 -21.556  0.00  0.00    +0.208 C 
ATOM     10  C   UNL     1      32.670 -21.503 -18.407  0.00  0.00    +0.064 C 
ATOM     11  C   UNL     1      33.996 -21.715 -18.003  0.00  0.00    +0.110 C 
ATOM     12  C   UNL     1      35.079 -21.135 -18.681  0.00  0.00    +0.030 C 
ATOM     13  C   UNL     1      32.390 -20.691 -19.519  0.00  0.00    +0.031 C 
ATOM     14  C   UNL     1      34.236 -22.586 -16.816  0.00  0.00    +0.208 C 
ATOM     15  C   UNL     1      31.944 -22.903 -16.599  0.00  0.00    +0.248 C 
ATOM     16  H   UNL     1      36.527 -19.570 -20.645  0.00  0.00    +0.150 HD
ATOM     17  H   UNL     1      32.666 -18.958 -21.816  0.00  0.00    +0.150 HD
ATOM     18  H   UNL     1      30.703 -21.977 -17.950  0.00  0.00    +0.156 HD
ATOM     19  H   UNL     1      29.937 -23.232 -16.343  0.00  0.00    +0.146 HD
ATOM     20  H   UNL     1      30.935 -24.016 -15.204  0.00  0.00    +0.146 HD
ENDROOT
BRANCH   9  21
ATOM     21  N   UNL     1      35.270 -18.254 -22.525  0.00  0.00    -0.263 NA
ATOM     22  H   UNL     1      36.246 -18.305 -22.645  0.00  0.00    +0.127 HD
BRANCH  21  23
ATOM     23  C   UNL     1      34.527 -17.367 -23.403  0.00  0.00    +0.098 C 
BRANCH  23  24
ATOM     24  C   UNL     1      34.200 -16.080 -22.698  0.00  0.00    -0.006 C 
ATOM     25  C   UNL     1      33.721 -14.955 -23.388  0.00  0.00    -0.003 C 
ATOM     26  C   UNL     1      33.431 -13.772 -22.666  0.00  0.00    -0.000 C 
ATOM     27  C   UNL     1      34.391 -16.039 -21.317  0.00  0.00    -0.003 C 
ATOM     28  C   UNL     1      33.523 -14.977 -24.778  0.00  0.00    -0.000 C 
ATOM     29  C   UNL     1      33.630 -13.750 -21.276  0.00  0.00    -0.000 C 
ATOM     30  C   UNL     1      34.106 -14.878 -20.607  0.00  0.00    -0.000 C 
ATOM     31  C   UNL     1      32.952 -12.647 -23.356  0.00  0.00    -0.000 C 
ATOM     32  C   UNL     1      33.047 -13.848 -25.447  0.00  0.00    -0.000 C 
ATOM     33  C   UNL     1      32.761 -12.686 -24.737  0.00  0.00    -0.000 C 
ENDBRANCH  23  24
ENDBRANCH  21  23
ENDBRANCH   9  21
TORSDOF 3
ENDMDL
MODEL 5
REMARK VINA RESULT:     -13.7      3.903      9.690
REMARK  Name = 16750097
REMARK  3 active torsions:
REMARK  status: ('A' for Active; 'I' for Inactive)
REMARK    1  A    between atoms: N_3  and  C_10
REMARK    2  A    between atoms: N_3  and  C_23
REMARK    3  A    between atoms: C_23  and  C_24
REMARK                            x       y       z     vdW  Elec       q    Type
REMARK                         _______ _______ _______ _____ _____    ______ ____
ROOT
ATOM      1  O   UNL     1      37.683 -22.439 -15.204  0.00  0.00    -0.209 OA
ATOM      2  N   UNL     1      35.979 -19.949 -19.505  0.00  0.00    -0.305 N 
ATOM      3  N   UNL     1      33.856 -20.520 -19.819  0.00  0.00    -0.305 N 
ATOM      4  N   UNL     1      33.853 -23.435 -15.819  0.00  0.00    -0.275 N 
ATOM      5  N   UNL     1      35.844 -23.625 -14.529  0.00  0.00    -0.302 NA
ATOM      6  N   UNL     1      33.886 -24.779 -13.961  0.00  0.00    -0.320 N 
ATOM      7  C   UNL     1      35.676 -20.809 -18.481  0.00  0.00    +0.061 C 
ATOM      8  C   UNL     1      34.346 -21.151 -18.699  0.00  0.00    +0.061 C 
ATOM      9  C   UNL     1      34.860 -19.808 -20.278  0.00  0.00    +0.208 C 
ATOM     10  C   UNL     1      34.440 -22.551 -16.729  0.00  0.00    +0.064 C 
ATOM     11  C   UNL     1      35.781 -22.181 -16.542  0.00  0.00    +0.110 C 
ATOM     12  C   UNL     1      36.434 -21.299 -17.416  0.00  0.00    +0.030 C 
ATOM     13  C   UNL     1      33.709 -22.036 -17.812  0.00  0.00    +0.031 C 
ATOM     14  C   UNL     1      36.510 -22.757 -15.376  0.00  0.00    +0.208 C 
ATOM     15  C   UNL     1      34.593 -23.923 -14.767  0.00  0.00    +0.248 C 
ATOM     16  H   UNL     1      36.847 -19.510 -19.658  0.00  0.00    +0.150 HD
ATOM     17  H   UNL     1      32.949 -20.588 -20.196  0.00  0.00    +0.150 HD
ATOM     18  H   UNL     1      32.914 -23.707 -15.931  0.00  0.00    +0.156 HD
ATOM     19  H   UNL     1      32.945 -24.983 -14.166  0.00  0.00    +0.146 HD
ATOM     20  H   UNL     1      34.319 -25.188 -13.177  0.00  0.00    +0.146 HD
ENDROOT
BRANCH   9  21
ATOM     21  N   UNL     1      34.924 -18.999 -21.357  0.00  0.00    -0.263 NA
ATOM     22  H   UNL     1      34.757 -19.400 -22.241  0.00  0.00    +0.127 HD
BRANCH  21  23
ATOM     23  C   UNL     1      35.221 -17.578 -21.305  0.00  0.00    +0.098 C 
BRANCH  23  24
ATOM     24  C   UNL     1      34.561 -16.859 -22.449  0.00  0.00    -0.006 C 
ATOM     25  C   UNL     1      34.081 -15.546 -22.324  0.00  0.00    -0.003 C 
ATOM     26  C   UNL     1      33.468 -14.924 -23.439  0.00  0.00    -0.000 C 
ATOM     27  C   UNL     1      34.439 -17.550 -23.655  0.00  0.00    -0.003 C 
ATOM     28  C   UNL     1      34.194 -14.835 -21.119  0.00  0.00    -0.000 C 
ATOM     29  C   UNL     1      33.354 -15.635 -24.645  0.00  0.00    -0.000 C 
ATOM     30  C   UNL     1      33.838 -16.940 -24.751  0.00  0.00    -0.000 C 
ATOM     31  C   UNL     1      32.988 -13.611 -23.315  0.00  0.00    -0.000 C 
ATOM     32  C   UNL     1      33.710 -13.530 -21.013  0.00  0.00    -0.000 C 
ATOM     33  C   UNL     1      33.109 -12.919 -22.109  0.00  0.00    -0.000 C 
ENDBRANCH  23  24
ENDBRANCH  21  23
ENDBRANCH   9  21
TORSDOF 3
ENDMDL
MODEL 6
REMARK VINA RESULT:     -13.3      3.464      9.197
REMARK  Name = 16750097
REMARK  3 active torsions:
REMARK  status: ('A' for Active; 'I' for Inactive)
REMARK    1  A    between atoms: N_3  and  C_10
REMARK    2  A    between atoms: N_3  and  C_23
REMARK    3  A    between atoms: C_23  and  C_24
REMARK                            x       y       z     vdW  Elec       q    Type
REMARK                         _______ _______ _______ _____ _____    ______ ____
ROOT
ATOM      1  O   UNL     1      30.862 -22.695 -16.975  0.00  0.00    -0.209 OA
ATOM      2  N   UNL     1      33.016 -19.763 -20.767  0.00  0.00    -0.305 N 
ATOM      3  N   UNL     1      35.220 -19.819 -20.493  0.00  0.00    -0.305 N 
ATOM      4  N   UNL     1      34.842 -22.760 -16.531  0.00  0.00    -0.275 N 
ATOM      5  N   UNL     1      32.681 -23.439 -15.800  0.00  0.00    -0.302 NA
ATOM      6  N   UNL     1      34.632 -24.121 -14.697  0.00  0.00    -0.320 N 
ATOM      7  C   UNL     1      33.228 -20.557 -19.669  0.00  0.00    +0.061 C 
ATOM      8  C   UNL     1      34.611 -20.577 -19.519  0.00  0.00    +0.061 C 
ATOM      9  C   UNL     1      34.235 -19.346 -21.224  0.00  0.00    +0.208 C 
ATOM     10  C   UNL     1      34.327 -22.012 -17.593  0.00  0.00    +0.064 C 
ATOM     11  C   UNL     1      32.937 -21.968 -17.778  0.00  0.00    +0.110 C 
ATOM     12  C   UNL     1      32.351 -21.238 -18.822  0.00  0.00    +0.030 C 
ATOM     13  C   UNL     1      35.178 -21.314 -18.466  0.00  0.00    +0.031 C 
ATOM     14  C   UNL     1      32.079 -22.727 -16.822  0.00  0.00    +0.208 C 
ATOM     15  C   UNL     1      33.984 -23.433 -15.692  0.00  0.00    +0.248 C 
ATOM     16  H   UNL     1      32.142 -19.534 -21.157  0.00  0.00    +0.150 HD
ATOM     17  H   UNL     1      36.184 -19.664 -20.616  0.00  0.00    +0.150 HD
ATOM     18  H   UNL     1      35.814 -22.805 -16.383  0.00  0.00    +0.156 HD
ATOM     19  H   UNL     1      35.615 -24.097 -14.641  0.00  0.00    +0.146 HD
ATOM     20  H   UNL     1      34.114 -24.638 -14.038  0.00  0.00    +0.146 HD
ENDROOT
BRANCH   9  21
ATOM     21  N   UNL     1      34.272 -18.543 -22.309  0.00  0.00    -0.263 NA
ATOM     22  H   UNL     1      33.672 -18.759 -23.059  0.00  0.00    +0.127 HD
BRANCH  21  23
ATOM     23  C   UNL     1      35.136 -17.384 -22.447  0.00  0.00    +0.098 C 
BRANCH  23  24
ATOM     24  C   UNL     1      34.394 -16.247 -23.093  0.00  0.00    -0.006 C 
ATOM     25  C   UNL     1      33.901 -15.162 -22.350  0.00  0.00    -0.003 C 
ATOM     26  C   UNL     1      33.210 -14.123 -23.018  0.00  0.00    -0.000 C 
ATOM     27  C   UNL     1      34.207 -16.307 -24.474  0.00  0.00    -0.003 C 
ATOM     28  C   UNL     1      34.079 -15.085 -20.959  0.00  0.00    -0.000 C 
ATOM     29  C   UNL     1      33.031 -14.200 -24.409  0.00  0.00    -0.000 C 
ATOM     30  C   UNL     1      33.528 -15.286 -25.131  0.00  0.00    -0.000 C 
ATOM     31  C   UNL     1      32.718 -13.038 -22.275  0.00  0.00    -0.000 C 
ATOM     32  C   UNL     1      33.583 -13.999 -20.237  0.00  0.00    -0.000 C 
ATOM     33  C   UNL     1      32.904 -12.977 -20.894  0.00  0.00    -0.000 C 
ENDBRANCH  23  24
ENDBRANCH  21  23
ENDBRANCH   9  21
TORSDOF 3
ENDMDL
MODEL 7
REMARK VINA RESULT:     -13.2      4.315     10.494
REMARK  Name = 16750097
REMARK  3 active torsions:
REMARK  status: ('A' for Active; 'I' for Inactive)
REMARK    1  A    between atoms: N_3  and  C_10
REMARK    2  A    between atoms: N_3  and  C_23
REMARK    3  A    between atoms: C_23  and  C_24
REMARK                            x       y       z     vdW  Elec       q    Type
REMARK                         _______ _______ _______ _____ _____    ______ ____
ROOT
ATOM      1  O   UNL     1      35.167 -17.136 -20.571  0.00  0.00    -0.209 OA
ATOM      2  N   UNL     1      33.697 -12.410 -22.335  0.00  0.00    -0.305 N 
ATOM      3  N   UNL     1      32.947 -12.668 -24.410  0.00  0.00    -0.305 N 
ATOM      4  N   UNL     1      33.804 -17.541 -24.315  0.00  0.00    -0.275 N 
ATOM      5  N   UNL     1      34.721 -18.513 -22.345  0.00  0.00    -0.302 NA
ATOM      6  N   UNL     1      34.214 -19.797 -24.238  0.00  0.00    -0.320 N 
ATOM      7  C   UNL     1      33.819 -13.749 -22.605  0.00  0.00    +0.061 C 
ATOM      8  C   UNL     1      33.344 -13.885 -23.906  0.00  0.00    +0.061 C 
ATOM      9  C   UNL     1      33.172 -11.806 -23.444  0.00  0.00    +0.208 C 
ATOM     10  C   UNL     1      33.797 -16.256 -23.765  0.00  0.00    +0.064 C 
ATOM     11  C   UNL     1      34.268 -16.079 -22.455  0.00  0.00    +0.110 C 
ATOM     12  C   UNL     1      34.291 -14.818 -21.841  0.00  0.00    +0.030 C 
ATOM     13  C   UNL     1      33.329 -15.156 -24.503  0.00  0.00    +0.031 C 
ATOM     14  C   UNL     1      34.754 -17.281 -21.717  0.00  0.00    +0.208 C 
ATOM     15  C   UNL     1      34.268 -18.600 -23.568  0.00  0.00    +0.248 C 
ATOM     16  H   UNL     1      33.943 -11.962 -21.494  0.00  0.00    +0.150 HD
ATOM     17  H   UNL     1      32.575 -12.483 -25.303  0.00  0.00    +0.150 HD
ATOM     18  H   UNL     1      33.478 -17.689 -25.231  0.00  0.00    +0.156 HD
ATOM     19  H   UNL     1      33.868 -19.830 -25.159  0.00  0.00    +0.146 HD
ATOM     20  H   UNL     1      34.523 -20.621 -23.798  0.00  0.00    +0.146 HD
ENDROOT
BRANCH   9  21
ATOM     21  N   UNL     1      32.962 -10.473 -23.409  0.00  0.00    -0.263 NA
ATOM     22  H   UNL     1      33.743  -9.883 -23.516  0.00  0.00    +0.127 HD
BRANCH  21  23
ATOM     23  C   UNL     1      31.664  -9.848 -23.224  0.00  0.00    +0.098 C 
BRANCH  23  24
ATOM     24  C   UNL     1      31.535  -9.303 -21.829  0.00  0.00    -0.006 C 
ATOM     25  C   UNL     1      31.728  -7.943 -21.540  0.00  0.00    -0.003 C 
ATOM     26  C   UNL     1      31.592  -7.491 -20.205  0.00  0.00    -0.000 C 
ATOM     27  C   UNL     1      31.212 -10.206 -20.816  0.00  0.00    -0.003 C 
ATOM     28  C   UNL     1      32.054  -7.019 -22.547  0.00  0.00    -0.000 C 
ATOM     29  C   UNL     1      31.267  -8.415 -19.199  0.00  0.00    -0.000 C 
ATOM     30  C   UNL     1      31.077  -9.764 -19.504  0.00  0.00    -0.000 C 
ATOM     31  C   UNL     1      31.786  -6.131 -19.917  0.00  0.00    -0.000 C 
ATOM     32  C   UNL     1      32.244  -5.670 -22.242  0.00  0.00    -0.000 C 
ATOM     33  C   UNL     1      32.109  -5.228 -20.929  0.00  0.00    -0.000 C 
ENDBRANCH  23  24
ENDBRANCH  21  23
ENDBRANCH   9  21
TORSDOF 3
ENDMDL
MODEL 8
REMARK VINA RESULT:     -13.0      4.296      9.967
REMARK  Name = 16750097
REMARK  3 active torsions:
REMARK  status: ('A' for Active; 'I' for Inactive)
REMARK    1  A    between atoms: N_3  and  C_10
REMARK    2  A    between atoms: N_3  and  C_23
REMARK    3  A    between atoms: C_23  and  C_24
REMARK                            x       y       z     vdW  Elec       q    Type
REMARK                         _______ _______ _______ _____ _____    ______ ____
ROOT
ATOM      1  O   UNL     1      33.403 -24.380 -14.613  0.00  0.00    -0.209 OA
ATOM      2  N   UNL     1      34.098 -21.337 -18.839  0.00  0.00    -0.305 N 
ATOM      3  N   UNL     1      36.170 -20.541 -18.764  0.00  0.00    -0.305 N 
ATOM      4  N   UNL     1      37.129 -22.914 -14.528  0.00  0.00    -0.275 N 
ATOM      5  N   UNL     1      35.424 -24.251 -13.544  0.00  0.00    -0.302 NA
ATOM      6  N   UNL     1      37.540 -24.026 -12.564  0.00  0.00    -0.320 N 
ATOM      7  C   UNL     1      34.649 -21.858 -17.696  0.00  0.00    +0.061 C 
ATOM      8  C   UNL     1      35.942 -21.347 -17.672  0.00  0.00    +0.061 C 
ATOM      9  C   UNL     1      35.044 -20.557 -19.442  0.00  0.00    +0.208 C 
ATOM     10  C   UNL     1      36.317 -22.543 -15.604  0.00  0.00    +0.064 C 
ATOM     11  C   UNL     1      35.006 -23.039 -15.664  0.00  0.00    +0.110 C 
ATOM     12  C   UNL     1      34.137 -22.708 -16.714  0.00  0.00    +0.030 C 
ATOM     13  C   UNL     1      36.798 -21.690 -16.612  0.00  0.00    +0.031 C 
ATOM     14  C   UNL     1      34.548 -23.941 -14.568  0.00  0.00    +0.208 C 
ATOM     15  C   UNL     1      36.632 -23.751 -13.555  0.00  0.00    +0.248 C 
ATOM     16  H   UNL     1      33.184 -21.496 -19.168  0.00  0.00    +0.150 HD
ATOM     17  H   UNL     1      36.997 -20.056 -18.988  0.00  0.00    +0.150 HD
ATOM     18  H   UNL     1      38.052 -22.578 -14.466  0.00  0.00    +0.156 HD
ATOM     19  H   UNL     1      38.442 -23.633 -12.601  0.00  0.00    +0.146 HD
ATOM     20  H   UNL     1      37.290 -24.614 -11.816  0.00  0.00    +0.146 HD
ENDROOT
BRANCH   9  21
ATOM     21  N   UNL     1      34.722 -19.934 -20.596  0.00  0.00    -0.263 NA
ATOM     22  H   UNL     1      34.096 -20.391 -21.204  0.00  0.00    +0.127 HD
BRANCH  21  23
ATOM     23  C   UNL     1      35.233 -18.637 -21.003  0.00  0.00    +0.098 C 
BRANCH  23  24
ATOM     24  C   UNL     1      34.603 -18.204 -22.297  0.00  0.00    -0.006 C 
ATOM     25  C   UNL     1      34.275 -16.863 -22.553  0.00  0.00    -0.003 C 
ATOM     26  C   UNL     1      33.682 -16.519 -23.792  0.00  0.00    -0.000 C 
ATOM     27  C   UNL     1      34.350 -19.192 -23.249  0.00  0.00    -0.003 C 
ATOM     28  C   UNL     1      34.521 -15.854 -21.607  0.00  0.00    -0.000 C 
ATOM     29  C   UNL     1      33.435 -17.528 -24.738  0.00  0.00    -0.000 C 
ATOM     30  C   UNL     1      33.768 -18.856 -24.467  0.00  0.00    -0.000 C 
ATOM     31  C   UNL     1      33.354 -15.179 -24.049  0.00  0.00    -0.000 C 
ATOM     32  C   UNL     1      34.188 -14.527 -21.879  0.00  0.00    -0.000 C 
ATOM     33  C   UNL     1      33.606 -14.190 -23.098  0.00  0.00    -0.000 C 
ENDBRANCH  23  24
ENDBRANCH  21  23
ENDBRANCH   9  21
TORSDOF 3
ENDMDL
MODEL 9
REMARK VINA RESULT:     -13.0      4.573     11.641
REMARK  Name = 16750097
REMARK  3 active torsions:
REMARK  status: ('A' for Active; 'I' for Inactive)
REMARK    1  A    between atoms: N_3  and  C_10
REMARK    2  A    between atoms: N_3  and  C_23
REMARK    3  A    between atoms: C_23  and  C_24
REMARK                            x       y       z     vdW  Elec       q    Type
REMARK                         _______ _______ _______ _____ _____    ______ ____
ROOT
ATOM      1  O   UNL     1      34.265 -15.999 -24.789  0.00  0.00    -0.209 OA
ATOM      2  N   UNL     1      31.857 -11.802 -22.742  0.00  0.00    -0.305 N 
ATOM      3  N   UNL     1      32.030 -11.936 -20.532  0.00  0.00    -0.305 N 
ATOM      4  N   UNL     1      34.546 -16.189 -20.798  0.00  0.00    -0.275 N 
ATOM      5  N   UNL     1      35.009 -17.123 -22.937  0.00  0.00    -0.302 NA
ATOM      6  N   UNL     1      35.708 -18.160 -20.956  0.00  0.00    -0.320 N 
ATOM      7  C   UNL     1      32.553 -12.958 -22.499  0.00  0.00    +0.061 C 
ATOM      8  C   UNL     1      32.649 -13.018 -21.112  0.00  0.00    +0.061 C 
ATOM      9  C   UNL     1      31.566 -11.227 -21.536  0.00  0.00    +0.208 C 
ATOM     10  C   UNL     1      33.871 -15.093 -21.342  0.00  0.00    +0.064 C 
ATOM     11  C   UNL     1      33.755 -14.995 -22.737  0.00  0.00    +0.110 C 
ATOM     12  C   UNL     1      33.091 -13.923 -23.352  0.00  0.00    +0.030 C 
ATOM     13  C   UNL     1      33.318 -14.101 -20.516  0.00  0.00    +0.031 C 
ATOM     14  C   UNL     1      34.361 -16.076 -23.567  0.00  0.00    +0.208 C 
ATOM     15  C   UNL     1      35.078 -17.145 -21.632  0.00  0.00    +0.248 C 
ATOM     16  H   UNL     1      31.610 -11.448 -23.627  0.00  0.00    +0.150 HD
ATOM     17  H   UNL     1      31.951 -11.735 -19.571  0.00  0.00    +0.150 HD
ATOM     18  H   UNL     1      34.639 -16.277 -19.822  0.00  0.00    +0.156 HD
ATOM     19  H   UNL     1      35.743 -18.149 -19.972  0.00  0.00    +0.146 HD
ATOM     20  H   UNL     1      36.125 -18.899 -21.455  0.00  0.00    +0.146 HD
ENDROOT
BRANCH   9  21
ATOM     21  N   UNL     1      30.875 -10.066 -21.529  0.00  0.00    -0.263 NA
ATOM     22  H   UNL     1      30.186  -9.947 -20.836  0.00  0.00    +0.127 HD
BRANCH  21  23
ATOM     23  C   UNL     1      31.079  -8.981 -22.472  0.00  0.00    +0.098 C 
BRANCH  23  24
ATOM     24  C   UNL     1      31.316  -7.687 -21.744  0.00  0.00    -0.006 C 
ATOM     25  C   UNL     1      31.157  -6.440 -22.370  0.00  0.00    -0.003 C 
ATOM     26  C   UNL     1      31.396  -5.258 -21.629  0.00  0.00    -0.000 C 
ATOM     27  C   UNL     1      31.706  -7.767 -20.407  0.00  0.00    -0.003 C 
ATOM     28  C   UNL     1      30.766  -6.340 -23.715  0.00  0.00    -0.000 C 
ATOM     29  C   UNL     1      31.788  -5.358 -20.284  0.00  0.00    -0.000 C 
ATOM     30  C   UNL     1      31.940  -6.606 -19.678  0.00  0.00    -0.000 C 
ATOM     31  C   UNL     1      31.237  -4.011 -22.254  0.00  0.00    -0.000 C 
ATOM     32  C   UNL     1      30.614  -5.092 -24.321  0.00  0.00    -0.000 C 
ATOM     33  C   UNL     1      30.848  -3.930 -23.591  0.00  0.00    -0.000 C 
ENDBRANCH  23  24
ENDBRANCH  21  23
ENDBRANCH   9  21
TORSDOF 3
ENDMDL
