MODEL 1
REMARK VINA RESULT:     -11.2      0.000      0.000
REMARK  Name = 16220131
REMARK  12 active torsions:
REMARK  status: ('A' for Active; 'I' for Inactive)
REMARK    1  A    between atoms: C_1  and  C_4
REMARK    2  A    between atoms: C_1  and  N_15
REMARK    3  A    between atoms: C_1  and  C_26
REMARK    4  A    between atoms: N_3  and  C_6
REMARK    5  A    between atoms: C_6  and  C_9
REMARK    6  A    between atoms: C_9  and  C_10
REMARK    7  A    between atoms: C_10  and  C_11
REMARK    8  A    between atoms: C_11  and  O_12
REMARK    9  A    between atoms: C_16  and  O_18
REMARK   10  A    between atoms: O_18  and  C_19
REMARK   11  A    between atoms: C_19  and  C_20
REMARK   12  A    between atoms: C_26  and  C_27
REMARK                            x       y       z     vdW  Elec       q    Type
REMARK                         _______ _______ _______ _____ _____    ______ ____
ROOT
ATOM      1  C   UNL     1      33.037 -23.640 -13.548  0.00  0.00    +0.155 C 
ENDROOT
BRANCH   1   4
ATOM      2  O   UNL     1      34.233 -24.135 -11.498  0.00  0.00    -0.273 OA
ATOM      3  N   UNL     1      35.270 -24.580 -13.528  0.00  0.00    -0.298 N 
ATOM      4  C   UNL     1      34.229 -24.121 -12.727  0.00  0.00    +0.241 C 
ATOM      5  H   UNL     1      35.165 -24.523 -14.506  0.00  0.00    +0.150 HD
BRANCH   3   6
ATOM      6  C   UNL     1      36.490 -25.133 -13.006  0.00  0.00    +0.130 C 
ATOM      7  C   UNL     1      37.184 -24.174 -12.056  0.00  0.00    +0.029 C 
BRANCH   6   9
ATOM      8  O   UNL     1      37.238 -26.478 -14.861  0.00  0.00    -0.294 OA
ATOM      9  C   UNL     1      37.388 -25.455 -14.193  0.00  0.00    +0.171 C 
BRANCH   9  10
ATOM     10  C   UNL     1      38.446 -24.412 -14.530  0.00  0.00    +0.098 C 
BRANCH  10  11
ATOM     11  C   UNL     1      39.859 -24.975 -14.542  0.00  0.00    +0.145 C 
BRANCH  11  12
ATOM     12  O   UNL     1      40.106 -25.667 -15.760  0.00  0.00    -0.382 OA
ATOM     13  H   UNL     1      39.458 -25.389 -16.427  0.00  0.00    +0.210 HD
ENDBRANCH  11  12
ENDBRANCH  10  11
ENDBRANCH   9  10
ENDBRANCH   6   9
ENDBRANCH   3   6
ENDBRANCH   1   4
BRANCH   1  15
ATOM     14  O   UNL     1      34.911 -21.806 -14.797  0.00  0.00    -0.226 OA
ATOM     15  N   UNL     1      33.456 -23.608 -14.927  0.00  0.00    -0.264 N 
ATOM     16  C   UNL     1      34.357 -22.694 -15.436  0.00  0.00    +0.402 C 
ATOM     17  H   UNL     1      33.076 -24.277 -15.542  0.00  0.00    +0.153 HD
BRANCH  16  18
ATOM     18  O   UNL     1      34.546 -22.924 -16.770  0.00  0.00    -0.430 OA
BRANCH  18  19
ATOM     19  C   UNL     1      33.387 -22.779 -17.599  0.00  0.00    +0.237 C 
BRANCH  19  20
ATOM     20  C   UNL     1      33.653 -21.725 -18.633  0.00  0.00    +0.021 C 
ATOM     21  C   UNL     1      34.964 -21.428 -19.005  0.00  0.00    -0.001 C 
ATOM     22  C   UNL     1      32.590 -21.043 -19.224  0.00  0.00    -0.001 C 
ATOM     23  C   UNL     1      35.212 -20.448 -19.966  0.00  0.00    -0.000 C 
ATOM     24  C   UNL     1      32.837 -20.062 -20.185  0.00  0.00    -0.000 C 
ATOM     25  C   UNL     1      34.148 -19.766 -20.556  0.00  0.00    -0.000 C 
ENDBRANCH  19  20
ENDBRANCH  18  19
ENDBRANCH  16  18
ENDBRANCH   1  15
BRANCH   1  26
ATOM     26  C   UNL     1      31.832 -24.562 -13.330  0.00  0.00    +0.055 C 
BRANCH  26  27
ATOM     27  C   UNL     1      30.586 -24.066 -14.021  0.00  0.00    -0.020 C 
ATOM     28  C   UNL     1      29.670 -24.976 -14.547  0.00  0.00    -0.004 C 
ATOM     29  C   UNL     1      30.349 -22.695 -14.135  0.00  0.00    -0.004 C 
ATOM     30  C   UNL     1      28.518 -24.518 -15.186  0.00  0.00    -0.000 C 
ATOM     31  C   UNL     1      29.197 -22.237 -14.773  0.00  0.00    -0.000 C 
ATOM     32  C   UNL     1      28.282 -23.148 -15.299  0.00  0.00    -0.000 C 
ENDBRANCH  26  27
ENDBRANCH   1  26
TORSDOF 12
ENDMDL
MODEL 2
REMARK VINA RESULT:     -11.2      2.843      6.493
REMARK  Name = 16220131
REMARK  12 active torsions:
REMARK  status: ('A' for Active; 'I' for Inactive)
REMARK    1  A    between atoms: C_1  and  C_4
REMARK    2  A    between atoms: C_1  and  N_15
REMARK    3  A    between atoms: C_1  and  C_26
REMARK    4  A    between atoms: N_3  and  C_6
REMARK    5  A    between atoms: C_6  and  C_9
REMARK    6  A    between atoms: C_9  and  C_10
REMARK    7  A    between atoms: C_10  and  C_11
REMARK    8  A    between atoms: C_11  and  O_12
REMARK    9  A    between atoms: C_16  and  O_18
REMARK   10  A    between atoms: O_18  and  C_19
REMARK   11  A    between atoms: C_19  and  C_20
REMARK   12  A    between atoms: C_26  and  C_27
REMARK                            x       y       z     vdW  Elec       q    Type
REMARK                         _______ _______ _______ _____ _____    ______ ____
ROOT
ATOM      1  C   UNL     1      33.295 -22.894 -16.453  0.00  0.00    +0.155 C 
ENDROOT
BRANCH   1   4
ATOM      2  O   UNL     1      31.003 -22.218 -16.866  0.00  0.00    -0.273 OA
ATOM      3  N   UNL     1      31.511 -23.272 -14.858  0.00  0.00    -0.298 N 
ATOM      4  C   UNL     1      31.820 -22.732 -16.103  0.00  0.00    +0.241 C 
ATOM      5  H   UNL     1      32.242 -23.659 -14.324  0.00  0.00    +0.150 HD
BRANCH   3   6
ATOM      6  C   UNL     1      30.182 -23.295 -14.309  0.00  0.00    +0.130 C 
ATOM      7  C   UNL     1      30.196 -23.502 -12.805  0.00  0.00    +0.029 C 
BRANCH   6   9
ATOM      8  O   UNL     1      29.746 -25.601 -14.855  0.00  0.00    -0.294 OA
ATOM      9  C   UNL     1      29.426 -24.422 -14.998  0.00  0.00    +0.171 C 
BRANCH   9  10
ATOM     10  C   UNL     1      28.222 -24.003 -15.832  0.00  0.00    +0.098 C 
BRANCH  10  11
ATOM     11  C   UNL     1      27.793 -22.564 -15.584  0.00  0.00    +0.145 C 
BRANCH  11  12
ATOM     12  O   UNL     1      28.122 -21.749 -16.702  0.00  0.00    -0.382 OA
ATOM     13  H   UNL     1      27.969 -20.818 -16.480  0.00  0.00    +0.210 HD
ENDBRANCH  11  12
ENDBRANCH  10  11
ENDBRANCH   9  10
ENDBRANCH   6   9
ENDBRANCH   3   6
ENDBRANCH   1   4
BRANCH   1  15
ATOM     14  O   UNL     1      33.399 -23.754 -19.225  0.00  0.00    -0.226 OA
ATOM     15  N   UNL     1      33.547 -22.086 -17.619  0.00  0.00    -0.264 N 
ATOM     16  C   UNL     1      33.578 -22.583 -18.907  0.00  0.00    +0.402 C 
ATOM     17  H   UNL     1      33.708 -21.123 -17.489  0.00  0.00    +0.153 HD
BRANCH  16  18
ATOM     18  O   UNL     1      33.841 -21.572 -19.788  0.00  0.00    -0.430 OA
BRANCH  18  19
ATOM     19  C   UNL     1      35.029 -20.814 -19.533  0.00  0.00    +0.237 C 
BRANCH  19  20
ATOM     20  C   UNL     1      35.157 -19.740 -20.573  0.00  0.00    +0.021 C 
ATOM     21  C   UNL     1      34.097 -19.480 -21.442  0.00  0.00    -0.001 C 
ATOM     22  C   UNL     1      36.335 -19.000 -20.670  0.00  0.00    -0.001 C 
ATOM     23  C   UNL     1      34.216 -18.483 -22.409  0.00  0.00    -0.000 C 
ATOM     24  C   UNL     1      36.454 -18.001 -21.638  0.00  0.00    -0.000 C 
ATOM     25  C   UNL     1      35.394 -17.743 -22.506  0.00  0.00    -0.000 C 
ENDBRANCH  19  20
ENDBRANCH  18  19
ENDBRANCH  16  18
ENDBRANCH   1  15
BRANCH   1  26
ATOM     26  C   UNL     1      34.173 -22.485 -15.264  0.00  0.00    +0.055 C 
BRANCH  26  27
ATOM     27  C   UNL     1      35.304 -23.452 -15.016  0.00  0.00    -0.020 C 
ATOM     28  C   UNL     1      36.612 -22.980 -14.900  0.00  0.00    -0.004 C 
ATOM     29  C   UNL     1      35.045 -24.818 -14.903  0.00  0.00    -0.004 C 
ATOM     30  C   UNL     1      37.658 -23.874 -14.670  0.00  0.00    -0.000 C 
ATOM     31  C   UNL     1      36.091 -25.711 -14.673  0.00  0.00    -0.000 C 
ATOM     32  C   UNL     1      37.397 -25.239 -14.557  0.00  0.00    -0.000 C 
ENDBRANCH  26  27
ENDBRANCH   1  26
TORSDOF 12
ENDMDL
MODEL 3
REMARK VINA RESULT:     -11.0      2.030      3.429
REMARK  Name = 16220131
REMARK  12 active torsions:
REMARK  status: ('A' for Active; 'I' for Inactive)
REMARK    1  A    between atoms: C_1  and  C_4
REMARK    2  A    between atoms: C_1  and  N_15
REMARK    3  A    between atoms: C_1  and  C_26
REMARK    4  A    between atoms: N_3  and  C_6
REMARK    5  A    between atoms: C_6  and  C_9
REMARK    6  A    between atoms: C_9  and  C_10
REMARK    7  A    between atoms: C_10  and  C_11
REMARK    8  A    between atoms: C_11  and  O_12
REMARK    9  A    between atoms: C_16  and  O_18
REMARK   10  A    between atoms: O_18  and  C_19
REMARK   11  A    between atoms: C_19  and  C_20
REMARK   12  A    between atoms: C_26  and  C_27
REMARK                            x       y       z     vdW  Elec       q    Type
REMARK                         _______ _______ _______ _____ _____    ______ ____
ROOT
ATOM      1  C   UNL     1      35.036 -22.541 -15.407  0.00  0.00    +0.155 C 
ENDROOT
BRANCH   1   4
ATOM      2  O   UNL     1      37.256 -22.088 -14.543  0.00  0.00    -0.273 OA
ATOM      3  N   UNL     1      36.366 -24.217 -14.271  0.00  0.00    -0.298 N 
ATOM      4  C   UNL     1      36.348 -22.898 -14.716  0.00  0.00    +0.241 C 
ATOM      5  H   UNL     1      35.585 -24.784 -14.464  0.00  0.00    +0.150 HD
BRANCH   3   6
ATOM      6  C   UNL     1      37.465 -24.795 -13.545  0.00  0.00    +0.130 C 
ATOM      7  C   UNL     1      37.946 -26.086 -14.182  0.00  0.00    +0.029 C 
BRANCH   6   9
ATOM      8  O   UNL     1      36.756 -26.181 -11.705  0.00  0.00    -0.294 OA
ATOM      9  C   UNL     1      36.986 -25.046 -12.122  0.00  0.00    +0.171 C 
BRANCH   9  10
ATOM     10  C   UNL     1      36.859 -23.814 -11.235  0.00  0.00    +0.098 C 
BRANCH  10  11
ATOM     11  C   UNL     1      35.442 -23.584 -10.730  0.00  0.00    +0.145 C 
BRANCH  11  12
ATOM     12  O   UNL     1      35.020 -24.677  -9.925  0.00  0.00    -0.382 OA
ATOM     13  H   UNL     1      35.447 -25.491 -10.235  0.00  0.00    +0.210 HD
ENDBRANCH  11  12
ENDBRANCH  10  11
ENDBRANCH   9  10
ENDBRANCH   6   9
ENDBRANCH   3   6
ENDBRANCH   1   4
BRANCH   1  15
ATOM     14  O   UNL     1      36.457 -20.288 -16.566  0.00  0.00    -0.226 OA
ATOM     15  N   UNL     1      35.337 -22.307 -16.797  0.00  0.00    -0.264 N 
ATOM     16  C   UNL     1      36.022 -21.201 -17.260  0.00  0.00    +0.402 C 
ATOM     17  H   UNL     1      35.036 -22.976 -17.454  0.00  0.00    +0.153 HD
BRANCH  16  18
ATOM     18  O   UNL     1      36.147 -21.270 -18.619  0.00  0.00    -0.430 OA
BRANCH  18  19
ATOM     19  C   UNL     1      34.936 -21.115 -19.367  0.00  0.00    +0.237 C 
BRANCH  19  20
ATOM     20  C   UNL     1      35.106 -19.993 -20.349  0.00  0.00    +0.021 C 
ATOM     21  C   UNL     1      34.063 -19.655 -21.210  0.00  0.00    -0.001 C 
ATOM     22  C   UNL     1      36.308 -19.287 -20.399  0.00  0.00    -0.001 C 
ATOM     23  C   UNL     1      34.220 -18.612 -22.122  0.00  0.00    -0.000 C 
ATOM     24  C   UNL     1      36.466 -18.243 -21.312  0.00  0.00    -0.000 C 
ATOM     25  C   UNL     1      35.422 -17.906 -22.173  0.00  0.00    -0.000 C 
ENDBRANCH  19  20
ENDBRANCH  18  19
ENDBRANCH  16  18
ENDBRANCH   1  15
BRANCH   1  26
ATOM     26  C   UNL     1      34.010 -23.664 -15.217  0.00  0.00    +0.055 C 
BRANCH  26  27
ATOM     27  C   UNL     1      32.591 -23.155 -15.174  0.00  0.00    -0.020 C 
ATOM     28  C   UNL     1      31.960 -22.951 -13.946  0.00  0.00    -0.004 C 
ATOM     29  C   UNL     1      31.907 -22.889 -16.360  0.00  0.00    -0.004 C 
ATOM     30  C   UNL     1      30.647 -22.481 -13.906  0.00  0.00    -0.000 C 
ATOM     31  C   UNL     1      30.594 -22.419 -16.320  0.00  0.00    -0.000 C 
ATOM     32  C   UNL     1      29.965 -22.215 -15.093  0.00  0.00    -0.000 C 
ENDBRANCH  26  27
ENDBRANCH   1  26
TORSDOF 12
ENDMDL
MODEL 4
REMARK VINA RESULT:     -11.0      2.248      7.403
REMARK  Name = 16220131
REMARK  12 active torsions:
REMARK  status: ('A' for Active; 'I' for Inactive)
REMARK    1  A    between atoms: C_1  and  C_4
REMARK    2  A    between atoms: C_1  and  N_15
REMARK    3  A    between atoms: C_1  and  C_26
REMARK    4  A    between atoms: N_3  and  C_6
REMARK    5  A    between atoms: C_6  and  C_9
REMARK    6  A    between atoms: C_9  and  C_10
REMARK    7  A    between atoms: C_10  and  C_11
REMARK    8  A    between atoms: C_11  and  O_12
REMARK    9  A    between atoms: C_16  and  O_18
REMARK   10  A    between atoms: O_18  and  C_19
REMARK   11  A    between atoms: C_19  and  C_20
REMARK   12  A    between atoms: C_26  and  C_27
REMARK                            x       y       z     vdW  Elec       q    Type
REMARK                         _______ _______ _______ _____ _____    ______ ____
ROOT
ATOM      1  C   UNL     1      34.787 -21.453 -18.101  0.00  0.00    +0.155 C 
ENDROOT
BRANCH   1   4
ATOM      2  O   UNL     1      33.194 -23.139 -18.804  0.00  0.00    -0.273 OA
ATOM      3  N   UNL     1      33.067 -22.322 -16.633  0.00  0.00    -0.298 N 
ATOM      4  C   UNL     1      33.597 -22.388 -17.918  0.00  0.00    +0.241 C 
ATOM      5  H   UNL     1      33.465 -21.683 -15.998  0.00  0.00    +0.150 HD
BRANCH   3   6
ATOM      6  C   UNL     1      31.971 -23.136 -16.182  0.00  0.00    +0.130 C 
ATOM      7  C   UNL     1      30.637 -22.435 -16.357  0.00  0.00    +0.029 C 
BRANCH   6   9
ATOM      8  O   UNL     1      31.318 -23.407 -13.878  0.00  0.00    -0.294 OA
ATOM      9  C   UNL     1      32.218 -23.459 -14.715  0.00  0.00    +0.171 C 
BRANCH   9  10
ATOM     10  C   UNL     1      33.633 -23.897 -14.360  0.00  0.00    +0.098 C 
BRANCH  10  11
ATOM     11  C   UNL     1      34.011 -23.589 -12.919  0.00  0.00    +0.145 C 
BRANCH  11  12
ATOM     12  O   UNL     1      33.526 -24.606 -12.051  0.00  0.00    -0.382 OA
ATOM     13  H   UNL     1      33.953 -24.523 -11.184  0.00  0.00    +0.210 HD
ENDBRANCH  11  12
ENDBRANCH  10  11
ENDBRANCH   9  10
ENDBRANCH   6   9
ENDBRANCH   3   6
ENDBRANCH   1   4
BRANCH   1  15
ATOM     14  O   UNL     1      37.010 -19.881 -17.089  0.00  0.00    -0.226 OA
ATOM     15  N   UNL     1      35.796 -21.857 -17.154  0.00  0.00    -0.264 N 
ATOM     16  C   UNL     1      36.822 -21.039 -16.728  0.00  0.00    +0.402 C 
ATOM     17  H   UNL     1      35.750 -22.772 -16.792  0.00  0.00    +0.153 HD
BRANCH  16  18
ATOM     18  O   UNL     1      37.610 -21.710 -15.835  0.00  0.00    -0.430 OA
BRANCH  18  19
ATOM     19  C   UNL     1      36.922 -22.569 -14.919  0.00  0.00    +0.237 C 
BRANCH  19  20
ATOM     20  C   UNL     1      37.853 -23.661 -14.479  0.00  0.00    +0.021 C 
ATOM     21  C   UNL     1      37.566 -24.403 -13.334  0.00  0.00    -0.001 C 
ATOM     22  C   UNL     1      39.004 -23.935 -15.217  0.00  0.00    -0.001 C 
ATOM     23  C   UNL     1      38.430 -25.418 -12.925  0.00  0.00    -0.000 C 
ATOM     24  C   UNL     1      39.869 -24.951 -14.808  0.00  0.00    -0.000 C 
ATOM     25  C   UNL     1      39.582 -25.692 -13.662  0.00  0.00    -0.000 C 
ENDBRANCH  19  20
ENDBRANCH  18  19
ENDBRANCH  16  18
ENDBRANCH   1  15
BRANCH   1  26
ATOM     26  C   UNL     1      35.293 -21.510 -19.547  0.00  0.00    +0.055 C 
BRANCH  26  27
ATOM     27  C   UNL     1      35.208 -20.177 -20.248  0.00  0.00    -0.020 C 
ATOM     28  C   UNL     1      36.366 -19.434 -20.479  0.00  0.00    -0.004 C 
ATOM     29  C   UNL     1      33.971 -19.684 -20.664  0.00  0.00    -0.004 C 
ATOM     30  C   UNL     1      36.287 -18.202 -21.127  0.00  0.00    -0.000 C 
ATOM     31  C   UNL     1      33.892 -18.452 -21.313  0.00  0.00    -0.000 C 
ATOM     32  C   UNL     1      35.050 -17.711 -21.544  0.00  0.00    -0.000 C 
ENDBRANCH  26  27
ENDBRANCH   1  26
TORSDOF 12
ENDMDL
MODEL 5
REMARK VINA RESULT:     -10.8      2.561      6.592
REMARK  Name = 16220131
REMARK  12 active torsions:
REMARK  status: ('A' for Active; 'I' for Inactive)
REMARK    1  A    between atoms: C_1  and  C_4
REMARK    2  A    between atoms: C_1  and  N_15
REMARK    3  A    between atoms: C_1  and  C_26
REMARK    4  A    between atoms: N_3  and  C_6
REMARK    5  A    between atoms: C_6  and  C_9
REMARK    6  A    between atoms: C_9  and  C_10
REMARK    7  A    between atoms: C_10  and  C_11
REMARK    8  A    between atoms: C_11  and  O_12
REMARK    9  A    between atoms: C_16  and  O_18
REMARK   10  A    between atoms: O_18  and  C_19
REMARK   11  A    between atoms: C_19  and  C_20
REMARK   12  A    between atoms: C_26  and  C_27
REMARK                            x       y       z     vdW  Elec       q    Type
REMARK                         _______ _______ _______ _____ _____    ______ ____
ROOT
ATOM      1  C   UNL     1      33.439 -23.285 -15.149  0.00  0.00    +0.155 C 
ENDROOT
BRANCH   1   4
ATOM      2  O   UNL     1      31.874 -22.378 -13.535  0.00  0.00    -0.273 OA
ATOM      3  N   UNL     1      31.044 -23.608 -15.323  0.00  0.00    -0.298 N 
ATOM      4  C   UNL     1      32.057 -23.041 -14.554  0.00  0.00    +0.241 C 
ATOM      5  H   UNL     1      31.300 -24.122 -16.123  0.00  0.00    +0.150 HD
BRANCH   3   6
ATOM      6  C   UNL     1      29.646 -23.484 -15.012  0.00  0.00    +0.130 C 
ATOM      7  C   UNL     1      28.916 -24.806 -15.157  0.00  0.00    +0.029 C 
BRANCH   6   9
ATOM      8  O   UNL     1      29.675 -22.048 -16.947  0.00  0.00    -0.294 OA
ATOM      9  C   UNL     1      29.061 -22.442 -15.956  0.00  0.00    +0.171 C 
BRANCH   9  10
ATOM     10  C   UNL     1      27.656 -21.958 -15.624  0.00  0.00    +0.098 C 
BRANCH  10  11
ATOM     11  C   UNL     1      26.714 -21.991 -16.819  0.00  0.00    +0.145 C 
BRANCH  11  12
ATOM     12  O   UNL     1      27.049 -23.068 -17.684  0.00  0.00    -0.382 OA
ATOM     13  H   UNL     1      26.478 -23.828 -17.492  0.00  0.00    +0.210 HD
ENDBRANCH  11  12
ENDBRANCH  10  11
ENDBRANCH   9  10
ENDBRANCH   6   9
ENDBRANCH   3   6
ENDBRANCH   1   4
BRANCH   1  15
ATOM     14  O   UNL     1      32.983 -23.761 -17.977  0.00  0.00    -0.226 OA
ATOM     15  N   UNL     1      33.604 -22.357 -16.239  0.00  0.00    -0.264 N 
ATOM     16  C   UNL     1      33.363 -22.672 -17.561  0.00  0.00    +0.402 C 
ATOM     17  H   UNL     1      33.908 -21.444 -16.027  0.00  0.00    +0.153 HD
BRANCH  16  18
ATOM     18  O   UNL     1      33.610 -21.583 -18.349  0.00  0.00    -0.430 OA
BRANCH  18  19
ATOM     19  C   UNL     1      34.934 -21.490 -18.888  0.00  0.00    +0.237 C 
BRANCH  19  20
ATOM     20  C   UNL     1      34.980 -20.365 -19.880  0.00  0.00    +0.021 C 
ATOM     21  C   UNL     1      33.833 -20.015 -20.592  0.00  0.00    -0.001 C 
ATOM     22  C   UNL     1      36.170 -19.669 -20.090  0.00  0.00    -0.001 C 
ATOM     23  C   UNL     1      33.876 -18.970 -21.514  0.00  0.00    -0.000 C 
ATOM     24  C   UNL     1      36.214 -18.623 -21.012  0.00  0.00    -0.000 C 
ATOM     25  C   UNL     1      35.066 -18.273 -21.723  0.00  0.00    -0.000 C 
ENDBRANCH  19  20
ENDBRANCH  18  19
ENDBRANCH  16  18
ENDBRANCH   1  15
BRANCH   1  26
ATOM     26  C   UNL     1      34.520 -23.116 -14.075  0.00  0.00    +0.055 C 
BRANCH  26  27
ATOM     27  C   UNL     1      35.408 -24.328 -13.944  0.00  0.00    -0.020 C 
ATOM     28  C   UNL     1      35.543 -25.213 -15.015  0.00  0.00    -0.004 C 
ATOM     29  C   UNL     1      36.094 -24.567 -12.753  0.00  0.00    -0.004 C 
ATOM     30  C   UNL     1      36.364 -26.334 -14.894  0.00  0.00    -0.000 C 
ATOM     31  C   UNL     1      36.915 -25.688 -12.633  0.00  0.00    -0.000 C 
ATOM     32  C   UNL     1      37.050 -26.571 -13.703  0.00  0.00    -0.000 C 
ENDBRANCH  26  27
ENDBRANCH   1  26
TORSDOF 12
ENDMDL
MODEL 6
REMARK VINA RESULT:     -10.8      1.421      5.583
REMARK  Name = 16220131
REMARK  12 active torsions:
REMARK  status: ('A' for Active; 'I' for Inactive)
REMARK    1  A    between atoms: C_1  and  C_4
REMARK    2  A    between atoms: C_1  and  N_15
REMARK    3  A    between atoms: C_1  and  C_26
REMARK    4  A    between atoms: N_3  and  C_6
REMARK    5  A    between atoms: C_6  and  C_9
REMARK    6  A    between atoms: C_9  and  C_10
REMARK    7  A    between atoms: C_10  and  C_11
REMARK    8  A    between atoms: C_11  and  O_12
REMARK    9  A    between atoms: C_16  and  O_18
REMARK   10  A    between atoms: O_18  and  C_19
REMARK   11  A    between atoms: C_19  and  C_20
REMARK   12  A    between atoms: C_26  and  C_27
REMARK                            x       y       z     vdW  Elec       q    Type
REMARK                         _______ _______ _______ _____ _____    ______ ____
ROOT
ATOM      1  C   UNL     1      35.936 -22.565 -16.185  0.00  0.00    +0.155 C 
ENDROOT
BRANCH   1   4
ATOM      2  O   UNL     1      37.269 -21.971 -14.248  0.00  0.00    -0.273 OA
ATOM      3  N   UNL     1      37.511 -24.094 -15.159  0.00  0.00    -0.298 N 
ATOM      4  C   UNL     1      36.978 -22.810 -15.098  0.00  0.00    +0.241 C 
ATOM      5  H   UNL     1      37.210 -24.689 -15.884  0.00  0.00    +0.150 HD
BRANCH   3   6
ATOM      6  C   UNL     1      38.477 -24.599 -14.221  0.00  0.00    +0.130 C 
ATOM      7  C   UNL     1      39.767 -25.012 -14.906  0.00  0.00    +0.029 C 
BRANCH   6   9
ATOM      8  O   UNL     1      37.647 -26.858 -14.086  0.00  0.00    -0.294 OA
ATOM      9  C   UNL     1      37.843 -25.787 -13.511  0.00  0.00    +0.171 C 
BRANCH   9  10
ATOM     10  C   UNL     1      37.513 -25.584 -12.038  0.00  0.00    +0.098 C 
BRANCH  10  11
ATOM     11  C   UNL     1      36.528 -24.449 -11.797  0.00  0.00    +0.145 C 
BRANCH  11  12
ATOM     12  O   UNL     1      35.191 -24.922 -11.905  0.00  0.00    -0.382 OA
ATOM     13  H   UNL     1      35.133 -25.817 -11.534  0.00  0.00    +0.210 HD
ENDBRANCH  11  12
ENDBRANCH  10  11
ENDBRANCH   9  10
ENDBRANCH   6   9
ENDBRANCH   3   6
ENDBRANCH   1   4
BRANCH   1  15
ATOM     14  O   UNL     1      34.235 -24.264 -14.555  0.00  0.00    -0.226 OA
ATOM     15  N   UNL     1      34.707 -22.208 -15.523  0.00  0.00    -0.264 N 
ATOM     16  C   UNL     1      33.959 -23.087 -14.764  0.00  0.00    +0.402 C 
ATOM     17  H   UNL     1      34.381 -21.284 -15.618  0.00  0.00    +0.153 HD
BRANCH  16  18
ATOM     18  O   UNL     1      32.854 -22.450 -14.273  0.00  0.00    -0.430 OA
BRANCH  18  19
ATOM     19  C   UNL     1      32.038 -23.216 -13.378  0.00  0.00    +0.237 C 
BRANCH  19  20
ATOM     20  C   UNL     1      30.733 -23.525 -14.050  0.00  0.00    +0.021 C 
ATOM     21  C   UNL     1      30.071 -24.721 -13.772  0.00  0.00    -0.001 C 
ATOM     22  C   UNL     1      30.179 -22.615 -14.952  0.00  0.00    -0.001 C 
ATOM     23  C   UNL     1      28.858 -25.008 -14.396  0.00  0.00    -0.000 C 
ATOM     24  C   UNL     1      28.965 -22.903 -15.576  0.00  0.00    -0.000 C 
ATOM     25  C   UNL     1      28.304 -24.099 -15.298  0.00  0.00    -0.000 C 
ENDBRANCH  19  20
ENDBRANCH  18  19
ENDBRANCH  16  18
ENDBRANCH   1  15
BRANCH   1  26
ATOM     26  C   UNL     1      36.415 -21.471 -17.146  0.00  0.00    +0.055 C 
BRANCH  26  27
ATOM     27  C   UNL     1      35.422 -21.184 -18.244  0.00  0.00    -0.020 C 
ATOM     28  C   UNL     1      34.144 -21.742 -18.193  0.00  0.00    -0.004 C 
ATOM     29  C   UNL     1      35.779 -20.361 -19.313  0.00  0.00    -0.004 C 
ATOM     30  C   UNL     1      33.226 -21.477 -19.209  0.00  0.00    -0.000 C 
ATOM     31  C   UNL     1      34.861 -20.096 -20.328  0.00  0.00    -0.000 C 
ATOM     32  C   UNL     1      33.585 -20.654 -20.276  0.00  0.00    -0.000 C 
ENDBRANCH  26  27
ENDBRANCH   1  26
TORSDOF 12
ENDMDL
MODEL 7
REMARK VINA RESULT:     -10.7      2.256      7.648
REMARK  Name = 16220131
REMARK  12 active torsions:
REMARK  status: ('A' for Active; 'I' for Inactive)
REMARK    1  A    between atoms: C_1  and  C_4
REMARK    2  A    between atoms: C_1  and  N_15
REMARK    3  A    between atoms: C_1  and  C_26
REMARK    4  A    between atoms: N_3  and  C_6
REMARK    5  A    between atoms: C_6  and  C_9
REMARK    6  A    between atoms: C_9  and  C_10
REMARK    7  A    between atoms: C_10  and  C_11
REMARK    8  A    between atoms: C_11  and  O_12
REMARK    9  A    between atoms: C_16  and  O_18
REMARK   10  A    between atoms: O_18  and  C_19
REMARK   11  A    between atoms: C_19  and  C_20
REMARK   12  A    between atoms: C_26  and  C_27
REMARK                            x       y       z     vdW  Elec       q    Type
REMARK                         _______ _______ _______ _____ _____    ______ ____
ROOT
ATOM      1  C   UNL     1      32.912 -22.430 -16.964  0.00  0.00    +0.155 C 
ENDROOT
BRANCH   1   4
ATOM      2  O   UNL     1      30.569 -21.842 -17.166  0.00  0.00    -0.273 OA
ATOM      3  N   UNL     1      31.281 -22.943 -15.248  0.00  0.00    -0.298 N 
ATOM      4  C   UNL     1      31.465 -22.345 -16.492  0.00  0.00    +0.241 C 
ATOM      5  H   UNL     1      32.069 -23.316 -14.790  0.00  0.00    +0.150 HD
BRANCH   3   6
ATOM      6  C   UNL     1      30.003 -23.044 -14.596  0.00  0.00    +0.130 C 
ATOM      7  C   UNL     1      30.147 -23.217 -13.095  0.00  0.00    +0.029 C 
BRANCH   6   9
ATOM      8  O   UNL     1      29.629 -25.391 -14.990  0.00  0.00    -0.294 OA
ATOM      9  C   UNL     1      29.275 -24.233 -15.206  0.00  0.00    +0.171 C 
BRANCH   9  10
ATOM     10  C   UNL     1      28.056 -23.901 -16.057  0.00  0.00    +0.098 C 
BRANCH  10  11
ATOM     11  C   UNL     1      27.453 -22.542 -15.736  0.00  0.00    +0.145 C 
BRANCH  11  12
ATOM     12  O   UNL     1      27.690 -21.631 -16.802  0.00  0.00    -0.382 OA
ATOM     13  H   UNL     1      27.167 -20.826 -16.663  0.00  0.00    +0.210 HD
ENDBRANCH  11  12
ENDBRANCH  10  11
ENDBRANCH   9  10
ENDBRANCH   6   9
ENDBRANCH   3   6
ENDBRANCH   1   4
BRANCH   1  15
ATOM     14  O   UNL     1      35.697 -22.621 -16.163  0.00  0.00    -0.226 OA
ATOM     15  N   UNL     1      33.545 -23.485 -16.212  0.00  0.00    -0.264 N 
ATOM     16  C   UNL     1      34.883 -23.492 -15.875  0.00  0.00    +0.402 C 
ATOM     17  H   UNL     1      32.989 -24.244 -15.923  0.00  0.00    +0.153 HD
BRANCH  16  18
ATOM     18  O   UNL     1      35.176 -24.623 -15.165  0.00  0.00    -0.430 OA
BRANCH  18  19
ATOM     19  C   UNL     1      36.466 -24.654 -14.543  0.00  0.00    +0.237 C 
BRANCH  19  20
ATOM     20  C   UNL     1      36.351 -24.107 -13.150  0.00  0.00    +0.021 C 
ATOM     21  C   UNL     1      36.919 -22.872 -12.837  0.00  0.00    -0.001 C 
ATOM     22  C   UNL     1      35.676 -24.833 -12.170  0.00  0.00    -0.001 C 
ATOM     23  C   UNL     1      36.813 -22.364 -11.543  0.00  0.00    -0.000 C 
ATOM     24  C   UNL     1      35.570 -24.324 -10.874  0.00  0.00    -0.000 C 
ATOM     25  C   UNL     1      36.138 -23.090 -10.562  0.00  0.00    -0.000 C 
ENDBRANCH  19  20
ENDBRANCH  18  19
ENDBRANCH  16  18
ENDBRANCH   1  15
BRANCH   1  26
ATOM     26  C   UNL     1      32.966 -22.684 -18.475  0.00  0.00    +0.055 C 
BRANCH  26  27
ATOM     27  C   UNL     1      33.617 -21.554 -19.233  0.00  0.00    -0.020 C 
ATOM     28  C   UNL     1      32.831 -20.636 -19.929  0.00  0.00    -0.004 C 
ATOM     29  C   UNL     1      35.007 -21.426 -19.240  0.00  0.00    -0.004 C 
ATOM     30  C   UNL     1      33.432 -19.590 -20.630  0.00  0.00    -0.000 C 
ATOM     31  C   UNL     1      35.608 -20.380 -19.941  0.00  0.00    -0.000 C 
ATOM     32  C   UNL     1      34.821 -19.463 -20.635  0.00  0.00    -0.000 C 
ENDBRANCH  26  27
ENDBRANCH   1  26
TORSDOF 12
ENDMDL
MODEL 8
REMARK VINA RESULT:     -10.7      2.269      7.610
REMARK  Name = 16220131
REMARK  12 active torsions:
REMARK  status: ('A' for Active; 'I' for Inactive)
REMARK    1  A    between atoms: C_1  and  C_4
REMARK    2  A    between atoms: C_1  and  N_15
REMARK    3  A    between atoms: C_1  and  C_26
REMARK    4  A    between atoms: N_3  and  C_6
REMARK    5  A    between atoms: C_6  and  C_9
REMARK    6  A    between atoms: C_9  and  C_10
REMARK    7  A    between atoms: C_10  and  C_11
REMARK    8  A    between atoms: C_11  and  O_12
REMARK    9  A    between atoms: C_16  and  O_18
REMARK   10  A    between atoms: O_18  and  C_19
REMARK   11  A    between atoms: C_19  and  C_20
REMARK   12  A    between atoms: C_26  and  C_27
REMARK                            x       y       z     vdW  Elec       q    Type
REMARK                         _______ _______ _______ _____ _____    ______ ____
ROOT
ATOM      1  C   UNL     1      34.840 -21.449 -17.988  0.00  0.00    +0.155 C 
ENDROOT
BRANCH   1   4
ATOM      2  O   UNL     1      33.198 -23.037 -18.803  0.00  0.00    -0.273 OA
ATOM      3  N   UNL     1      33.069 -22.334 -16.592  0.00  0.00    -0.298 N 
ATOM      4  C   UNL     1      33.615 -22.350 -17.872  0.00  0.00    +0.241 C 
ATOM      5  H   UNL     1      33.479 -21.745 -15.918  0.00  0.00    +0.150 HD
BRANCH   3   6
ATOM      6  C   UNL     1      31.938 -23.131 -16.200  0.00  0.00    +0.130 C 
ATOM      7  C   UNL     1      30.626 -22.409 -16.444  0.00  0.00    +0.029 C 
BRANCH   6   9
ATOM      8  O   UNL     1      33.190 -23.787 -14.249  0.00  0.00    -0.294 OA
ATOM      9  C   UNL     1      32.103 -23.460 -14.723  0.00  0.00    +0.171 C 
BRANCH   9  10
ATOM     10  C   UNL     1      30.854 -23.309 -13.864  0.00  0.00    +0.098 C 
BRANCH  10  11
ATOM     11  C   UNL     1      30.215 -24.641 -13.498  0.00  0.00    +0.145 C 
BRANCH  11  12
ATOM     12  O   UNL     1      29.887 -24.669 -12.115  0.00  0.00    -0.382 OA
ATOM     13  H   UNL     1      28.961 -24.938 -12.007  0.00  0.00    +0.210 HD
ENDBRANCH  11  12
ENDBRANCH  10  11
ENDBRANCH   9  10
ENDBRANCH   6   9
ENDBRANCH   3   6
ENDBRANCH   1   4
BRANCH   1  15
ATOM     14  O   UNL     1      37.073 -19.956 -16.884  0.00  0.00    -0.226 OA
ATOM     15  N   UNL     1      35.782 -21.881 -16.986  0.00  0.00    -0.264 N 
ATOM     16  C   UNL     1      36.819 -21.099 -16.519  0.00  0.00    +0.402 C 
ATOM     17  H   UNL     1      35.680 -22.787 -16.615  0.00  0.00    +0.153 HD
BRANCH  16  18
ATOM     18  O   UNL     1      37.532 -21.789 -15.578  0.00  0.00    -0.430 OA
BRANCH  18  19
ATOM     19  C   UNL     1      37.136 -23.149 -15.369  0.00  0.00    +0.237 C 
BRANCH  19  20
ATOM     20  C   UNL     1      37.030 -23.406 -13.894  0.00  0.00    +0.021 C 
ATOM     21  C   UNL     1      37.661 -24.517 -13.333  0.00  0.00    -0.001 C 
ATOM     22  C   UNL     1      36.303 -22.535 -13.084  0.00  0.00    -0.001 C 
ATOM     23  C   UNL     1      37.563 -24.756 -11.962  0.00  0.00    -0.000 C 
ATOM     24  C   UNL     1      36.204 -22.774 -11.713  0.00  0.00    -0.000 C 
ATOM     25  C   UNL     1      36.835 -23.885 -11.152  0.00  0.00    -0.000 C 
ENDBRANCH  19  20
ENDBRANCH  18  19
ENDBRANCH  16  18
ENDBRANCH   1  15
BRANCH   1  26
ATOM     26  C   UNL     1      35.424 -21.524 -19.403  0.00  0.00    +0.055 C 
BRANCH  26  27
ATOM     27  C   UNL     1      35.274 -20.230 -20.165  0.00  0.00    -0.020 C 
ATOM     28  C   UNL     1      34.025 -19.851 -20.656  0.00  0.00    -0.004 C 
ATOM     29  C   UNL     1      36.384 -19.413 -20.380  0.00  0.00    -0.004 C 
ATOM     30  C   UNL     1      33.885 -18.655 -21.360  0.00  0.00    -0.000 C 
ATOM     31  C   UNL     1      36.244 -18.217 -21.084  0.00  0.00    -0.000 C 
ATOM     32  C   UNL     1      34.996 -17.838 -21.574  0.00  0.00    -0.000 C 
ENDBRANCH  26  27
ENDBRANCH   1  26
TORSDOF 12
ENDMDL
MODEL 9
REMARK VINA RESULT:     -10.7      2.009      6.428
REMARK  Name = 16220131
REMARK  12 active torsions:
REMARK  status: ('A' for Active; 'I' for Inactive)
REMARK    1  A    between atoms: C_1  and  C_4
REMARK    2  A    between atoms: C_1  and  N_15
REMARK    3  A    between atoms: C_1  and  C_26
REMARK    4  A    between atoms: N_3  and  C_6
REMARK    5  A    between atoms: C_6  and  C_9
REMARK    6  A    between atoms: C_9  and  C_10
REMARK    7  A    between atoms: C_10  and  C_11
REMARK    8  A    between atoms: C_11  and  O_12
REMARK    9  A    between atoms: C_16  and  O_18
REMARK   10  A    between atoms: O_18  and  C_19
REMARK   11  A    between atoms: C_19  and  C_20
REMARK   12  A    between atoms: C_26  and  C_27
REMARK                            x       y       z     vdW  Elec       q    Type
REMARK                         _______ _______ _______ _____ _____    ______ ____
ROOT
ATOM      1  C   UNL     1      33.298 -23.594 -13.488  0.00  0.00    +0.155 C 
ENDROOT
BRANCH   1   4
ATOM      2  O   UNL     1      31.368 -22.748 -12.289  0.00  0.00    -0.273 OA
ATOM      3  N   UNL     1      31.032 -23.851 -14.306  0.00  0.00    -0.298 N 
ATOM      4  C   UNL     1      31.809 -23.353 -13.264  0.00  0.00    +0.241 C 
ATOM      5  H   UNL     1      31.487 -24.323 -15.041  0.00  0.00    +0.150 HD
BRANCH   3   6
ATOM      6  C   UNL     1      29.602 -23.713 -14.367  0.00  0.00    +0.130 C 
ATOM      7  C   UNL     1      28.913 -25.053 -14.556  0.00  0.00    +0.029 C 
BRANCH   6   9
ATOM      8  O   UNL     1      30.074 -22.604 -16.453  0.00  0.00    -0.294 OA
ATOM      9  C   UNL     1      29.285 -22.779 -15.525  0.00  0.00    +0.171 C 
BRANCH   9  10
ATOM     10  C   UNL     1      27.914 -22.114 -15.488  0.00  0.00    +0.098 C 
BRANCH  10  11
ATOM     11  C   UNL     1      27.157 -22.230 -16.802  0.00  0.00    +0.145 C 
BRANCH  11  12
ATOM     12  O   UNL     1      27.238 -23.558 -17.305  0.00  0.00    -0.382 OA
ATOM     13  H   UNL     1      26.836 -23.596 -18.187  0.00  0.00    +0.210 HD
ENDBRANCH  11  12
ENDBRANCH  10  11
ENDBRANCH   9  10
ENDBRANCH   6   9
ENDBRANCH   3   6
ENDBRANCH   1   4
BRANCH   1  15
ATOM     14  O   UNL     1      34.981 -24.577 -15.640  0.00  0.00    -0.226 OA
ATOM     15  N   UNL     1      33.661 -22.914 -14.706  0.00  0.00    -0.264 N 
ATOM     16  C   UNL     1      34.472 -23.462 -15.679  0.00  0.00    +0.402 C 
ATOM     17  H   UNL     1      33.310 -22.006 -14.851  0.00  0.00    +0.153 HD
BRANCH  16  18
ATOM     18  O   UNL     1      34.627 -22.574 -16.707  0.00  0.00    -0.430 OA
BRANCH  18  19
ATOM     19  C   UNL     1      33.511 -22.444 -17.594  0.00  0.00    +0.237 C 
BRANCH  19  20
ATOM     20  C   UNL     1      33.865 -21.479 -18.687  0.00  0.00    +0.021 C 
ATOM     21  C   UNL     1      35.203 -21.218 -18.981  0.00  0.00    -0.001 C 
ATOM     22  C   UNL     1      32.856 -20.843 -19.410  0.00  0.00    -0.001 C 
ATOM     23  C   UNL     1      35.532 -20.321 -19.997  0.00  0.00    -0.000 C 
ATOM     24  C   UNL     1      33.185 -19.945 -20.427  0.00  0.00    -0.000 C 
ATOM     25  C   UNL     1      34.523 -19.685 -20.720  0.00  0.00    -0.000 C 
ENDBRANCH  19  20
ENDBRANCH  18  19
ENDBRANCH  16  18
ENDBRANCH   1  15
BRANCH   1  26
ATOM     26  C   UNL     1      34.106 -23.095 -12.284  0.00  0.00    +0.055 C 
BRANCH  26  27
ATOM     27  C   UNL     1      35.504 -23.661 -12.245  0.00  0.00    -0.020 C 
ATOM     28  C   UNL     1      36.582 -22.836 -11.927  0.00  0.00    -0.004 C 
ATOM     29  C   UNL     1      35.720 -25.010 -12.529  0.00  0.00    -0.004 C 
ATOM     30  C   UNL     1      37.875 -23.358 -11.891  0.00  0.00    -0.000 C 
ATOM     31  C   UNL     1      37.013 -25.533 -12.493  0.00  0.00    -0.000 C 
ATOM     32  C   UNL     1      38.090 -24.707 -12.174  0.00  0.00    -0.000 C 
ENDBRANCH  26  27
ENDBRANCH   1  26
TORSDOF 12
ENDMDL
