MODEL 1
REMARK VINA RESULT:     -11.0      0.000      0.000
REMARK  Name = 4369443
REMARK  8 active torsions:
REMARK  status: ('A' for Active; 'I' for Inactive)
REMARK    1  A    between atoms: N_3  and  C_29
REMARK    2  A    between atoms: C_4  and  C_16
REMARK    3  A    between atoms: C_5  and  C_8
REMARK    4  A    between atoms: C_18  and  O_20
REMARK    5  A    between atoms: O_20  and  C_21
REMARK    6  A    between atoms: C_22  and  O_27
REMARK    7  A    between atoms: C_29  and  O_30
REMARK    8  A    between atoms: O_30  and  C_31
REMARK                            x       y       z     vdW  Elec       q    Type
REMARK                         _______ _______ _______ _____ _____    ______ ____
ROOT
ATOM      1  O   UNL     1      31.141 -23.720 -14.677  0.00  0.00    -0.331 OA
ATOM      2  O   UNL     1      31.742 -24.928 -12.809  0.00  0.00    -0.243 OA
ATOM      3  N   UNL     1      31.902 -23.084 -15.646  0.00  0.00    -0.158 N 
ATOM      4  C   UNL     1      33.233 -23.167 -15.331  0.00  0.00    +0.133 A 
ATOM      5  C   UNL     1      33.416 -23.897 -14.219  0.00  0.00    +0.099 A 
ATOM      6  C   UNL     1      32.036 -24.261 -13.786  0.00  0.00    +0.367 A 
ENDROOT
BRANCH   5   8
ATOM      7  F   UNL     1      38.111 -25.257 -11.505  0.00  0.00    -0.204 F 
ATOM      8  C   UNL     1      34.644 -24.252 -13.509  0.00  0.00    +0.008 C 
ATOM      9  C   UNL     1      34.909 -23.702 -12.255  0.00  0.00    +0.003 C 
ATOM     10  C   UNL     1      35.549 -25.142 -14.086  0.00  0.00    +0.003 C 
ATOM     11  C   UNL     1      36.080 -24.041 -11.578  0.00  0.00    +0.030 C 
ATOM     12  C   UNL     1      36.721 -25.482 -13.409  0.00  0.00    +0.030 C 
ATOM     13  C   UNL     1      36.986 -24.931 -12.155  0.00  0.00    +0.140 C 
ENDBRANCH   5   8
BRANCH   4  16
ATOM     14  N   UNL     1      34.043 -22.432 -17.462  0.00  0.00    -0.319 NA
ATOM     15  N   UNL     1      36.143 -21.275 -17.695  0.00  0.00    -0.151 NA
ATOM     16  C   UNL     1      34.264 -22.502 -16.129  0.00  0.00    +0.166 C 
ATOM     17  C   UNL     1      35.393 -21.984 -15.521  0.00  0.00    +0.056 C 
ATOM     18  C   UNL     1      35.005 -21.816 -18.172  0.00  0.00    +0.257 C 
ATOM     19  C   UNL     1      36.305 -21.377 -16.361  0.00  0.00    +0.116 C 
BRANCH  18  20
ATOM     20  O   UNL     1      34.807 -21.730 -19.532  0.00  0.00    -0.380 OA
BRANCH  20  21
ATOM     21  C   UNL     1      34.917 -20.481 -20.104  0.00  0.00    +0.194 C 
ATOM     22  C   UNL     1      33.777 -19.795 -20.493  0.00  0.00    +0.169 C 
ATOM     23  C   UNL     1      36.180 -19.935 -20.283  0.00  0.00    +0.042 C 
ATOM     24  C   UNL     1      33.901 -18.532 -21.073  0.00  0.00    +0.040 C 
ATOM     25  C   UNL     1      36.304 -18.672 -20.863  0.00  0.00    +0.003 C 
ATOM     26  C   UNL     1      35.164 -17.971 -21.257  0.00  0.00    +0.003 C 
BRANCH  22  27
ATOM     27  O   UNL     1      32.537 -20.333 -20.319  0.00  0.00    -0.503 OA
ATOM     28  H   UNL     1      32.160 -20.867 -20.990  0.00  0.00    +0.292 HD
ENDBRANCH  22  27
ENDBRANCH  20  21
ENDBRANCH  18  20
ENDBRANCH   4  16
BRANCH   3  29
ATOM     29  C   UNL     1      31.190 -22.171 -16.498  0.00  0.00    +0.289 C 
BRANCH  29  30
ATOM     30  O   UNL     1      29.943 -22.735 -16.892  0.00  0.00    -0.330 OA
BRANCH  30  31
ATOM     31  C   UNL     1      28.854 -22.132 -16.206  0.00  0.00    +0.145 C 
ATOM     32  C   UNL     1      27.836 -23.198 -15.861  0.00  0.00    +0.035 C 
ENDBRANCH  30  31
ENDBRANCH  29  30
ENDBRANCH   3  29
TORSDOF 8
ENDMDL
MODEL 2
REMARK VINA RESULT:     -10.8      2.966      5.159
REMARK  Name = 4369443
REMARK  8 active torsions:
REMARK  status: ('A' for Active; 'I' for Inactive)
REMARK    1  A    between atoms: N_3  and  C_29
REMARK    2  A    between atoms: C_4  and  C_16
REMARK    3  A    between atoms: C_5  and  C_8
REMARK    4  A    between atoms: C_18  and  O_20
REMARK    5  A    between atoms: O_20  and  C_21
REMARK    6  A    between atoms: C_22  and  O_27
REMARK    7  A    between atoms: C_29  and  O_30
REMARK    8  A    between atoms: O_30  and  C_31
REMARK                            x       y       z     vdW  Elec       q    Type
REMARK                         _______ _______ _______ _____ _____    ______ ____
ROOT
ATOM      1  O   UNL     1      36.348 -24.213 -11.524  0.00  0.00    -0.331 OA
ATOM      2  O   UNL     1      34.242 -24.758 -10.765  0.00  0.00    -0.243 OA
ATOM      3  N   UNL     1      36.772 -23.543 -12.661  0.00  0.00    -0.158 N 
ATOM      4  C   UNL     1      35.700 -23.250 -13.463  0.00  0.00    +0.133 A 
ATOM      5  C   UNL     1      34.551 -23.633 -12.884  0.00  0.00    +0.099 A 
ATOM      6  C   UNL     1      34.978 -24.270 -11.605  0.00  0.00    +0.367 A 
ENDROOT
BRANCH   5   8
ATOM      7  F   UNL     1      29.273 -23.238 -14.685  0.00  0.00    -0.204 F 
ATOM      8  C   UNL     1      33.171 -23.530 -13.356  0.00  0.00    +0.008 C 
ATOM      9  C   UNL     1      32.385 -24.677 -13.469  0.00  0.00    +0.003 C 
ATOM     10  C   UNL     1      32.640 -22.285 -13.690  0.00  0.00    +0.003 C 
ATOM     11  C   UNL     1      31.069 -24.578 -13.919  0.00  0.00    +0.030 C 
ATOM     12  C   UNL     1      31.323 -22.185 -14.140  0.00  0.00    +0.030 C 
ATOM     13  C   UNL     1      30.538 -23.333 -14.254  0.00  0.00    +0.140 C 
ENDBRANCH   5   8
BRANCH   4  16
ATOM     14  N   UNL     1      34.947 -22.962 -15.718  0.00  0.00    -0.319 NA
ATOM     15  N   UNL     1      36.084 -21.505 -17.264  0.00  0.00    -0.151 NA
ATOM     16  C   UNL     1      35.860 -22.626 -14.778  0.00  0.00    +0.166 C 
ATOM     17  C   UNL     1      36.899 -21.744 -15.012  0.00  0.00    +0.056 C 
ATOM     18  C   UNL     1      35.116 -22.375 -16.917  0.00  0.00    +0.257 C 
ATOM     19  C   UNL     1      36.962 -21.210 -16.284  0.00  0.00    +0.116 C 
BRANCH  18  20
ATOM     20  O   UNL     1      34.202 -22.698 -17.895  0.00  0.00    -0.380 OA
BRANCH  20  21
ATOM     21  C   UNL     1      33.883 -21.714 -18.806  0.00  0.00    +0.194 C 
ATOM     22  C   UNL     1      32.576 -21.264 -18.910  0.00  0.00    +0.169 C 
ATOM     23  C   UNL     1      34.888 -21.194 -19.609  0.00  0.00    +0.042 C 
ATOM     24  C   UNL     1      32.265 -20.269 -19.837  0.00  0.00    +0.040 C 
ATOM     25  C   UNL     1      34.577 -20.198 -20.535  0.00  0.00    +0.003 C 
ATOM     26  C   UNL     1      33.266 -19.736 -20.649  0.00  0.00    +0.003 C 
BRANCH  22  27
ATOM     27  O   UNL     1      31.590 -21.778 -18.122  0.00  0.00    -0.503 OA
ATOM     28  H   UNL     1      30.745 -21.957 -18.487  0.00  0.00    +0.292 HD
ENDBRANCH  22  27
ENDBRANCH  20  21
ENDBRANCH  18  20
ENDBRANCH   4  16
BRANCH   3  29
ATOM     29  C   UNL     1      38.174 -23.650 -12.963  0.00  0.00    +0.289 C 
BRANCH  29  30
ATOM     30  O   UNL     1      38.582 -25.014 -12.923  0.00  0.00    -0.330 OA
BRANCH  30  31
ATOM     31  C   UNL     1      38.639 -25.583 -14.225  0.00  0.00    +0.145 C 
ATOM     32  C   UNL     1      39.821 -24.998 -14.968  0.00  0.00    +0.035 C 
ENDBRANCH  30  31
ENDBRANCH  29  30
ENDBRANCH   3  29
TORSDOF 8
ENDMDL
MODEL 3
REMARK VINA RESULT:     -10.6      1.540      2.123
REMARK  Name = 4369443
REMARK  8 active torsions:
REMARK  status: ('A' for Active; 'I' for Inactive)
REMARK    1  A    between atoms: N_3  and  C_29
REMARK    2  A    between atoms: C_4  and  C_16
REMARK    3  A    between atoms: C_5  and  C_8
REMARK    4  A    between atoms: C_18  and  O_20
REMARK    5  A    between atoms: O_20  and  C_21
REMARK    6  A    between atoms: C_22  and  O_27
REMARK    7  A    between atoms: C_29  and  O_30
REMARK    8  A    between atoms: O_30  and  C_31
REMARK                            x       y       z     vdW  Elec       q    Type
REMARK                         _______ _______ _______ _____ _____    ______ ____
ROOT
ATOM      1  O   UNL     1      33.017 -23.479 -12.755  0.00  0.00    -0.331 OA
ATOM      2  O   UNL     1      34.307 -24.874 -11.452  0.00  0.00    -0.243 OA
ATOM      3  N   UNL     1      33.284 -22.825 -13.948  0.00  0.00    -0.158 N 
ATOM      4  C   UNL     1      34.588 -23.029 -14.316  0.00  0.00    +0.133 A 
ATOM      5  C   UNL     1      35.204 -23.857 -13.456  0.00  0.00    +0.099 A 
ATOM      6  C   UNL     1      34.167 -24.153 -12.425  0.00  0.00    +0.367 A 
ENDROOT
BRANCH   5   8
ATOM      7  F   UNL     1      40.459 -25.762 -13.388  0.00  0.00    -0.204 F 
ATOM      8  C   UNL     1      36.577 -24.355 -13.438  0.00  0.00    +0.008 C 
ATOM      9  C   UNL     1      36.961 -25.377 -14.307  0.00  0.00    +0.003 C 
ATOM     10  C   UNL     1      37.506 -23.807 -12.553  0.00  0.00    +0.003 C 
ATOM     11  C   UNL     1      38.272 -25.853 -14.289  0.00  0.00    +0.030 C 
ATOM     12  C   UNL     1      38.818 -24.283 -12.536  0.00  0.00    +0.030 C 
ATOM     13  C   UNL     1      39.200 -25.305 -13.404  0.00  0.00    +0.140 C 
ENDBRANCH   5   8
BRANCH   4  16
ATOM     14  N   UNL     1      34.546 -22.577 -16.667  0.00  0.00    -0.319 NA
ATOM     15  N   UNL     1      36.212 -21.198 -17.729  0.00  0.00    -0.151 NA
ATOM     16  C   UNL     1      35.177 -22.378 -15.487  0.00  0.00    +0.166 C 
ATOM     17  C   UNL     1      36.319 -21.608 -15.360  0.00  0.00    +0.056 C 
ATOM     18  C   UNL     1      35.107 -21.968 -17.728  0.00  0.00    +0.257 C 
ATOM     19  C   UNL     1      36.795 -21.038 -16.524  0.00  0.00    +0.116 C 
BRANCH  18  20
ATOM     20  O   UNL     1      34.486 -22.152 -18.943  0.00  0.00    -0.380 OA
BRANCH  20  21
ATOM     21  C   UNL     1      34.329 -21.040 -19.742  0.00  0.00    +0.194 C 
ATOM     22  C   UNL     1      33.056 -20.584 -20.051  0.00  0.00    +0.169 C 
ATOM     23  C   UNL     1      35.459 -20.399 -20.227  0.00  0.00    +0.042 C 
ATOM     24  C   UNL     1      32.910 -19.459 -20.863  0.00  0.00    +0.040 C 
ATOM     25  C   UNL     1      35.312 -19.273 -21.038  0.00  0.00    +0.003 C 
ATOM     26  C   UNL     1      34.038 -18.803 -21.356  0.00  0.00    +0.003 C 
BRANCH  22  27
ATOM     27  O   UNL     1      31.946 -21.216 -19.577  0.00  0.00    -0.503 OA
ATOM     28  H   UNL     1      31.130 -21.133 -20.030  0.00  0.00    +0.292 HD
ENDBRANCH  22  27
ENDBRANCH  20  21
ENDBRANCH  18  20
ENDBRANCH   4  16
BRANCH   3  29
ATOM     29  C   UNL     1      32.350 -21.797 -14.318  0.00  0.00    +0.289 C 
BRANCH  29  30
ATOM     30  O   UNL     1      31.029 -22.172 -13.939  0.00  0.00    -0.330 OA
BRANCH  30  31
ATOM     31  C   UNL     1      30.380 -22.914 -14.963  0.00  0.00    +0.145 C 
ATOM     32  C   UNL     1      30.892 -22.449 -16.310  0.00  0.00    +0.035 C 
ENDBRANCH  30  31
ENDBRANCH  29  30
ENDBRANCH   3  29
TORSDOF 8
ENDMDL
MODEL 4
REMARK VINA RESULT:     -10.6      2.928      5.133
REMARK  Name = 4369443
REMARK  8 active torsions:
REMARK  status: ('A' for Active; 'I' for Inactive)
REMARK    1  A    between atoms: N_3  and  C_29
REMARK    2  A    between atoms: C_4  and  C_16
REMARK    3  A    between atoms: C_5  and  C_8
REMARK    4  A    between atoms: C_18  and  O_20
REMARK    5  A    between atoms: O_20  and  C_21
REMARK    6  A    between atoms: C_22  and  O_27
REMARK    7  A    between atoms: C_29  and  O_30
REMARK    8  A    between atoms: O_30  and  C_31
REMARK                            x       y       z     vdW  Elec       q    Type
REMARK                         _______ _______ _______ _____ _____    ______ ____
ROOT
ATOM      1  O   UNL     1      35.724 -23.198 -13.262  0.00  0.00    -0.331 OA
ATOM      2  O   UNL     1      33.973 -23.775 -11.881  0.00  0.00    -0.243 OA
ATOM      3  N   UNL     1      35.757 -22.798 -14.590  0.00  0.00    -0.158 N 
ATOM      4  C   UNL     1      34.499 -22.851 -15.130  0.00  0.00    +0.133 A 
ATOM      5  C   UNL     1      33.595 -23.206 -14.202  0.00  0.00    +0.099 A 
ATOM      6  C   UNL     1      34.403 -23.436 -12.970  0.00  0.00    +0.367 A 
ENDROOT
BRANCH   5   8
ATOM      7  F   UNL     1      28.066 -23.925 -14.615  0.00  0.00    -0.204 F 
ATOM      8  C   UNL     1      32.149 -23.394 -14.310  0.00  0.00    +0.008 C 
ATOM      9  C   UNL     1      31.319 -22.298 -14.544  0.00  0.00    +0.003 C 
ATOM     10  C   UNL     1      31.601 -24.669 -14.180  0.00  0.00    +0.003 C 
ATOM     11  C   UNL     1      29.939 -22.477 -14.646  0.00  0.00    +0.030 C 
ATOM     12  C   UNL     1      30.221 -24.849 -14.282  0.00  0.00    +0.030 C 
ATOM     13  C   UNL     1      29.391 -23.753 -14.516  0.00  0.00    +0.140 C 
ENDBRANCH   5   8
BRANCH   4  16
ATOM     14  N   UNL     1      35.090 -21.703 -17.147  0.00  0.00    -0.319 NA
ATOM     15  N   UNL     1      33.848 -21.997 -19.190  0.00  0.00    -0.151 NA
ATOM     16  C   UNL     1      34.247 -22.573 -16.545  0.00  0.00    +0.166 C 
ATOM     17  C   UNL     1      33.195 -23.185 -17.202  0.00  0.00    +0.056 C 
ATOM     18  C   UNL     1      34.837 -21.465 -18.447  0.00  0.00    +0.257 C 
ATOM     19  C   UNL     1      33.043 -22.857 -18.534  0.00  0.00    +0.116 C 
BRANCH  18  20
ATOM     20  O   UNL     1      35.679 -20.583 -19.086  0.00  0.00    -0.380 OA
BRANCH  20  21
ATOM     21  C   UNL     1      35.147 -19.849 -20.125  0.00  0.00    +0.194 C 
ATOM     22  C   UNL     1      35.874 -18.807 -20.679  0.00  0.00    +0.169 C 
ATOM     23  C   UNL     1      33.883 -20.173 -20.595  0.00  0.00    +0.042 C 
ATOM     24  C   UNL     1      35.326 -18.071 -21.729  0.00  0.00    +0.040 C 
ATOM     25  C   UNL     1      33.335 -19.437 -21.646  0.00  0.00    +0.003 C 
ATOM     26  C   UNL     1      34.056 -18.386 -22.213  0.00  0.00    +0.003 C 
BRANCH  22  27
ATOM     27  O   UNL     1      37.115 -18.488 -20.215  0.00  0.00    -0.503 OA
ATOM     28  H   UNL     1      37.510 -19.005 -19.540  0.00  0.00    +0.292 HD
ENDBRANCH  22  27
ENDBRANCH  20  21
ENDBRANCH  18  20
ENDBRANCH   4  16
BRANCH   3  29
ATOM     29  C   UNL     1      37.052 -22.812 -15.213  0.00  0.00    +0.289 C 
BRANCH  29  30
ATOM     30  O   UNL     1      38.029 -23.318 -14.308  0.00  0.00    -0.330 OA
BRANCH  30  31
ATOM     31  C   UNL     1      38.374 -24.664 -14.607  0.00  0.00    +0.145 C 
ATOM     32  C   UNL     1      39.880 -24.809 -14.563  0.00  0.00    +0.035 C 
ENDBRANCH  30  31
ENDBRANCH  29  30
ENDBRANCH   3  29
TORSDOF 8
ENDMDL
MODEL 5
REMARK VINA RESULT:     -10.3     12.040     16.937
REMARK  Name = 4369443
REMARK  8 active torsions:
REMARK  status: ('A' for Active; 'I' for Inactive)
REMARK    1  A    between atoms: N_3  and  C_29
REMARK    2  A    between atoms: C_4  and  C_16
REMARK    3  A    between atoms: C_5  and  C_8
REMARK    4  A    between atoms: C_18  and  O_20
REMARK    5  A    between atoms: O_20  and  C_21
REMARK    6  A    between atoms: C_22  and  O_27
REMARK    7  A    between atoms: C_29  and  O_30
REMARK    8  A    between atoms: O_30  and  C_31
REMARK                            x       y       z     vdW  Elec       q    Type
REMARK                         _______ _______ _______ _____ _____    ______ ____
ROOT
ATOM      1  O   UNL     1      31.199  -5.594 -21.155  0.00  0.00    -0.331 OA
ATOM      2  O   UNL     1      31.349  -3.720 -22.486  0.00  0.00    -0.243 OA
ATOM      3  N   UNL     1      31.725  -6.870 -21.298  0.00  0.00    -0.158 N 
ATOM      4  C   UNL     1      32.371  -6.981 -22.501  0.00  0.00    +0.133 A 
ATOM      5  C   UNL     1      32.368  -5.809 -23.156  0.00  0.00    +0.099 A 
ATOM      6  C   UNL     1      31.593  -4.894 -22.269  0.00  0.00    +0.367 A 
ENDROOT
BRANCH   5   8
ATOM      7  F   UNL     1      34.501  -4.435 -28.138  0.00  0.00    -0.204 F 
ATOM      8  C   UNL     1      32.925  -5.449 -24.458  0.00  0.00    +0.008 C 
ATOM      9  C   UNL     1      34.127  -4.745 -24.533  0.00  0.00    +0.003 C 
ATOM     10  C   UNL     1      32.256  -5.812 -25.627  0.00  0.00    +0.003 C 
ATOM     11  C   UNL     1      34.659  -4.402 -25.776  0.00  0.00    +0.030 C 
ATOM     12  C   UNL     1      32.788  -5.469 -26.871  0.00  0.00    +0.030 C 
ATOM     13  C   UNL     1      33.990  -4.764 -26.944  0.00  0.00    +0.140 C 
ENDBRANCH   5   8
BRANCH   4  16
ATOM     14  N   UNL     1      32.201  -9.358 -22.745  0.00  0.00    -0.319 NA
ATOM     15  N   UNL     1      33.938 -10.657 -23.793  0.00  0.00    -0.151 NA
ATOM     16  C   UNL     1      32.943  -8.247 -22.962  0.00  0.00    +0.166 C 
ATOM     17  C   UNL     1      34.179  -8.272 -23.583  0.00  0.00    +0.056 C 
ATOM     18  C   UNL     1      32.749 -10.508 -23.178  0.00  0.00    +0.257 C 
ATOM     19  C   UNL     1      34.629  -9.515 -23.981  0.00  0.00    +0.116 C 
BRANCH  18  20
ATOM     20  O   UNL     1      32.017 -11.655 -22.970  0.00  0.00    -0.380 OA
BRANCH  20  21
ATOM     21  C   UNL     1      32.718 -12.797 -22.645  0.00  0.00    +0.194 C 
ATOM     22  C   UNL     1      33.063 -13.702 -23.637  0.00  0.00    +0.169 C 
ATOM     23  C   UNL     1      33.063 -13.017 -21.320  0.00  0.00    +0.042 C 
ATOM     24  C   UNL     1      33.771 -14.855 -23.296  0.00  0.00    +0.040 C 
ATOM     25  C   UNL     1      33.771 -14.169 -20.979  0.00  0.00    +0.003 C 
ATOM     26  C   UNL     1      34.125 -15.088 -21.967  0.00  0.00    +0.003 C 
BRANCH  22  27
ATOM     27  O   UNL     1      32.723 -13.486 -24.938  0.00  0.00    -0.503 OA
ATOM     28  H   UNL     1      31.821 -13.498 -25.195  0.00  0.00    +0.292 HD
ENDBRANCH  22  27
ENDBRANCH  20  21
ENDBRANCH  18  20
ENDBRANCH   4  16
BRANCH   3  29
ATOM     29  C   UNL     1      31.175  -7.872 -20.426  0.00  0.00    +0.289 C 
BRANCH  29  30
ATOM     30  O   UNL     1      31.969  -7.989 -19.249  0.00  0.00    -0.330 OA
BRANCH  30  31
ATOM     31  C   UNL     1      31.889  -9.293 -18.690  0.00  0.00    +0.145 C 
ATOM     32  C   UNL     1      31.169 -10.204 -19.661  0.00  0.00    +0.035 C 
ENDBRANCH  30  31
ENDBRANCH  29  30
ENDBRANCH   3  29
TORSDOF 8
ENDMDL
MODEL 6
REMARK VINA RESULT:      -9.9      1.866      2.561
REMARK  Name = 4369443
REMARK  8 active torsions:
REMARK  status: ('A' for Active; 'I' for Inactive)
REMARK    1  A    between atoms: N_3  and  C_29
REMARK    2  A    between atoms: C_4  and  C_16
REMARK    3  A    between atoms: C_5  and  C_8
REMARK    4  A    between atoms: C_18  and  O_20
REMARK    5  A    between atoms: O_20  and  C_21
REMARK    6  A    between atoms: C_22  and  O_27
REMARK    7  A    between atoms: C_29  and  O_30
REMARK    8  A    between atoms: O_30  and  C_31
REMARK                            x       y       z     vdW  Elec       q    Type
REMARK                         _______ _______ _______ _____ _____    ______ ____
ROOT
ATOM      1  O   UNL     1      32.410 -23.166 -13.444  0.00  0.00    -0.331 OA
ATOM      2  O   UNL     1      34.174 -23.850 -12.127  0.00  0.00    -0.243 OA
ATOM      3  N   UNL     1      32.307 -22.965 -14.812  0.00  0.00    -0.158 N 
ATOM      4  C   UNL     1      33.525 -23.151 -15.410  0.00  0.00    +0.133 A 
ATOM      5  C   UNL     1      34.444 -23.541 -14.512  0.00  0.00    +0.099 A 
ATOM      6  C   UNL     1      33.709 -23.550 -13.213  0.00  0.00    +0.367 A 
ENDROOT
BRANCH   5   8
ATOM      7  F   UNL     1      39.868 -24.732 -15.157  0.00  0.00    -0.204 F 
ATOM      8  C   UNL     1      35.862 -23.853 -14.680  0.00  0.00    +0.008 C 
ATOM      9  C   UNL     1      36.309 -25.167 -14.545  0.00  0.00    +0.003 C 
ATOM     10  C   UNL     1      36.769 -22.835 -14.977  0.00  0.00    +0.003 C 
ATOM     11  C   UNL     1      37.662 -25.464 -14.706  0.00  0.00    +0.030 C 
ATOM     12  C   UNL     1      38.122 -23.132 -15.138  0.00  0.00    +0.030 C 
ATOM     13  C   UNL     1      38.568 -24.447 -15.003  0.00  0.00    +0.140 C 
ENDBRANCH   5   8
BRANCH   4  16
ATOM     14  N   UNL     1      34.502 -21.846 -17.165  0.00  0.00    -0.319 NA
ATOM     15  N   UNL     1      34.179 -22.393 -19.489  0.00  0.00    -0.151 NA
ATOM     16  C   UNL     1      33.735 -22.912 -16.839  0.00  0.00    +0.166 C 
ATOM     17  C   UNL     1      33.165 -23.750 -17.780  0.00  0.00    +0.056 C 
ATOM     18  C   UNL     1      34.680 -21.649 -18.484  0.00  0.00    +0.257 C 
ATOM     19  C   UNL     1      33.423 -23.440 -19.099  0.00  0.00    +0.116 C 
BRANCH  18  20
ATOM     20  O   UNL     1      35.456 -20.571 -18.846  0.00  0.00    -0.380 OA
BRANCH  20  21
ATOM     21  C   UNL     1      35.072 -19.870 -19.968  0.00  0.00    +0.194 C 
ATOM     22  C   UNL     1      35.914 -18.909 -20.506  0.00  0.00    +0.169 C 
ATOM     23  C   UNL     1      33.837 -20.143 -20.539  0.00  0.00    +0.042 C 
ATOM     24  C   UNL     1      35.514 -18.205 -21.642  0.00  0.00    +0.040 C 
ATOM     25  C   UNL     1      33.437 -19.438 -21.675  0.00  0.00    +0.003 C 
ATOM     26  C   UNL     1      34.276 -18.469 -22.226  0.00  0.00    +0.003 C 
BRANCH  22  27
ATOM     27  O   UNL     1      37.126 -18.640 -19.944  0.00  0.00    -0.503 OA
ATOM     28  H   UNL     1      37.828 -18.318 -20.475  0.00  0.00    +0.292 HD
ENDBRANCH  22  27
ENDBRANCH  20  21
ENDBRANCH  18  20
ENDBRANCH   4  16
BRANCH   3  29
ATOM     29  C   UNL     1      31.141 -22.245 -15.249  0.00  0.00    +0.289 C 
BRANCH  29  30
ATOM     30  O   UNL     1      29.990 -22.698 -14.545  0.00  0.00    -0.330 OA
BRANCH  30  31
ATOM     31  C   UNL     1      29.337 -23.757 -15.233  0.00  0.00    +0.145 C 
ATOM     32  C   UNL     1      29.351 -24.995 -14.361  0.00  0.00    +0.035 C 
ENDBRANCH  30  31
ENDBRANCH  29  30
ENDBRANCH   3  29
TORSDOF 8
ENDMDL
MODEL 7
REMARK VINA RESULT:      -9.8      2.591      7.235
REMARK  Name = 4369443
REMARK  8 active torsions:
REMARK  status: ('A' for Active; 'I' for Inactive)
REMARK    1  A    between atoms: N_3  and  C_29
REMARK    2  A    between atoms: C_4  and  C_16
REMARK    3  A    between atoms: C_5  and  C_8
REMARK    4  A    between atoms: C_18  and  O_20
REMARK    5  A    between atoms: O_20  and  C_21
REMARK    6  A    between atoms: C_22  and  O_27
REMARK    7  A    between atoms: C_29  and  O_30
REMARK    8  A    between atoms: O_30  and  C_31
REMARK                            x       y       z     vdW  Elec       q    Type
REMARK                         _______ _______ _______ _____ _____    ______ ____
ROOT
ATOM      1  O   UNL     1      34.015 -20.747 -20.338  0.00  0.00    -0.331 OA
ATOM      2  O   UNL     1      31.798 -21.286 -20.015  0.00  0.00    -0.243 OA
ATOM      3  N   UNL     1      35.129 -20.910 -19.529  0.00  0.00    -0.158 N 
ATOM      4  C   UNL     1      34.758 -21.417 -18.312  0.00  0.00    +0.133 A 
ATOM      5  C   UNL     1      33.440 -21.673 -18.281  0.00  0.00    +0.099 A 
ATOM      6  C   UNL     1      32.949 -21.230 -19.618  0.00  0.00    +0.367 A 
ENDROOT
BRANCH   5   8
ATOM      7  F   UNL     1      30.236 -23.728 -14.187  0.00  0.00    -0.204 F 
ATOM      8  C   UNL     1      32.603 -22.211 -17.211  0.00  0.00    +0.008 C 
ATOM      9  C   UNL     1      33.179 -22.953 -16.179  0.00  0.00    +0.003 C 
ATOM     10  C   UNL     1      31.228 -21.981 -17.220  0.00  0.00    +0.003 C 
ATOM     11  C   UNL     1      32.379 -23.466 -15.158  0.00  0.00    +0.030 C 
ATOM     12  C   UNL     1      30.427 -22.494 -16.199  0.00  0.00    +0.030 C 
ATOM     13  C   UNL     1      31.004 -23.236 -15.168  0.00  0.00    +0.140 C 
ENDBRANCH   5   8
BRANCH   4  16
ATOM     14  N   UNL     1      35.635 -22.770 -16.540  0.00  0.00    -0.319 NA
ATOM     15  N   UNL     1      37.474 -22.035 -15.168  0.00  0.00    -0.151 NA
ATOM     16  C   UNL     1      35.718 -21.604 -17.222  0.00  0.00    +0.166 C 
ATOM     17  C   UNL     1      36.646 -20.621 -16.930  0.00  0.00    +0.056 C 
ATOM     18  C   UNL     1      36.528 -22.917 -15.544  0.00  0.00    +0.257 C 
ATOM     19  C   UNL     1      37.505 -20.894 -15.885  0.00  0.00    +0.116 C 
BRANCH  18  20
ATOM     20  O   UNL     1      36.468 -24.094 -14.832  0.00  0.00    -0.380 OA
BRANCH  20  21
ATOM     21  C   UNL     1      36.306 -23.994 -13.467  0.00  0.00    +0.194 C 
ATOM     22  C   UNL     1      37.416 -24.017 -12.636  0.00  0.00    +0.169 C 
ATOM     23  C   UNL     1      35.024 -23.875 -12.951  0.00  0.00    +0.042 C 
ATOM     24  C   UNL     1      37.240 -23.916 -11.256  0.00  0.00    +0.040 C 
ATOM     25  C   UNL     1      34.849 -23.775 -11.571  0.00  0.00    +0.003 C 
ATOM     26  C   UNL     1      35.956 -23.795 -10.723  0.00  0.00    +0.003 C 
BRANCH  22  27
ATOM     27  O   UNL     1      38.675 -24.136 -13.143  0.00  0.00    -0.503 OA
ATOM     28  H   UNL     1      39.126 -23.377 -13.459  0.00  0.00    +0.292 HD
ENDBRANCH  22  27
ENDBRANCH  20  21
ENDBRANCH  18  20
ENDBRANCH   4  16
BRANCH   3  29
ATOM     29  C   UNL     1      36.302 -20.182 -19.930  0.00  0.00    +0.289 C 
BRANCH  29  30
ATOM     30  O   UNL     1      35.980 -18.811 -20.147  0.00  0.00    -0.330 OA
BRANCH  30  31
ATOM     31  C   UNL     1      36.457 -18.353 -21.404  0.00  0.00    +0.145 C 
ATOM     32  C   UNL     1      35.339 -17.628 -22.123  0.00  0.00    +0.035 C 
ENDBRANCH  30  31
ENDBRANCH  29  30
ENDBRANCH   3  29
TORSDOF 8
ENDMDL
MODEL 8
REMARK VINA RESULT:      -9.7     13.184     18.193
REMARK  Name = 4369443
REMARK  8 active torsions:
REMARK  status: ('A' for Active; 'I' for Inactive)
REMARK    1  A    between atoms: N_3  and  C_29
REMARK    2  A    between atoms: C_4  and  C_16
REMARK    3  A    between atoms: C_5  and  C_8
REMARK    4  A    between atoms: C_18  and  O_20
REMARK    5  A    between atoms: O_20  and  C_21
REMARK    6  A    between atoms: C_22  and  O_27
REMARK    7  A    between atoms: C_29  and  O_30
REMARK    8  A    between atoms: O_30  and  C_31
REMARK                            x       y       z     vdW  Elec       q    Type
REMARK                         _______ _______ _______ _____ _____    ______ ____
ROOT
ATOM      1  O   UNL     1      31.216  -3.822 -22.571  0.00  0.00    -0.331 OA
ATOM      2  O   UNL     1      31.687  -2.405 -24.326  0.00  0.00    -0.243 OA
ATOM      3  N   UNL     1      31.625  -5.119 -22.300  0.00  0.00    -0.158 N 
ATOM      4  C   UNL     1      32.377  -5.604 -23.338  0.00  0.00    +0.133 A 
ATOM      5  C   UNL     1      32.557  -4.663 -24.278  0.00  0.00    +0.099 A 
ATOM      6  C   UNL     1      31.790  -3.487 -23.774  0.00  0.00    +0.367 A 
ENDROOT
BRANCH   5   8
ATOM      7  F   UNL     1      35.314  -4.872 -29.137  0.00  0.00    -0.204 F 
ATOM      8  C   UNL     1      33.278  -4.717 -25.549  0.00  0.00    +0.008 C 
ATOM      9  C   UNL     1      34.567  -4.194 -25.642  0.00  0.00    +0.003 C 
ATOM     10  C   UNL     1      32.676  -5.294 -26.667  0.00  0.00    +0.003 C 
ATOM     11  C   UNL     1      35.255  -4.245 -26.855  0.00  0.00    +0.030 C 
ATOM     12  C   UNL     1      33.364  -5.346 -27.880  0.00  0.00    +0.030 C 
ATOM     13  C   UNL     1      34.653  -4.822 -27.973  0.00  0.00    +0.140 C 
ENDBRANCH   5   8
BRANCH   4  16
ATOM     14  N   UNL     1      31.937  -7.954 -23.197  0.00  0.00    -0.319 NA
ATOM     15  N   UNL     1      33.691  -9.592 -23.409  0.00  0.00    -0.151 NA
ATOM     16  C   UNL     1      32.864  -6.984 -23.367  0.00  0.00    +0.166 C 
ATOM     17  C   UNL     1      34.208  -7.247 -23.561  0.00  0.00    +0.056 C 
ATOM     18  C   UNL     1      32.411  -9.213 -23.228  0.00  0.00    +0.257 C 
ATOM     19  C   UNL     1      34.566  -8.580 -23.572  0.00  0.00    +0.116 C 
BRANCH  18  20
ATOM     20  O   UNL     1      31.490 -10.222 -23.057  0.00  0.00    -0.380 OA
BRANCH  20  21
ATOM     21  C   UNL     1      31.906 -11.343 -22.372  0.00  0.00    +0.194 C 
ATOM     22  C   UNL     1      32.594 -12.346 -23.039  0.00  0.00    +0.169 C 
ATOM     23  C   UNL     1      31.623 -11.444 -21.018  0.00  0.00    +0.042 C 
ATOM     24  C   UNL     1      33.009 -13.476 -22.335  0.00  0.00    +0.040 C 
ATOM     25  C   UNL     1      32.039 -12.574 -20.314  0.00  0.00    +0.003 C 
ATOM     26  C   UNL     1      32.732 -13.590 -20.973  0.00  0.00    +0.003 C 
BRANCH  22  27
ATOM     27  O   UNL     1      32.870 -12.247 -24.369  0.00  0.00    -0.503 OA
ATOM     28  H   UNL     1      33.757 -12.162 -24.659  0.00  0.00    +0.292 HD
ENDBRANCH  22  27
ENDBRANCH  20  21
ENDBRANCH  18  20
ENDBRANCH   4  16
BRANCH   3  29
ATOM     29  C   UNL     1      30.892  -5.801 -21.267  0.00  0.00    +0.289 C 
BRANCH  29  30
ATOM     30  O   UNL     1      31.578  -5.692 -20.024  0.00  0.00    -0.330 OA
BRANCH  30  31
ATOM     31  C   UNL     1      32.422  -6.811 -19.790  0.00  0.00    +0.145 C 
ATOM     32  C   UNL     1      31.565  -8.046 -19.605  0.00  0.00    +0.035 C 
ENDBRANCH  30  31
ENDBRANCH  29  30
ENDBRANCH   3  29
TORSDOF 8
ENDMDL
MODEL 9
REMARK VINA RESULT:      -9.5     13.422     17.357
REMARK  Name = 4369443
REMARK  8 active torsions:
REMARK  status: ('A' for Active; 'I' for Inactive)
REMARK    1  A    between atoms: N_3  and  C_29
REMARK    2  A    between atoms: C_4  and  C_16
REMARK    3  A    between atoms: C_5  and  C_8
REMARK    4  A    between atoms: C_18  and  O_20
REMARK    5  A    between atoms: O_20  and  C_21
REMARK    6  A    between atoms: C_22  and  O_27
REMARK    7  A    between atoms: C_29  and  O_30
REMARK    8  A    between atoms: O_30  and  C_31
REMARK                            x       y       z     vdW  Elec       q    Type
REMARK                         _______ _______ _______ _____ _____    ______ ____
ROOT
ATOM      1  O   UNL     1      31.541  -6.999 -19.247  0.00  0.00    -0.331 OA
ATOM      2  O   UNL     1      31.891  -9.179 -18.589  0.00  0.00    -0.243 OA
ATOM      3  N   UNL     1      31.332  -6.436 -20.497  0.00  0.00    -0.158 N 
ATOM      4  C   UNL     1      31.440  -7.395 -21.469  0.00  0.00    +0.133 A 
ATOM      5  C   UNL     1      31.647  -8.606 -20.927  0.00  0.00    +0.099 A 
ATOM      6  C   UNL     1      31.715  -8.345 -19.460  0.00  0.00    +0.367 A 
ENDROOT
BRANCH   5   8
ATOM      7  F   UNL     1      32.327 -13.599 -23.347  0.00  0.00    -0.204 F 
ATOM      8  C   UNL     1      31.824  -9.911 -21.560  0.00  0.00    +0.008 C 
ATOM      9  C   UNL     1      32.522 -10.014 -22.764  0.00  0.00    +0.003 C 
ATOM     10  C   UNL     1      31.298 -11.054 -20.960  0.00  0.00    +0.003 C 
ATOM     11  C   UNL     1      32.691 -11.260 -23.368  0.00  0.00    +0.030 C 
ATOM     12  C   UNL     1      31.467 -12.301 -21.563  0.00  0.00    +0.030 C 
ATOM     13  C   UNL     1      32.164 -12.403 -22.767  0.00  0.00    +0.140 C 
ENDBRANCH   5   8
BRANCH   4  16
ATOM     14  N   UNL     1      32.506  -6.657 -23.484  0.00  0.00    -0.319 NA
ATOM     15  N   UNL     1      31.298  -6.441 -25.557  0.00  0.00    -0.151 NA
ATOM     16  C   UNL     1      31.360  -7.070 -22.895  0.00  0.00    +0.166 C 
ATOM     17  C   UNL     1      30.160  -7.188 -23.573  0.00  0.00    +0.056 C 
ATOM     18  C   UNL     1      32.405  -6.365 -24.793  0.00  0.00    +0.257 C 
ATOM     19  C   UNL     1      30.190  -6.858 -24.913  0.00  0.00    +0.116 C 
BRANCH  18  20
ATOM     20  O   UNL     1      33.556  -5.942 -25.420  0.00  0.00    -0.380 OA
BRANCH  20  21
ATOM     21  C   UNL     1      33.493  -4.750 -26.110  0.00  0.00    +0.194 C 
ATOM     22  C   UNL     1      33.237  -4.753 -27.473  0.00  0.00    +0.169 C 
ATOM     23  C   UNL     1      33.692  -3.565 -25.419  0.00  0.00    +0.042 C 
ATOM     24  C   UNL     1      33.177  -3.541 -28.161  0.00  0.00    +0.040 C 
ATOM     25  C   UNL     1      33.632  -2.352 -26.107  0.00  0.00    +0.003 C 
ATOM     26  C   UNL     1      33.374  -2.341 -27.478  0.00  0.00    +0.003 C 
BRANCH  22  27
ATOM     27  O   UNL     1      33.043  -5.918 -28.151  0.00  0.00    -0.503 OA
ATOM     28  H   UNL     1      33.732  -6.274 -28.678  0.00  0.00    +0.292 HD
ENDBRANCH  22  27
ENDBRANCH  20  21
ENDBRANCH  18  20
ENDBRANCH   4  16
BRANCH   3  29
ATOM     29  C   UNL     1      31.454  -5.005 -20.565  0.00  0.00    +0.289 C 
BRANCH  29  30
ATOM     30  O   UNL     1      30.170  -4.408 -20.717  0.00  0.00    -0.330 OA
BRANCH  30  31
ATOM     31  C   UNL     1      30.024  -3.795 -21.991  0.00  0.00    +0.145 C 
ATOM     32  C   UNL     1      31.386  -3.356 -22.487  0.00  0.00    +0.035 C 
ENDBRANCH  30  31
ENDBRANCH  29  30
ENDBRANCH   3  29
TORSDOF 8
ENDMDL
