MODEL 1
REMARK VINA RESULT:     -12.8      0.000      0.000
REMARK  Name = 12087505
REMARK  3 active torsions:
REMARK  status: ('A' for Active; 'I' for Inactive)
REMARK    1  A    between atoms: C_1  and  S_18
REMARK    2  A    between atoms: C_4  and  N_9
REMARK    3  A    between atoms: S_18  and  N_21
REMARK                            x       y       z     vdW  Elec       q    Type
REMARK                         _______ _______ _______ _____ _____    ______ ____
ROOT
ATOM      1  C   UNL     1      34.637 -19.520 -21.039  0.00  0.00    +0.123 C 
ATOM      2  C   UNL     1      35.421 -20.124 -20.070  0.00  0.00    +0.035 C 
ATOM      3  C   UNL     1      33.256 -19.614 -21.011  0.00  0.00    +0.020 C 
ATOM      4  C   UNL     1      34.806 -20.842 -19.044  0.00  0.00    +0.053 C 
ATOM      5  C   UNL     1      32.640 -20.331 -19.985  0.00  0.00    +0.003 C 
ATOM      6  C   UNL     1      33.416 -20.945 -19.001  0.00  0.00    +0.015 C 
ENDROOT
BRANCH   4   9
ATOM      7  S   UNL     1      37.787 -23.747 -14.374  0.00  0.00    -0.051 S 
ATOM      8  O   UNL     1      33.980 -22.342 -16.601  0.00  0.00    -0.252 OA
ATOM      9  N   UNL     1      35.581 -21.456 -18.060  0.00  0.00    -0.268 N 
ATOM     10  N   UNL     1      36.271 -22.616 -16.188  0.00  0.00    -0.248 N 
ATOM     11  N   UNL     1      35.202 -23.742 -14.346  0.00  0.00    -0.222 NA
ATOM     12  C   UNL     1      35.154 -22.163 -16.908  0.00  0.00    +0.310 C 
ATOM     13  C   UNL     1      36.252 -23.348 -14.999  0.00  0.00    +0.167 C 
ATOM     14  C   UNL     1      36.997 -24.541 -13.075  0.00  0.00    +0.059 C 
ATOM     15  C   UNL     1      35.630 -24.434 -13.230  0.00  0.00    +0.108 C 
ATOM     16  H   UNL     1      36.556 -21.388 -18.181  0.00  0.00    +0.156 HD
ATOM     17  H   UNL     1      37.156 -22.394 -16.558  0.00  0.00    +0.158 HD
ENDBRANCH   4   9
BRANCH   1  18
ATOM     18  S   UNL     1      35.416 -18.614 -22.339  0.00  0.00    +0.063 S 
ATOM     19  O   UNL     1      36.773 -18.327 -21.928  0.00  0.00    -0.153 OA
ATOM     20  O   UNL     1      35.141 -19.297 -23.585  0.00  0.00    -0.153 OA
BRANCH  18  21
ATOM     21  N   UNL     1      34.499 -17.168 -22.283  0.00  0.00    -0.152 NA
ATOM     22  N   UNL     1      33.522 -14.505 -22.276  0.00  0.00    -0.290 N 
ATOM     23  C   UNL     1      34.782 -16.276 -21.123  0.00  0.00    +0.117 C 
ATOM     24  C   UNL     1      34.448 -16.392 -23.554  0.00  0.00    +0.117 C 
ATOM     25  C   UNL     1      33.679 -15.228 -21.007  0.00  0.00    +0.111 C 
ATOM     26  C   UNL     1      33.343 -15.342 -23.469  0.00  0.00    +0.111 C 
ATOM     27  N   UNL     1      32.035 -12.924 -21.262  0.00  0.00    -0.229 NA
ATOM     28  C   UNL     1      32.949 -13.229 -22.233  0.00  0.00    +0.132 C 
ATOM     29  C   UNL     1      33.333 -12.292 -23.200  0.00  0.00    +0.034 C 
ATOM     30  C   UNL     1      32.772 -11.020 -23.171  0.00  0.00    +0.004 C 
ATOM     31  C   UNL     1      31.512 -11.677 -21.265  0.00  0.00    +0.100 C 
ATOM     32  C   UNL     1      31.844 -10.698 -22.188  0.00  0.00    +0.021 C 
ENDBRANCH  18  21
ENDBRANCH   1  18
TORSDOF 3
ENDMDL
MODEL 2
REMARK VINA RESULT:     -12.3      2.346     10.725
REMARK  Name = 12087505
REMARK  3 active torsions:
REMARK  status: ('A' for Active; 'I' for Inactive)
REMARK    1  A    between atoms: C_1  and  S_18
REMARK    2  A    between atoms: C_4  and  N_9
REMARK    3  A    between atoms: S_18  and  N_21
REMARK                            x       y       z     vdW  Elec       q    Type
REMARK                         _______ _______ _______ _____ _____    ______ ____
ROOT
ATOM      1  C   UNL     1      34.364 -20.817 -19.550  0.00  0.00    +0.123 C 
ATOM      2  C   UNL     1      33.941 -19.835 -20.431  0.00  0.00    +0.035 C 
ATOM      3  C   UNL     1      35.696 -20.942 -19.194  0.00  0.00    +0.020 C 
ATOM      4  C   UNL     1      34.878 -18.953 -20.971  0.00  0.00    +0.053 C 
ATOM      5  C   UNL     1      36.633 -20.060 -19.733  0.00  0.00    +0.003 C 
ATOM      6  C   UNL     1      36.223 -19.066 -20.621  0.00  0.00    +0.015 C 
ENDROOT
BRANCH   4   9
ATOM      7  S   UNL     1      33.120 -14.113 -24.522  0.00  0.00    -0.051 S 
ATOM      8  O   UNL     1      34.597 -16.011 -20.567  0.00  0.00    -0.252 OA
ATOM      9  N   UNL     1      34.468 -17.958 -21.859  0.00  0.00    -0.268 N 
ATOM     10  N   UNL     1      33.899 -15.931 -22.803  0.00  0.00    -0.248 N 
ATOM     11  N   UNL     1      33.806 -13.637 -22.076  0.00  0.00    -0.222 NA
ATOM     12  C   UNL     1      34.346 -16.565 -21.633  0.00  0.00    +0.310 C 
ATOM     13  C   UNL     1      33.659 -14.566 -22.970  0.00  0.00    +0.167 C 
ATOM     14  C   UNL     1      33.065 -12.488 -23.975  0.00  0.00    +0.059 C 
ATOM     15  C   UNL     1      33.462 -12.431 -22.655  0.00  0.00    +0.108 C 
ATOM     16  H   UNL     1      34.231 -18.266 -22.764  0.00  0.00    +0.156 HD
ATOM     17  H   UNL     1      33.738 -16.509 -23.585  0.00  0.00    +0.158 HD
ENDBRANCH   4   9
BRANCH   1  18
ATOM     18  S   UNL     1      33.179 -21.935 -18.868  0.00  0.00    +0.063 S 
ATOM     19  O   UNL     1      31.906 -21.248 -18.807  0.00  0.00    -0.153 OA
ATOM     20  O   UNL     1      33.313 -23.200 -19.557  0.00  0.00    -0.153 OA
BRANCH  18  21
ATOM     21  N   UNL     1      33.802 -22.096 -17.281  0.00  0.00    -0.152 NA
ATOM     22  N   UNL     1      35.035 -22.902 -14.857  0.00  0.00    -0.290 N 
ATOM     23  C   UNL     1      33.191 -23.181 -16.461  0.00  0.00    +0.117 C 
ATOM     24  C   UNL     1      35.287 -22.119 -17.175  0.00  0.00    +0.117 C 
ATOM     25  C   UNL     1      33.575 -22.990 -14.997  0.00  0.00    +0.111 C 
ATOM     26  C   UNL     1      35.701 -21.918 -15.720  0.00  0.00    +0.111 C 
ATOM     27  N   UNL     1      34.873 -23.004 -12.469  0.00  0.00    -0.229 NA
ATOM     28  C   UNL     1      35.591 -23.221 -13.613  0.00  0.00    +0.132 C 
ATOM     29  C   UNL     1      36.884 -23.759 -13.578  0.00  0.00    +0.034 C 
ATOM     30  C   UNL     1      37.449 -24.080 -12.348  0.00  0.00    +0.004 C 
ATOM     31  C   UNL     1      35.455 -23.329 -11.293  0.00  0.00    +0.100 C 
ATOM     32  C   UNL     1      36.729 -23.865 -11.180  0.00  0.00    +0.021 C 
ENDBRANCH  18  21
ENDBRANCH   1  18
TORSDOF 3
ENDMDL
MODEL 3
REMARK VINA RESULT:     -11.5      4.345     11.546
REMARK  Name = 12087505
REMARK  3 active torsions:
REMARK  status: ('A' for Active; 'I' for Inactive)
REMARK    1  A    between atoms: C_1  and  S_18
REMARK    2  A    between atoms: C_4  and  N_9
REMARK    3  A    between atoms: S_18  and  N_21
REMARK                            x       y       z     vdW  Elec       q    Type
REMARK                         _______ _______ _______ _____ _____    ______ ____
ROOT
ATOM      1  C   UNL     1      33.460 -14.312 -23.388  0.00  0.00    +0.123 C 
ATOM      2  C   UNL     1      33.116 -13.053 -23.852  0.00  0.00    +0.035 C 
ATOM      3  C   UNL     1      33.446 -14.610 -22.036  0.00  0.00    +0.020 C 
ATOM      4  C   UNL     1      32.748 -12.065 -22.939  0.00  0.00    +0.053 C 
ATOM      5  C   UNL     1      33.077 -13.623 -21.121  0.00  0.00    +0.003 C 
ATOM      6  C   UNL     1      32.728 -12.350 -21.574  0.00  0.00    +0.015 C 
ENDROOT
BRANCH   4   9
ATOM      7  S   UNL     1      31.039  -6.232 -24.418  0.00  0.00    -0.051 S 
ATOM      8  O   UNL     1      31.692  -9.713 -21.438  0.00  0.00    -0.252 OA
ATOM      9  N   UNL     1      32.398 -10.792 -23.391  0.00  0.00    -0.268 N 
ATOM     10  N   UNL     1      31.678  -8.602 -23.502  0.00  0.00    -0.248 N 
ATOM     11  N   UNL     1      30.852  -6.961 -21.944  0.00  0.00    -0.222 NA
ATOM     12  C   UNL     1      31.898  -9.694 -22.647  0.00  0.00    +0.310 C 
ATOM     13  C   UNL     1      31.190  -7.346 -23.137  0.00  0.00    +0.167 C 
ATOM     14  C   UNL     1      30.454  -5.084 -23.285  0.00  0.00    +0.059 C 
ATOM     15  C   UNL     1      30.424  -5.650 -22.027  0.00  0.00    +0.108 C 
ATOM     16  H   UNL     1      32.513 -10.636 -24.356  0.00  0.00    +0.156 HD
ATOM     17  H   UNL     1      31.890  -8.737 -24.454  0.00  0.00    +0.158 HD
ENDBRANCH   4   9
BRANCH   1  18
ATOM     18  S   UNL     1      33.929 -15.561 -24.544  0.00  0.00    +0.063 S 
ATOM     19  O   UNL     1      32.748 -15.940 -25.290  0.00  0.00    -0.153 OA
ATOM     20  O   UNL     1      35.129 -15.116 -25.220  0.00  0.00    -0.153 OA
BRANCH  18  21
ATOM     21  N   UNL     1      34.336 -16.827 -23.464  0.00  0.00    -0.152 NA
ATOM     22  N   UNL     1      34.492 -18.760 -21.395  0.00  0.00    -0.290 N 
ATOM     23  C   UNL     1      34.656 -16.401 -22.072  0.00  0.00    +0.117 C 
ATOM     24  C   UNL     1      33.410 -17.994 -23.467  0.00  0.00    +0.117 C 
ATOM     25  C   UNL     1      35.326 -17.553 -21.329  0.00  0.00    +0.111 C 
ATOM     26  C   UNL     1      34.062 -19.166 -22.739  0.00  0.00    +0.111 C 
ATOM     27  N   UNL     1      35.896 -19.890 -19.816  0.00  0.00    -0.229 NA
ATOM     28  C   UNL     1      34.671 -19.731 -20.402  0.00  0.00    +0.132 C 
ATOM     29  C   UNL     1      33.573 -20.521 -20.036  0.00  0.00    +0.034 C 
ATOM     30  C   UNL     1      33.735 -21.490 -19.051  0.00  0.00    +0.004 C 
ATOM     31  C   UNL     1      36.015 -20.841 -18.862  0.00  0.00    +0.100 C 
ATOM     32  C   UNL     1      34.976 -21.659 -18.448  0.00  0.00    +0.021 C 
ENDBRANCH  18  21
ENDBRANCH   1  18
TORSDOF 3
ENDMDL
MODEL 4
REMARK VINA RESULT:     -10.8      2.176      2.626
REMARK  Name = 12087505
REMARK  3 active torsions:
REMARK  status: ('A' for Active; 'I' for Inactive)
REMARK    1  A    between atoms: C_1  and  S_18
REMARK    2  A    between atoms: C_4  and  N_9
REMARK    3  A    between atoms: S_18  and  N_21
REMARK                            x       y       z     vdW  Elec       q    Type
REMARK                         _______ _______ _______ _____ _____    ______ ____
ROOT
ATOM      1  C   UNL     1      34.396 -19.276 -21.026  0.00  0.00    +0.123 C 
ATOM      2  C   UNL     1      34.497 -20.031 -19.869  0.00  0.00    +0.035 C 
ATOM      3  C   UNL     1      33.202 -19.176 -21.719  0.00  0.00    +0.020 C 
ATOM      4  C   UNL     1      33.372 -20.703 -19.391  0.00  0.00    +0.053 C 
ATOM      5  C   UNL     1      32.075 -19.847 -21.242  0.00  0.00    +0.003 C 
ATOM      6  C   UNL     1      32.161 -20.610 -20.077  0.00  0.00    +0.015 C 
ENDROOT
BRANCH   4   9
ATOM      7  S   UNL     1      33.175 -24.137 -14.166  0.00  0.00    -0.051 S 
ATOM      8  O   UNL     1      31.214 -21.861 -17.688  0.00  0.00    -0.252 OA
ATOM      9  N   UNL     1      33.457 -21.466 -18.227  0.00  0.00    -0.268 N 
ATOM     10  N   UNL     1      32.943 -22.707 -16.350  0.00  0.00    -0.248 N 
ATOM     11  N   UNL     1      30.932 -23.460 -15.259  0.00  0.00    -0.222 NA
ATOM     12  C   UNL     1      32.407 -22.003 -17.440  0.00  0.00    +0.310 C 
ATOM     13  C   UNL     1      32.223 -23.373 -15.356  0.00  0.00    +0.167 C 
ATOM     14  C   UNL     1      31.725 -24.659 -13.412  0.00  0.00    +0.059 C 
ATOM     15  C   UNL     1      30.640 -24.205 -14.133  0.00  0.00    +0.108 C 
ATOM     16  H   UNL     1      34.369 -21.657 -17.908  0.00  0.00    +0.156 HD
ATOM     17  H   UNL     1      33.924 -22.735 -16.281  0.00  0.00    +0.158 HD
ENDBRANCH   4   9
BRANCH   1  18
ATOM     18  S   UNL     1      35.821 -18.428 -21.632  0.00  0.00    +0.063 S 
ATOM     19  O   UNL     1      36.835 -18.471 -20.600  0.00  0.00    -0.153 OA
ATOM     20  O   UNL     1      36.094 -18.913 -22.967  0.00  0.00    -0.153 OA
BRANCH  18  21
ATOM     21  N   UNL     1      35.197 -16.836 -21.735  0.00  0.00    -0.152 NA
ATOM     22  N   UNL     1      33.623 -14.484 -21.922  0.00  0.00    -0.290 N 
ATOM     23  C   UNL     1      34.517 -16.498 -23.017  0.00  0.00    +0.117 C 
ATOM     24  C   UNL     1      34.389 -16.388 -20.566  0.00  0.00    +0.117 C 
ATOM     25  C   UNL     1      34.328 -14.986 -23.109  0.00  0.00    +0.111 C 
ATOM     26  C   UNL     1      34.194 -14.876 -20.627  0.00  0.00    +0.111 C 
ATOM     27  N   UNL     1      33.379 -12.315 -22.910  0.00  0.00    -0.229 NA
ATOM     28  C   UNL     1      32.936 -13.270 -22.037  0.00  0.00    +0.132 C 
ATOM     29  C   UNL     1      31.799 -13.069 -21.243  0.00  0.00    +0.034 C 
ATOM     30  C   UNL     1      31.107 -11.867 -21.346  0.00  0.00    +0.004 C 
ATOM     31  C   UNL     1      32.679 -11.161 -22.984  0.00  0.00    +0.100 C 
ATOM     32  C   UNL     1      31.547 -10.890 -22.231  0.00  0.00    +0.021 C 
ENDBRANCH  18  21
ENDBRANCH   1  18
TORSDOF 3
ENDMDL
MODEL 5
REMARK VINA RESULT:     -10.8      4.475     10.119
REMARK  Name = 12087505
REMARK  3 active torsions:
REMARK  status: ('A' for Active; 'I' for Inactive)
REMARK    1  A    between atoms: C_1  and  S_18
REMARK    2  A    between atoms: C_4  and  N_9
REMARK    3  A    between atoms: S_18  and  N_21
REMARK                            x       y       z     vdW  Elec       q    Type
REMARK                         _______ _______ _______ _____ _____    ______ ____
ROOT
ATOM      1  C   UNL     1      36.661 -23.635 -13.599  0.00  0.00    +0.123 C 
ATOM      2  C   UNL     1      36.434 -22.767 -14.654  0.00  0.00    +0.035 C 
ATOM      3  C   UNL     1      37.809 -24.405 -13.532  0.00  0.00    +0.020 C 
ATOM      4  C   UNL     1      37.383 -22.666 -15.671  0.00  0.00    +0.053 C 
ATOM      5  C   UNL     1      38.760 -24.304 -14.549  0.00  0.00    +0.003 C 
ATOM      6  C   UNL     1      38.546 -23.434 -15.618  0.00  0.00    +0.015 C 
ENDROOT
BRANCH   4   9
ATOM      7  S   UNL     1      35.899 -18.994 -20.514  0.00  0.00    -0.051 S 
ATOM      8  O   UNL     1      34.986 -22.306 -17.411  0.00  0.00    -0.252 OA
ATOM      9  N   UNL     1      37.170 -21.796 -16.741  0.00  0.00    -0.268 N 
ATOM     10  N   UNL     1      36.232 -20.655 -18.514  0.00  0.00    -0.248 N 
ATOM     11  N   UNL     1      34.122 -20.676 -19.676  0.00  0.00    -0.222 NA
ATOM     12  C   UNL     1      36.015 -21.650 -17.549  0.00  0.00    +0.310 C 
ATOM     13  C   UNL     1      35.327 -20.229 -19.488  0.00  0.00    +0.167 C 
ATOM     14  C   UNL     1      34.387 -19.032 -21.322  0.00  0.00    +0.059 C 
ATOM     15  C   UNL     1      33.575 -19.984 -20.739  0.00  0.00    +0.108 C 
ATOM     16  H   UNL     1      37.924 -21.204 -16.965  0.00  0.00    +0.156 HD
ATOM     17  H   UNL     1      37.112 -20.213 -18.503  0.00  0.00    +0.158 HD
ENDBRANCH   4   9
BRANCH   1  18
ATOM     18  S   UNL     1      35.458 -23.764 -12.312  0.00  0.00    +0.063 S 
ATOM     19  O   UNL     1      35.664 -25.029 -11.639  0.00  0.00    -0.153 OA
ATOM     20  O   UNL     1      35.456 -22.518 -11.577  0.00  0.00    -0.153 OA
BRANCH  18  21
ATOM     21  N   UNL     1      34.028 -23.858 -13.251  0.00  0.00    -0.152 NA
ATOM     22  N   UNL     1      31.480 -23.546 -14.457  0.00  0.00    -0.290 N 
ATOM     23  C   UNL     1      32.800 -24.259 -12.508  0.00  0.00    +0.117 C 
ATOM     24  C   UNL     1      33.762 -22.686 -14.131  0.00  0.00    +0.117 C 
ATOM     25  C   UNL     1      31.705 -24.638 -13.501  0.00  0.00    +0.111 C 
ATOM     26  C   UNL     1      32.676 -23.042 -15.143  0.00  0.00    +0.111 C 
ATOM     27  N   UNL     1      29.538 -24.638 -15.339  0.00  0.00    -0.229 NA
ATOM     28  C   UNL     1      30.238 -23.487 -15.098  0.00  0.00    +0.132 C 
ATOM     29  C   UNL     1      29.742 -22.233 -15.479  0.00  0.00    +0.034 C 
ATOM     30  C   UNL     1      28.509 -22.159 -16.118  0.00  0.00    +0.004 C 
ATOM     31  C   UNL     1      28.343 -24.525 -15.961  0.00  0.00    +0.100 C 
ATOM     32  C   UNL     1      27.789 -23.321 -16.366  0.00  0.00    +0.021 C 
ENDBRANCH  18  21
ENDBRANCH   1  18
TORSDOF 3
ENDMDL
MODEL 6
REMARK VINA RESULT:     -10.0      7.365     11.754
REMARK  Name = 12087505
REMARK  3 active torsions:
REMARK  status: ('A' for Active; 'I' for Inactive)
REMARK    1  A    between atoms: C_1  and  S_18
REMARK    2  A    between atoms: C_4  and  N_9
REMARK    3  A    between atoms: S_18  and  N_21
REMARK                            x       y       z     vdW  Elec       q    Type
REMARK                         _______ _______ _______ _____ _____    ______ ____
ROOT
ATOM      1  C   UNL     1      31.309  -7.518 -20.763  0.00  0.00    +0.123 C 
ATOM      2  C   UNL     1      31.598  -8.473 -21.723  0.00  0.00    +0.035 C 
ATOM      3  C   UNL     1      30.988  -7.874 -19.465  0.00  0.00    +0.020 C 
ATOM      4  C   UNL     1      31.567  -9.824 -21.374  0.00  0.00    +0.053 C 
ATOM      5  C   UNL     1      30.957  -9.225 -19.114  0.00  0.00    +0.003 C 
ATOM      6  C   UNL     1      31.247 -10.199 -20.070  0.00  0.00    +0.015 C 
ENDROOT
BRANCH   4   9
ATOM      7  S   UNL     1      33.113 -14.500 -25.231  0.00  0.00    -0.051 S 
ATOM      8  O   UNL     1      32.949 -12.451 -21.083  0.00  0.00    -0.252 OA
ATOM      9  N   UNL     1      31.857 -10.798 -22.329  0.00  0.00    -0.268 N 
ATOM     10  N   UNL     1      32.598 -12.711 -23.386  0.00  0.00    -0.248 N 
ATOM     11  N   UNL     1      33.748 -14.725 -22.735  0.00  0.00    -0.222 NA
ATOM     12  C   UNL     1      32.518 -12.040 -22.156  0.00  0.00    +0.310 C 
ATOM     13  C   UNL     1      33.179 -13.960 -23.616  0.00  0.00    +0.167 C 
ATOM     14  C   UNL     1      33.932 -15.924 -24.737  0.00  0.00    +0.059 C 
ATOM     15  C   UNL     1      34.185 -15.864 -23.381  0.00  0.00    +0.108 C 
ATOM     16  H   UNL     1      31.564 -10.595 -23.248  0.00  0.00    +0.156 HD
ATOM     17  H   UNL     1      32.206 -12.254 -24.165  0.00  0.00    +0.158 HD
ENDBRANCH   4   9
BRANCH   1  18
ATOM     18  S   UNL     1      31.346  -5.809 -21.206  0.00  0.00    +0.063 S 
ATOM     19  O   UNL     1      29.981  -5.328 -21.234  0.00  0.00    -0.153 OA
ATOM     20  O   UNL     1      32.350  -5.159 -20.391  0.00  0.00    -0.153 OA
BRANCH  18  21
ATOM     21  N   UNL     1      31.927  -5.931 -22.813  0.00  0.00    -0.152 NA
ATOM     22  N   UNL     1      33.080  -5.561 -25.377  0.00  0.00    -0.290 N 
ATOM     23  C   UNL     1      31.265  -5.034 -23.802  0.00  0.00    +0.117 C 
ATOM     24  C   UNL     1      33.409  -5.891 -22.962  0.00  0.00    +0.117 C 
ATOM     25  C   UNL     1      31.621  -5.486 -25.216  0.00  0.00    +0.111 C 
ATOM     26  C   UNL     1      33.794  -6.349 -24.366  0.00  0.00    +0.111 C 
ATOM     27  N   UNL     1      32.860  -5.912 -27.738  0.00  0.00    -0.229 NA
ATOM     28  C   UNL     1      33.597  -5.466 -26.675  0.00  0.00    +0.132 C 
ATOM     29  C   UNL     1      34.872  -4.911 -26.846  0.00  0.00    +0.034 C 
ATOM     30  C   UNL     1      35.400  -4.812 -28.129  0.00  0.00    +0.004 C 
ATOM     31  C   UNL     1      33.405  -5.797 -28.970  0.00  0.00    +0.100 C 
ATOM     32  C   UNL     1      34.659  -5.259 -29.216  0.00  0.00    +0.021 C 
ENDBRANCH  18  21
ENDBRANCH   1  18
TORSDOF 3
ENDMDL
MODEL 7
REMARK VINA RESULT:     -10.0      7.542     14.504
REMARK  Name = 12087505
REMARK  3 active torsions:
REMARK  status: ('A' for Active; 'I' for Inactive)
REMARK    1  A    between atoms: C_1  and  S_18
REMARK    2  A    between atoms: C_4  and  N_9
REMARK    3  A    between atoms: S_18  and  N_21
REMARK                            x       y       z     vdW  Elec       q    Type
REMARK                         _______ _______ _______ _____ _____    ______ ____
ROOT
ATOM      1  C   UNL     1      31.980  -8.141 -21.806  0.00  0.00    +0.123 C 
ATOM      2  C   UNL     1      32.282  -7.848 -23.125  0.00  0.00    +0.035 C 
ATOM      3  C   UNL     1      32.589  -7.468 -20.760  0.00  0.00    +0.020 C 
ATOM      4  C   UNL     1      33.218  -6.853 -23.407  0.00  0.00    +0.053 C 
ATOM      5  C   UNL     1      33.525  -6.472 -21.041  0.00  0.00    +0.003 C 
ATOM      6  C   UNL     1      33.839  -6.165 -22.365  0.00  0.00    +0.015 C 
ENDROOT
BRANCH   4   9
ATOM      7  S   UNL     1      34.282  -5.010 -29.290  0.00  0.00    -0.051 S 
ATOM      8  O   UNL     1      32.321  -4.580 -25.119  0.00  0.00    -0.252 OA
ATOM      9  N   UNL     1      33.532  -6.545 -24.731  0.00  0.00    -0.268 N 
ATOM     10  N   UNL     1      33.651  -5.529 -26.800  0.00  0.00    -0.248 N 
ATOM     11  N   UNL     1      32.702  -3.571 -27.834  0.00  0.00    -0.222 NA
ATOM     12  C   UNL     1      33.087  -5.453 -25.517  0.00  0.00    +0.310 C 
ATOM     13  C   UNL     1      33.447  -4.634 -27.852  0.00  0.00    +0.167 C 
ATOM     14  C   UNL     1      33.592  -3.609 -29.999  0.00  0.00    +0.059 C 
ATOM     15  C   UNL     1      32.784  -2.975 -29.077  0.00  0.00    +0.108 C 
ATOM     16  H   UNL     1      34.145  -7.171 -25.181  0.00  0.00    +0.156 HD
ATOM     17  H   UNL     1      34.249  -6.291 -26.975  0.00  0.00    +0.158 HD
ENDBRANCH   4   9
BRANCH   1  18
ATOM     18  S   UNL     1      30.797  -9.402 -21.449  0.00  0.00    +0.063 S 
ATOM     19  O   UNL     1      30.418  -9.274 -20.059  0.00  0.00    -0.153 OA
ATOM     20  O   UNL     1      29.801  -9.389 -22.499  0.00  0.00    -0.153 OA
BRANCH  18  21
ATOM     21  N   UNL     1      31.781 -10.792 -21.633  0.00  0.00    -0.152 NA
ATOM     22  N   UNL     1      32.939 -13.302 -22.267  0.00  0.00    -0.290 N 
ATOM     23  C   UNL     1      31.258 -12.034 -20.996  0.00  0.00    +0.117 C 
ATOM     24  C   UNL     1      32.256 -11.062 -23.019  0.00  0.00    +0.117 C 
ATOM     25  C   UNL     1      32.368 -13.079 -20.932  0.00  0.00    +0.111 C 
ATOM     26  C   UNL     1      33.377 -12.098 -22.984  0.00  0.00    +0.111 C 
ATOM     27  N   UNL     1      34.208 -15.175 -21.478  0.00  0.00    -0.229 NA
ATOM     28  C   UNL     1      33.584 -14.521 -22.505  0.00  0.00    +0.132 C 
ATOM     29  C   UNL     1      33.571 -15.041 -23.806  0.00  0.00    +0.034 C 
ATOM     30  C   UNL     1      34.208 -16.251 -24.058  0.00  0.00    +0.004 C 
ATOM     31  C   UNL     1      34.815 -16.350 -21.761  0.00  0.00    +0.100 C 
ATOM     32  C   UNL     1      34.844 -16.925 -23.022  0.00  0.00    +0.021 C 
ENDBRANCH  18  21
ENDBRANCH   1  18
TORSDOF 3
ENDMDL
