MODEL 1
REMARK VINA RESULT:     -12.0      0.000      0.000
REMARK  Name = 9824562
REMARK  9 active torsions:
REMARK  status: ('A' for Active; 'I' for Inactive)
REMARK    1  A    between atoms: C_1  and  C_5
REMARK    2  A    between atoms: C_1  and  O_20
REMARK    3  A    between atoms: C_1  and  C_22
REMARK    4  A    between atoms: N_4  and  C_7
REMARK    5  A    between atoms: C_9  and  C_16
REMARK    6  A    between atoms: C_11  and  N_19
REMARK    7  A    between atoms: C_22  and  O_23
REMARK    8  A    between atoms: O_23  and  C_24
REMARK    9  A    between atoms: C_27  and  N_31
REMARK                            x       y       z     vdW  Elec       q    Type
REMARK                         _______ _______ _______ _____ _____    ______ ____
ROOT
ATOM      1  C   UNL     1      35.114 -18.586 -22.309  0.00  0.00    +0.197 C 
ATOM      2  C   UNL     1      36.592 -18.252 -22.090  0.00  0.00    +0.043 C 
ENDROOT
BRANCH   1   5
ATOM      3  O   UNL     1      33.370 -18.879 -20.669  0.00  0.00    -0.272 OA
ATOM      4  N   UNL     1      35.337 -20.124 -20.424  0.00  0.00    -0.282 N 
ATOM      5  C   UNL     1      34.495 -19.206 -21.041  0.00  0.00    +0.254 C 
ATOM      6  H   UNL     1      36.210 -20.271 -20.855  0.00  0.00    +0.155 HD
BRANCH   4   7
ATOM      7  C   UNL     1      35.089 -20.873 -19.249  0.00  0.00    +0.050 C 
ATOM      8  C   UNL     1      36.049 -20.930 -18.240  0.00  0.00    +0.020 C 
ATOM      9  C   UNL     1      35.803 -21.669 -17.083  0.00  0.00    +0.095 C 
ATOM     10  C   UNL     1      33.880 -21.555 -19.101  0.00  0.00    +0.016 C 
ATOM     11  C   UNL     1      34.595 -22.351 -16.934  0.00  0.00    +0.147 C 
ATOM     12  C   UNL     1      33.633 -22.294 -17.944  0.00  0.00    +0.025 C 
BRANCH   9  16
ATOM     13  F   UNL     1      36.354 -21.577 -14.757  0.00  0.00    -0.166 F 
ATOM     14  F   UNL     1      37.566 -22.873 -16.004  0.00  0.00    -0.166 F 
ATOM     15  F   UNL     1      37.775 -20.714 -16.158  0.00  0.00    -0.166 F 
ATOM     16  C   UNL     1      36.853 -21.710 -16.021  0.00  0.00    +0.420 C 
ENDBRANCH   9  16
BRANCH  11  19
ATOM     17  O   UNL     1      34.814 -24.258 -15.656  0.00  0.00    -0.126 OA
ATOM     18  O   UNL     1      33.598 -22.606 -14.871  0.00  0.00    -0.126 OA
ATOM     19  N   UNL     1      34.322 -23.109 -15.762  0.00  0.00    +0.058 N 
ENDBRANCH  11  19
ENDBRANCH   4   7
ENDBRANCH   1   5
BRANCH   1  20
ATOM     20  O   UNL     1      35.038 -19.565 -23.346  0.00  0.00    -0.375 OA
ATOM     21  H   UNL     1      35.897 -20.009 -23.436  0.00  0.00    +0.211 HD
ENDBRANCH   1  20
BRANCH   1  22
ATOM     22  C   UNL     1      34.348 -17.350 -22.794  0.00  0.00    +0.241 C 
BRANCH  22  23
ATOM     23  O   UNL     1      34.951 -16.153 -22.312  0.00  0.00    -0.472 OA
BRANCH  23  24
ATOM     24  C   UNL     1      34.140 -15.055 -22.205  0.00  0.00    +0.139 C 
ATOM     25  C   UNL     1      33.829 -14.536 -20.947  0.00  0.00    +0.038 C 
ATOM     26  C   UNL     1      33.624 -14.456 -23.353  0.00  0.00    +0.038 C 
ATOM     27  C   UNL     1      32.486 -12.820 -21.987  0.00  0.00    +0.051 C 
ATOM     28  C   UNL     1      33.002 -13.420 -20.839  0.00  0.00    +0.018 C 
ATOM     29  C   UNL     1      32.796 -13.339 -23.245  0.00  0.00    +0.018 C 
BRANCH  27  31
ATOM     30  O   UNL     1      32.738 -10.072 -23.193  0.00  0.00    -0.275 OA
ATOM     31  N   UNL     1      31.656 -11.704 -21.879  0.00  0.00    -0.284 N 
ATOM     32  C   UNL     1      31.823 -10.441 -22.464  0.00  0.00    +0.227 C 
ATOM     33  C   UNL     1      30.699  -9.504 -22.100  0.00  0.00    +0.095 C 
ATOM     34  H   UNL     1      30.852 -11.817 -21.322  0.00  0.00    +0.155 HD
ENDBRANCH  27  31
ENDBRANCH  23  24
ENDBRANCH  22  23
ENDBRANCH   1  22
TORSDOF 9
ENDMDL
MODEL 2
REMARK VINA RESULT:     -11.9      4.544      7.494
REMARK  Name = 9824562
REMARK  9 active torsions:
REMARK  status: ('A' for Active; 'I' for Inactive)
REMARK    1  A    between atoms: C_1  and  C_5
REMARK    2  A    between atoms: C_1  and  O_20
REMARK    3  A    between atoms: C_1  and  C_22
REMARK    4  A    between atoms: N_4  and  C_7
REMARK    5  A    between atoms: C_9  and  C_16
REMARK    6  A    between atoms: C_11  and  N_19
REMARK    7  A    between atoms: C_22  and  O_23
REMARK    8  A    between atoms: O_23  and  C_24
REMARK    9  A    between atoms: C_27  and  N_31
REMARK                            x       y       z     vdW  Elec       q    Type
REMARK                         _______ _______ _______ _____ _____    ______ ____
ROOT
ATOM      1  C   UNL     1      31.741 -22.710 -14.851  0.00  0.00    +0.197 C 
ATOM      2  C   UNL     1      30.539 -23.474 -14.291  0.00  0.00    +0.043 C 
ENDROOT
BRANCH   1   5
ATOM      3  O   UNL     1      32.996 -24.706 -14.346  0.00  0.00    -0.272 OA
ATOM      4  N   UNL     1      34.180 -22.785 -14.968  0.00  0.00    -0.282 N 
ATOM      5  C   UNL     1      33.038 -23.527 -14.689  0.00  0.00    +0.254 C 
ATOM      6  H   UNL     1      34.036 -21.847 -15.231  0.00  0.00    +0.155 HD
BRANCH   4   7
ATOM      7  C   UNL     1      35.527 -23.218 -14.919  0.00  0.00    +0.050 C 
ATOM      8  C   UNL     1      35.872 -24.345 -14.175  0.00  0.00    +0.020 C 
ATOM      9  C   UNL     1      37.199 -24.771 -14.127  0.00  0.00    +0.095 C 
ATOM     10  C   UNL     1      36.509 -22.515 -15.618  0.00  0.00    +0.016 C 
ATOM     11  C   UNL     1      38.182 -24.069 -14.825  0.00  0.00    +0.147 C 
ATOM     12  C   UNL     1      37.837 -22.941 -15.571  0.00  0.00    +0.025 C 
BRANCH   9  16
ATOM     13  F   UNL     1      38.638 -25.821 -12.530  0.00  0.00    -0.166 F 
ATOM     14  F   UNL     1      36.539 -26.365 -12.471  0.00  0.00    -0.166 F 
ATOM     15  F   UNL     1      37.798 -27.072 -14.098  0.00  0.00    -0.166 F 
ATOM     16  C   UNL     1      37.536 -25.982 -13.320  0.00  0.00    +0.420 C 
ENDBRANCH   9  16
BRANCH  11  19
ATOM     17  O   UNL     1      40.318 -23.954 -13.963  0.00  0.00    -0.126 OA
ATOM     18  O   UNL     1      39.923 -25.371 -15.594  0.00  0.00    -0.126 OA
ATOM     19  N   UNL     1      39.542 -24.485 -14.793  0.00  0.00    +0.058 N 
ENDBRANCH  11  19
ENDBRANCH   4   7
ENDBRANCH   1   5
BRANCH   1  20
ATOM     20  O   UNL     1      31.889 -21.512 -14.089  0.00  0.00    -0.375 OA
ATOM     21  H   UNL     1      32.655 -21.013 -14.416  0.00  0.00    +0.211 HD
ENDBRANCH   1  20
BRANCH   1  22
ATOM     22  C   UNL     1      31.486 -22.294 -16.305  0.00  0.00    +0.241 C 
BRANCH  22  23
ATOM     23  O   UNL     1      32.468 -22.851 -17.174  0.00  0.00    -0.472 OA
BRANCH  23  24
ATOM     24  C   UNL     1      32.983 -22.020 -18.134  0.00  0.00    +0.139 C 
ATOM     25  C   UNL     1      34.350 -22.038 -18.412  0.00  0.00    +0.038 C 
ATOM     26  C   UNL     1      32.140 -21.155 -18.832  0.00  0.00    +0.038 C 
ATOM     27  C   UNL     1      34.031 -20.326 -20.085  0.00  0.00    +0.051 C 
ATOM     28  C   UNL     1      34.874 -21.190 -19.387  0.00  0.00    +0.018 C 
ATOM     29  C   UNL     1      32.664 -20.308 -19.807  0.00  0.00    +0.018 C 
BRANCH  27  31
ATOM     30  O   UNL     1      36.478 -18.570 -20.037  0.00  0.00    -0.275 OA
ATOM     31  N   UNL     1      34.556 -19.476 -21.060  0.00  0.00    -0.284 N 
ATOM     32  C   UNL     1      35.704 -18.676 -20.983  0.00  0.00    +0.227 C 
ATOM     33  C   UNL     1      35.932 -17.902 -22.257  0.00  0.00    +0.095 C 
ATOM     34  H   UNL     1      34.058 -19.434 -21.908  0.00  0.00    +0.155 HD
ENDBRANCH  27  31
ENDBRANCH  23  24
ENDBRANCH  22  23
ENDBRANCH   1  22
TORSDOF 9
ENDMDL
MODEL 3
REMARK VINA RESULT:     -11.4      1.666      2.168
REMARK  Name = 9824562
REMARK  9 active torsions:
REMARK  status: ('A' for Active; 'I' for Inactive)
REMARK    1  A    between atoms: C_1  and  C_5
REMARK    2  A    between atoms: C_1  and  O_20
REMARK    3  A    between atoms: C_1  and  C_22
REMARK    4  A    between atoms: N_4  and  C_7
REMARK    5  A    between atoms: C_9  and  C_16
REMARK    6  A    between atoms: C_11  and  N_19
REMARK    7  A    between atoms: C_22  and  O_23
REMARK    8  A    between atoms: O_23  and  C_24
REMARK    9  A    between atoms: C_27  and  N_31
REMARK                            x       y       z     vdW  Elec       q    Type
REMARK                         _______ _______ _______ _____ _____    ______ ____
ROOT
ATOM      1  C   UNL     1      35.091 -18.637 -22.021  0.00  0.00    +0.197 C 
ATOM      2  C   UNL     1      36.526 -18.181 -21.745  0.00  0.00    +0.043 C 
ENDROOT
BRANCH   1   5
ATOM      3  O   UNL     1      33.334 -19.639 -20.708  0.00  0.00    -0.272 OA
ATOM      4  N   UNL     1      35.548 -19.968 -20.023  0.00  0.00    -0.282 N 
ATOM      5  C   UNL     1      34.543 -19.470 -20.846  0.00  0.00    +0.254 C 
ATOM      6  H   UNL     1      36.471 -19.738 -20.277  0.00  0.00    +0.155 HD
BRANCH   4   7
ATOM      7  C   UNL     1      35.401 -20.766 -18.864  0.00  0.00    +0.050 C 
ATOM      8  C   UNL     1      34.168 -21.344 -18.564  0.00  0.00    +0.020 C 
ATOM      9  C   UNL     1      34.025 -22.130 -17.422  0.00  0.00    +0.095 C 
ATOM     10  C   UNL     1      36.493 -20.973 -18.019  0.00  0.00    +0.016 C 
ATOM     11  C   UNL     1      35.116 -22.339 -16.577  0.00  0.00    +0.147 C 
ATOM     12  C   UNL     1      36.350 -21.760 -16.876  0.00  0.00    +0.025 C 
BRANCH   9  16
ATOM     13  F   UNL     1      32.386 -22.765 -15.799  0.00  0.00    -0.166 F 
ATOM     14  F   UNL     1      31.653 -22.078 -17.721  0.00  0.00    -0.166 F 
ATOM     15  F   UNL     1      32.599 -24.028 -17.556  0.00  0.00    -0.166 F 
ATOM     16  C   UNL     1      32.691 -22.736 -17.129  0.00  0.00    +0.420 C 
ENDBRANCH   9  16
BRANCH  11  19
ATOM     17  O   UNL     1      35.055 -24.386 -15.517  0.00  0.00    -0.126 OA
ATOM     18  O   UNL     1      34.830 -22.571 -14.300  0.00  0.00    -0.126 OA
ATOM     19  N   UNL     1      34.994 -23.138 -15.407  0.00  0.00    +0.058 N 
ENDBRANCH  11  19
ENDBRANCH   4   7
ENDBRANCH   1   5
BRANCH   1  20
ATOM     20  O   UNL     1      35.116 -19.481 -23.172  0.00  0.00    -0.375 OA
ATOM     21  H   UNL     1      35.327 -20.390 -22.902  0.00  0.00    +0.211 HD
ENDBRANCH   1  20
BRANCH   1  22
ATOM     22  C   UNL     1      34.198 -17.437 -22.357  0.00  0.00    +0.241 C 
BRANCH  22  23
ATOM     23  O   UNL     1      34.894 -16.210 -22.154  0.00  0.00    -0.472 OA
BRANCH  23  24
ATOM     24  C   UNL     1      34.135 -15.070 -22.126  0.00  0.00    +0.139 C 
ATOM     25  C   UNL     1      33.804 -14.482 -20.904  0.00  0.00    +0.038 C 
ATOM     26  C   UNL     1      33.693 -14.497 -23.317  0.00  0.00    +0.038 C 
ATOM     27  C   UNL     1      32.588 -12.750 -22.068  0.00  0.00    +0.051 C 
ATOM     28  C   UNL     1      33.030 -13.323 -20.876  0.00  0.00    +0.018 C 
ATOM     29  C   UNL     1      32.919 -13.338 -23.290  0.00  0.00    +0.018 C 
BRANCH  27  31
ATOM     30  O   UNL     1      33.052 -10.054 -23.328  0.00  0.00    -0.275 OA
ATOM     31  N   UNL     1      31.811 -11.591 -22.039  0.00  0.00    -0.284 N 
ATOM     32  C   UNL     1      32.078 -10.357 -22.646  0.00  0.00    +0.227 C 
ATOM     33  C   UNL     1      30.984  -9.354 -22.377  0.00  0.00    +0.095 C 
ATOM     34  H   UNL     1      30.971 -11.648 -21.530  0.00  0.00    +0.155 HD
ENDBRANCH  27  31
ENDBRANCH  23  24
ENDBRANCH  22  23
ENDBRANCH   1  22
TORSDOF 9
ENDMDL
MODEL 4
REMARK VINA RESULT:     -11.4      4.268      7.481
REMARK  Name = 9824562
REMARK  9 active torsions:
REMARK  status: ('A' for Active; 'I' for Inactive)
REMARK    1  A    between atoms: C_1  and  C_5
REMARK    2  A    between atoms: C_1  and  O_20
REMARK    3  A    between atoms: C_1  and  C_22
REMARK    4  A    between atoms: N_4  and  C_7
REMARK    5  A    between atoms: C_9  and  C_16
REMARK    6  A    between atoms: C_11  and  N_19
REMARK    7  A    between atoms: C_22  and  O_23
REMARK    8  A    between atoms: O_23  and  C_24
REMARK    9  A    between atoms: C_27  and  N_31
REMARK                            x       y       z     vdW  Elec       q    Type
REMARK                         _______ _______ _______ _____ _____    ______ ____
ROOT
ATOM      1  C   UNL     1      35.754 -23.002 -15.252  0.00  0.00    +0.197 C 
ATOM      2  C   UNL     1      36.132 -22.309 -13.941  0.00  0.00    +0.043 C 
ENDROOT
BRANCH   1   5
ATOM      3  O   UNL     1      34.102 -24.689 -14.758  0.00  0.00    -0.272 OA
ATOM      4  N   UNL     1      33.369 -22.654 -15.652  0.00  0.00    -0.282 N 
ATOM      5  C   UNL     1      34.317 -23.558 -15.187  0.00  0.00    +0.254 C 
ATOM      6  H   UNL     1      33.712 -21.785 -15.962  0.00  0.00    +0.155 HD
BRANCH   4   7
ATOM      7  C   UNL     1      31.967 -22.835 -15.733  0.00  0.00    +0.050 C 
ATOM      8  C   UNL     1      31.327 -23.730 -14.877  0.00  0.00    +0.020 C 
ATOM      9  C   UNL     1      29.947 -23.907 -14.958  0.00  0.00    +0.095 C 
ATOM     10  C   UNL     1      31.226 -22.117 -16.673  0.00  0.00    +0.016 C 
ATOM     11  C   UNL     1      29.205 -23.189 -15.897  0.00  0.00    +0.147 C 
ATOM     12  C   UNL     1      29.845 -22.294 -16.754  0.00  0.00    +0.025 C 
BRANCH   9  16
ATOM     13  F   UNL     1      30.039 -25.154 -12.918  0.00  0.00    -0.166 F 
ATOM     14  F   UNL     1      28.091 -24.437 -13.545  0.00  0.00    -0.166 F 
ATOM     15  F   UNL     1      29.037 -26.077 -14.613  0.00  0.00    -0.166 F 
ATOM     16  C   UNL     1      29.291 -24.873 -14.025  0.00  0.00    +0.420 C 
ENDBRANCH   9  16
BRANCH  11  19
ATOM     17  O   UNL     1      27.341 -24.232 -16.766  0.00  0.00    -0.126 OA
ATOM     18  O   UNL     1      27.050 -22.614 -15.311  0.00  0.00    -0.126 OA
ATOM     19  N   UNL     1      27.795 -23.353 -15.996  0.00  0.00    +0.058 N 
ENDBRANCH  11  19
ENDBRANCH   4   7
ENDBRANCH   1   5
BRANCH   1  20
ATOM     20  O   UNL     1      36.635 -24.111 -15.428  0.00  0.00    -0.375 OA
ATOM     21  H   UNL     1      36.424 -24.799 -14.777  0.00  0.00    +0.211 HD
ENDBRANCH   1  20
BRANCH   1  22
ATOM     22  C   UNL     1      35.966 -22.060 -16.442  0.00  0.00    +0.241 C 
BRANCH  22  23
ATOM     23  O   UNL     1      35.115 -22.412 -17.530  0.00  0.00    -0.472 OA
BRANCH  23  24
ATOM     24  C   UNL     1      34.996 -21.494 -18.540  0.00  0.00    +0.139 C 
ATOM     25  C   UNL     1      36.126 -20.821 -19.007  0.00  0.00    +0.038 C 
ATOM     26  C   UNL     1      33.747 -21.231 -19.100  0.00  0.00    +0.038 C 
ATOM     27  C   UNL     1      34.755 -19.623 -20.595  0.00  0.00    +0.051 C 
ATOM     28  C   UNL     1      36.004 -19.886 -20.034  0.00  0.00    +0.018 C 
ATOM     29  C   UNL     1      33.625 -20.296 -20.127  0.00  0.00    +0.018 C 
BRANCH  27  31
ATOM     30  O   UNL     1      34.924 -16.617 -20.527  0.00  0.00    -0.275 OA
ATOM     31  N   UNL     1      34.633 -18.686 -21.621  0.00  0.00    -0.284 N 
ATOM     32  C   UNL     1      34.720 -17.290 -21.532  0.00  0.00    +0.227 C 
ATOM     33  C   UNL     1      34.533 -16.632 -22.876  0.00  0.00    +0.095 C 
ATOM     34  H   UNL     1      34.467 -19.051 -22.520  0.00  0.00    +0.155 HD
ENDBRANCH  27  31
ENDBRANCH  23  24
ENDBRANCH  22  23
ENDBRANCH   1  22
TORSDOF 9
ENDMDL
MODEL 5
REMARK VINA RESULT:     -11.3      6.071     12.820
REMARK  Name = 9824562
REMARK  9 active torsions:
REMARK  status: ('A' for Active; 'I' for Inactive)
REMARK    1  A    between atoms: C_1  and  C_5
REMARK    2  A    between atoms: C_1  and  O_20
REMARK    3  A    between atoms: C_1  and  C_22
REMARK    4  A    between atoms: N_4  and  C_7
REMARK    5  A    between atoms: C_9  and  C_16
REMARK    6  A    between atoms: C_11  and  N_19
REMARK    7  A    between atoms: C_22  and  O_23
REMARK    8  A    between atoms: O_23  and  C_24
REMARK    9  A    between atoms: C_27  and  N_31
REMARK                            x       y       z     vdW  Elec       q    Type
REMARK                         _______ _______ _______ _____ _____    ______ ____
ROOT
ATOM      1  C   UNL     1      32.485 -12.272 -22.529  0.00  0.00    +0.197 C 
ATOM      2  C   UNL     1      31.728 -12.405 -21.206  0.00  0.00    +0.043 C 
ENDROOT
BRANCH   1   5
ATOM      3  O   UNL     1      33.583 -10.414 -23.607  0.00  0.00    -0.272 OA
ATOM      4  N   UNL     1      31.578 -10.004 -22.471  0.00  0.00    -0.282 N 
ATOM      5  C   UNL     1      32.624 -10.792 -22.938  0.00  0.00    +0.254 C 
ATOM      6  H   UNL     1      30.885 -10.468 -21.947  0.00  0.00    +0.155 HD
BRANCH   4   7
ATOM      7  C   UNL     1      31.390  -8.614 -22.660  0.00  0.00    +0.050 C 
ATOM      8  C   UNL     1      31.557  -7.734 -21.592  0.00  0.00    +0.020 C 
ATOM      9  C   UNL     1      31.372  -6.365 -21.780  0.00  0.00    +0.095 C 
ATOM     10  C   UNL     1      31.036  -8.125 -23.919  0.00  0.00    +0.016 C 
ATOM     11  C   UNL     1      31.019  -5.875 -23.037  0.00  0.00    +0.147 C 
ATOM     12  C   UNL     1      30.851  -6.755 -24.107  0.00  0.00    +0.025 C 
BRANCH   9  16
ATOM     13  F   UNL     1      32.315  -4.349 -20.903  0.00  0.00    -0.166 F 
ATOM     14  F   UNL     1      30.389  -4.958 -20.114  0.00  0.00    -0.166 F 
ATOM     15  F   UNL     1      32.183  -6.058 -19.565  0.00  0.00    -0.166 F 
ATOM     16  C   UNL     1      31.560  -5.449 -20.614  0.00  0.00    +0.420 C 
ENDBRANCH   9  16
BRANCH  11  19
ATOM     17  O   UNL     1      31.723  -3.830 -23.839  0.00  0.00    -0.126 OA
ATOM     18  O   UNL     1      29.765  -3.948 -22.850  0.00  0.00    -0.126 OA
ATOM     19  N   UNL     1      30.826  -4.482 -23.253  0.00  0.00    +0.058 N 
ENDBRANCH  11  19
ENDBRANCH   4   7
ENDBRANCH   1   5
BRANCH   1  20
ATOM     20  O   UNL     1      31.715 -12.926 -23.538  0.00  0.00    -0.375 OA
ATOM     21  H   UNL     1      31.513 -13.832 -23.255  0.00  0.00    +0.211 HD
ENDBRANCH   1  20
BRANCH   1  22
ATOM     22  C   UNL     1      33.837 -12.990 -22.453  0.00  0.00    +0.241 C 
BRANCH  22  23
ATOM     23  O   UNL     1      33.849 -14.146 -23.287  0.00  0.00    -0.472 OA
BRANCH  23  24
ATOM     24  C   UNL     1      34.193 -15.330 -22.691  0.00  0.00    +0.139 C 
ATOM     25  C   UNL     1      34.254 -15.420 -21.299  0.00  0.00    +0.038 C 
ATOM     26  C   UNL     1      34.484 -16.446 -23.474  0.00  0.00    +0.038 C 
ATOM     27  C   UNL     1      34.897 -17.741 -21.477  0.00  0.00    +0.051 C 
ATOM     28  C   UNL     1      34.606 -16.625 -20.693  0.00  0.00    +0.018 C 
ATOM     29  C   UNL     1      34.837 -17.652 -22.868  0.00  0.00    +0.018 C 
BRANCH  27  31
ATOM     30  O   UNL     1      33.181 -19.917 -20.299  0.00  0.00    -0.275 OA
ATOM     31  N   UNL     1      35.252 -18.946 -20.870  0.00  0.00    -0.284 N 
ATOM     32  C   UNL     1      34.407 -19.927 -20.336  0.00  0.00    +0.227 C 
ATOM     33  C   UNL     1      35.185 -21.088 -19.769  0.00  0.00    +0.095 C 
ATOM     34  H   UNL     1      36.218 -19.131 -20.812  0.00  0.00    +0.155 HD
ENDBRANCH  27  31
ENDBRANCH  23  24
ENDBRANCH  22  23
ENDBRANCH   1  22
TORSDOF 9
ENDMDL
MODEL 6
REMARK VINA RESULT:     -11.3      4.653      7.601
REMARK  Name = 9824562
REMARK  9 active torsions:
REMARK  status: ('A' for Active; 'I' for Inactive)
REMARK    1  A    between atoms: C_1  and  C_5
REMARK    2  A    between atoms: C_1  and  O_20
REMARK    3  A    between atoms: C_1  and  C_22
REMARK    4  A    between atoms: N_4  and  C_7
REMARK    5  A    between atoms: C_9  and  C_16
REMARK    6  A    between atoms: C_11  and  N_19
REMARK    7  A    between atoms: C_22  and  O_23
REMARK    8  A    between atoms: O_23  and  C_24
REMARK    9  A    between atoms: C_27  and  N_31
REMARK                            x       y       z     vdW  Elec       q    Type
REMARK                         _______ _______ _______ _____ _____    ______ ____
ROOT
ATOM      1  C   UNL     1      31.039 -22.731 -15.027  0.00  0.00    +0.197 C 
ATOM      2  C   UNL     1      29.737 -23.474 -14.722  0.00  0.00    +0.043 C 
ENDROOT
BRANCH   1   5
ATOM      3  O   UNL     1      32.131 -24.756 -14.304  0.00  0.00    -0.272 OA
ATOM      4  N   UNL     1      33.455 -22.865 -14.690  0.00  0.00    -0.282 N 
ATOM      5  C   UNL     1      32.264 -23.579 -14.630  0.00  0.00    +0.254 C 
ATOM      6  H   UNL     1      33.384 -21.924 -14.972  0.00  0.00    +0.155 HD
BRANCH   4   7
ATOM      7  C   UNL     1      34.759 -23.330 -14.394  0.00  0.00    +0.050 C 
ATOM      8  C   UNL     1      35.041 -23.866 -13.138  0.00  0.00    +0.020 C 
ATOM      9  C   UNL     1      36.326 -24.323 -12.848  0.00  0.00    +0.095 C 
ATOM     10  C   UNL     1      35.762 -23.251 -15.361  0.00  0.00    +0.016 C 
ATOM     11  C   UNL     1      37.330 -24.245 -13.814  0.00  0.00    +0.147 C 
ATOM     12  C   UNL     1      37.047 -23.709 -15.071  0.00  0.00    +0.025 C 
BRANCH   9  16
ATOM     13  F   UNL     1      36.897 -26.224 -11.512  0.00  0.00    -0.166 F 
ATOM     14  F   UNL     1      37.643 -24.297 -10.851  0.00  0.00    -0.166 F 
ATOM     15  F   UNL     1      35.530 -24.768 -10.651  0.00  0.00    -0.166 F 
ATOM     16  C   UNL     1      36.596 -24.892 -11.493  0.00  0.00    +0.420 C 
ENDBRANCH   9  16
BRANCH  11  19
ATOM     17  O   UNL     1      38.918 -25.916 -13.738  0.00  0.00    -0.126 OA
ATOM     18  O   UNL     1      39.498 -23.893 -13.110  0.00  0.00    -0.126 OA
ATOM     19  N   UNL     1      38.647 -24.707 -13.540  0.00  0.00    +0.058 N 
ENDBRANCH  11  19
ENDBRANCH   4   7
ENDBRANCH   1   5
BRANCH   1  20
ATOM     20  O   UNL     1      31.061 -21.546 -14.232  0.00  0.00    -0.375 OA
ATOM     21  H   UNL     1      31.049 -20.767 -14.811  0.00  0.00    +0.211 HD
ENDBRANCH   1  20
BRANCH   1  22
ATOM     22  C   UNL     1      31.079 -22.293 -16.496  0.00  0.00    +0.241 C 
BRANCH  22  23
ATOM     23  O   UNL     1      32.248 -22.786 -17.144  0.00  0.00    -0.472 OA
BRANCH  23  24
ATOM     24  C   UNL     1      32.807 -21.981 -18.101  0.00  0.00    +0.139 C 
ATOM     25  C   UNL     1      32.006 -21.090 -18.817  0.00  0.00    +0.038 C 
ATOM     26  C   UNL     1      34.175 -22.052 -18.361  0.00  0.00    +0.038 C 
ATOM     27  C   UNL     1      33.943 -20.343 -20.053  0.00  0.00    +0.051 C 
ATOM     28  C   UNL     1      32.575 -20.272 -19.793  0.00  0.00    +0.018 C 
ATOM     29  C   UNL     1      34.743 -21.235 -19.337  0.00  0.00    +0.018 C 
BRANCH  27  31
ATOM     30  O   UNL     1      36.461 -18.693 -20.000  0.00  0.00    -0.275 OA
ATOM     31  N   UNL     1      34.511 -19.526 -21.030  0.00  0.00    -0.284 N 
ATOM     32  C   UNL     1      35.691 -18.776 -20.952  0.00  0.00    +0.227 C 
ATOM     33  C   UNL     1      35.962 -18.023 -22.230  0.00  0.00    +0.095 C 
ATOM     34  H   UNL     1      34.021 -19.471 -21.883  0.00  0.00    +0.155 HD
ENDBRANCH  27  31
ENDBRANCH  23  24
ENDBRANCH  22  23
ENDBRANCH   1  22
TORSDOF 9
ENDMDL
MODEL 7
REMARK VINA RESULT:     -11.3      4.639     10.203
REMARK  Name = 9824562
REMARK  9 active torsions:
REMARK  status: ('A' for Active; 'I' for Inactive)
REMARK    1  A    between atoms: C_1  and  C_5
REMARK    2  A    between atoms: C_1  and  O_20
REMARK    3  A    between atoms: C_1  and  C_22
REMARK    4  A    between atoms: N_4  and  C_7
REMARK    5  A    between atoms: C_9  and  C_16
REMARK    6  A    between atoms: C_11  and  N_19
REMARK    7  A    between atoms: C_22  and  O_23
REMARK    8  A    between atoms: O_23  and  C_24
REMARK    9  A    between atoms: C_27  and  N_31
REMARK                            x       y       z     vdW  Elec       q    Type
REMARK                         _______ _______ _______ _____ _____    ______ ____
ROOT
ATOM      1  C   UNL     1      35.388 -17.714 -21.610  0.00  0.00    +0.197 C 
ATOM      2  C   UNL     1      36.714 -17.888 -22.355  0.00  0.00    +0.043 C 
ENDROOT
BRANCH   1   5
ATOM      3  O   UNL     1      34.394 -16.355 -23.337  0.00  0.00    -0.272 OA
ATOM      4  N   UNL     1      34.240 -15.613 -21.122  0.00  0.00    -0.282 N 
ATOM      5  C   UNL     1      34.618 -16.486 -22.136  0.00  0.00    +0.254 C 
ATOM      6  H   UNL     1      34.500 -15.870 -20.208  0.00  0.00    +0.155 HD
BRANCH   4   7
ATOM      7  C   UNL     1      33.526 -14.398 -21.248  0.00  0.00    +0.050 C 
ATOM      8  C   UNL     1      33.666 -13.621 -22.397  0.00  0.00    +0.020 C 
ATOM      9  C   UNL     1      32.962 -12.423 -22.520  0.00  0.00    +0.095 C 
ATOM     10  C   UNL     1      32.681 -13.977 -20.220  0.00  0.00    +0.016 C 
ATOM     11  C   UNL     1      32.116 -12.002 -21.493  0.00  0.00    +0.147 C 
ATOM     12  C   UNL     1      31.976 -12.780 -20.342  0.00  0.00    +0.025 C 
BRANCH   9  16
ATOM     13  F   UNL     1      32.006 -10.938 -24.133  0.00  0.00    -0.166 F 
ATOM     14  F   UNL     1      34.106 -10.662 -23.664  0.00  0.00    -0.166 F 
ATOM     15  F   UNL     1      33.474 -12.377 -24.842  0.00  0.00    -0.166 F 
ATOM     16  C   UNL     1      33.133 -11.614 -23.764  0.00  0.00    +0.420 C 
ENDBRANCH   9  16
BRANCH  11  19
ATOM     17  O   UNL     1      31.995  -9.700 -21.437  0.00  0.00    -0.126 OA
ATOM     18  O   UNL     1      30.159 -10.835 -21.846  0.00  0.00    -0.126 OA
ATOM     19  N   UNL     1      31.387 -10.785 -21.597  0.00  0.00    +0.058 N 
ENDBRANCH  11  19
ENDBRANCH   4   7
ENDBRANCH   1   5
BRANCH   1  20
ATOM     20  O   UNL     1      35.689 -17.475 -20.235  0.00  0.00    -0.375 OA
ATOM     21  H   UNL     1      35.519 -18.282 -19.722  0.00  0.00    +0.211 HD
ENDBRANCH   1  20
BRANCH   1  22
ATOM     22  C   UNL     1      34.558 -19.001 -21.677  0.00  0.00    +0.241 C 
BRANCH  22  23
ATOM     23  O   UNL     1      35.089 -19.996 -20.806  0.00  0.00    -0.472 OA
BRANCH  23  24
ATOM     24  C   UNL     1      34.209 -20.587 -19.938  0.00  0.00    +0.139 C 
ATOM     25  C   UNL     1      34.661 -21.548 -19.033  0.00  0.00    +0.038 C 
ATOM     26  C   UNL     1      32.862 -20.230 -19.961  0.00  0.00    +0.038 C 
ATOM     27  C   UNL     1      32.417 -21.793 -18.174  0.00  0.00    +0.051 C 
ATOM     28  C   UNL     1      33.764 -22.151 -18.151  0.00  0.00    +0.018 C 
ATOM     29  C   UNL     1      31.965 -20.832 -19.080  0.00  0.00    +0.018 C 
BRANCH  27  31
ATOM     30  O   UNL     1      32.779 -22.689 -15.322  0.00  0.00    -0.275 OA
ATOM     31  N   UNL     1      31.519 -22.398 -17.293  0.00  0.00    -0.284 N 
ATOM     32  C   UNL     1      31.743 -22.797 -15.969  0.00  0.00    +0.227 C 
ATOM     33  C   UNL     1      30.511 -23.414 -15.356  0.00  0.00    +0.095 C 
ATOM     34  H   UNL     1      30.615 -22.564 -17.647  0.00  0.00    +0.155 HD
ENDBRANCH  27  31
ENDBRANCH  23  24
ENDBRANCH  22  23
ENDBRANCH   1  22
TORSDOF 9
ENDMDL
MODEL 8
REMARK VINA RESULT:     -11.2      4.715      7.737
REMARK  Name = 9824562
REMARK  9 active torsions:
REMARK  status: ('A' for Active; 'I' for Inactive)
REMARK    1  A    between atoms: C_1  and  C_5
REMARK    2  A    between atoms: C_1  and  O_20
REMARK    3  A    between atoms: C_1  and  C_22
REMARK    4  A    between atoms: N_4  and  C_7
REMARK    5  A    between atoms: C_9  and  C_16
REMARK    6  A    between atoms: C_11  and  N_19
REMARK    7  A    between atoms: C_22  and  O_23
REMARK    8  A    between atoms: O_23  and  C_24
REMARK    9  A    between atoms: C_27  and  N_31
REMARK                            x       y       z     vdW  Elec       q    Type
REMARK                         _______ _______ _______ _____ _____    ______ ____
ROOT
ATOM      1  C   UNL     1      30.506 -23.095 -15.270  0.00  0.00    +0.197 C 
ATOM      2  C   UNL     1      29.297 -24.009 -15.479  0.00  0.00    +0.043 C 
ENDROOT
BRANCH   1   5
ATOM      3  O   UNL     1      31.521 -25.022 -14.235  0.00  0.00    -0.272 OA
ATOM      4  N   UNL     1      32.823 -23.095 -14.497  0.00  0.00    -0.282 N 
ATOM      5  C   UNL     1      31.667 -23.860 -14.606  0.00  0.00    +0.254 C 
ATOM      6  H   UNL     1      32.771 -22.176 -14.846  0.00  0.00    +0.155 HD
BRANCH   4   7
ATOM      7  C   UNL     1      34.067 -23.480 -13.942  0.00  0.00    +0.050 C 
ATOM      8  C   UNL     1      34.809 -24.503 -14.532  0.00  0.00    +0.020 C 
ATOM      9  C   UNL     1      36.034 -24.882 -13.985  0.00  0.00    +0.095 C 
ATOM     10  C   UNL     1      34.551 -22.836 -12.803  0.00  0.00    +0.016 C 
ATOM     11  C   UNL     1      36.519 -24.237 -12.846  0.00  0.00    +0.147 C 
ATOM     12  C   UNL     1      35.776 -23.214 -12.255  0.00  0.00    +0.025 C 
BRANCH   9  16
ATOM     13  F   UNL     1      38.042 -25.596 -15.072  0.00  0.00    -0.166 F 
ATOM     14  F   UNL     1      37.026 -27.052 -13.826  0.00  0.00    -0.166 F 
ATOM     15  F   UNL     1      36.171 -26.479 -15.741  0.00  0.00    -0.166 F 
ATOM     16  C   UNL     1      36.805 -25.981 -14.641  0.00  0.00    +0.420 C 
ENDBRANCH   9  16
BRANCH  11  19
ATOM     17  O   UNL     1      38.807 -24.022 -12.658  0.00  0.00    -0.126 OA
ATOM     18  O   UNL     1      37.789 -25.503 -11.395  0.00  0.00    -0.126 OA
ATOM     19  N   UNL     1      37.766 -24.606 -12.271  0.00  0.00    +0.058 N 
ENDBRANCH  11  19
ENDBRANCH   4   7
ENDBRANCH   1   5
BRANCH   1  20
ATOM     20  O   UNL     1      30.113 -22.051 -14.379  0.00  0.00    -0.375 OA
ATOM     21  H   UNL     1      29.144 -22.014 -14.329  0.00  0.00    +0.211 HD
ENDBRANCH   1  20
BRANCH   1  22
ATOM     22  C   UNL     1      30.917 -22.433 -16.591  0.00  0.00    +0.241 C 
BRANCH  22  23
ATOM     23  O   UNL     1      32.238 -22.815 -16.963  0.00  0.00    -0.472 OA
BRANCH  23  24
ATOM     24  C   UNL     1      32.849 -22.056 -17.925  0.00  0.00    +0.139 C 
ATOM     25  C   UNL     1      32.088 -21.220 -18.743  0.00  0.00    +0.038 C 
ATOM     26  C   UNL     1      34.233 -22.119 -18.088  0.00  0.00    +0.038 C 
ATOM     27  C   UNL     1      34.094 -20.511 -19.886  0.00  0.00    +0.051 C 
ATOM     28  C   UNL     1      32.711 -20.449 -19.723  0.00  0.00    +0.018 C 
ATOM     29  C   UNL     1      34.856 -21.347 -19.069  0.00  0.00    +0.018 C 
BRANCH  27  31
ATOM     30  O   UNL     1      36.583 -18.820 -19.759  0.00  0.00    -0.275 OA
ATOM     31  N   UNL     1      34.717 -19.741 -20.869  0.00  0.00    -0.284 N 
ATOM     32  C   UNL     1      35.880 -18.968 -20.754  0.00  0.00    +0.227 C 
ATOM     33  C   UNL     1      36.227 -18.284 -22.052  0.00  0.00    +0.095 C 
ATOM     34  H   UNL     1      34.286 -19.741 -21.754  0.00  0.00    +0.155 HD
ENDBRANCH  27  31
ENDBRANCH  23  24
ENDBRANCH  22  23
ENDBRANCH   1  22
TORSDOF 9
ENDMDL
MODEL 9
REMARK VINA RESULT:     -11.1      2.933      5.285
REMARK  Name = 9824562
REMARK  9 active torsions:
REMARK  status: ('A' for Active; 'I' for Inactive)
REMARK    1  A    between atoms: C_1  and  C_5
REMARK    2  A    between atoms: C_1  and  O_20
REMARK    3  A    between atoms: C_1  and  C_22
REMARK    4  A    between atoms: N_4  and  C_7
REMARK    5  A    between atoms: C_9  and  C_16
REMARK    6  A    between atoms: C_11  and  N_19
REMARK    7  A    between atoms: C_22  and  O_23
REMARK    8  A    between atoms: O_23  and  C_24
REMARK    9  A    between atoms: C_27  and  N_31
REMARK                            x       y       z     vdW  Elec       q    Type
REMARK                         _______ _______ _______ _____ _____    ______ ____
ROOT
ATOM      1  C   UNL     1      33.549 -22.039 -18.359  0.00  0.00    +0.197 C 
ATOM      2  C   UNL     1      33.546 -23.047 -19.511  0.00  0.00    +0.043 C 
ENDROOT
BRANCH   1   5
ATOM      3  O   UNL     1      32.657 -23.419 -16.594  0.00  0.00    -0.272 OA
ATOM      4  N   UNL     1      34.821 -22.563 -16.340  0.00  0.00    -0.282 N 
ATOM      5  C   UNL     1      33.611 -22.758 -16.997  0.00  0.00    +0.254 C 
ATOM      6  H   UNL     1      35.483 -22.003 -16.806  0.00  0.00    +0.155 HD
BRANCH   4   7
ATOM      7  C   UNL     1      35.214 -23.075 -15.080  0.00  0.00    +0.050 C 
ATOM      8  C   UNL     1      36.523 -23.508 -14.879  0.00  0.00    +0.020 C 
ATOM      9  C   UNL     1      36.909 -24.012 -13.637  0.00  0.00    +0.095 C 
ATOM     10  C   UNL     1      34.288 -23.145 -14.038  0.00  0.00    +0.016 C 
ATOM     11  C   UNL     1      35.984 -24.082 -12.595  0.00  0.00    +0.147 C 
ATOM     12  C   UNL     1      34.673 -23.648 -12.796  0.00  0.00    +0.025 C 
BRANCH   9  16
ATOM     13  F   UNL     1      39.123 -24.197 -14.525  0.00  0.00    -0.166 F 
ATOM     14  F   UNL     1      38.943 -23.895 -12.384  0.00  0.00    -0.166 F 
ATOM     15  F   UNL     1      38.412 -25.815 -13.256  0.00  0.00    -0.166 F 
ATOM     16  C   UNL     1      38.320 -24.468 -13.454  0.00  0.00    +0.420 C 
ENDBRANCH   9  16
BRANCH  11  19
ATOM     17  O   UNL     1      36.363 -25.832 -11.142  0.00  0.00    -0.126 OA
ATOM     18  O   UNL     1      36.663 -23.783 -10.411  0.00  0.00    -0.126 OA
ATOM     19  N   UNL     1      36.355 -24.591 -11.319  0.00  0.00    +0.058 N 
ENDBRANCH  11  19
ENDBRANCH   4   7
ENDBRANCH   1   5
BRANCH   1  20
ATOM     20  O   UNL     1      32.318 -21.317 -18.408  0.00  0.00    -0.375 OA
ATOM     21  H   UNL     1      32.499 -20.381 -18.592  0.00  0.00    +0.211 HD
ENDBRANCH   1  20
BRANCH   1  22
ATOM     22  C   UNL     1      34.680 -21.019 -18.538  0.00  0.00    +0.241 C 
BRANCH  22  23
ATOM     23  O   UNL     1      35.232 -21.093 -19.850  0.00  0.00    -0.472 OA
BRANCH  23  24
ATOM     24  C   UNL     1      35.102 -19.978 -20.635  0.00  0.00    +0.139 C 
ATOM     25  C   UNL     1      36.105 -19.008 -20.640  0.00  0.00    +0.038 C 
ATOM     26  C   UNL     1      33.968 -19.812 -21.428  0.00  0.00    +0.038 C 
ATOM     27  C   UNL     1      34.837 -17.706 -22.231  0.00  0.00    +0.051 C 
ATOM     28  C   UNL     1      35.972 -17.872 -21.438  0.00  0.00    +0.018 C 
ATOM     29  C   UNL     1      33.834 -18.676 -22.226  0.00  0.00    +0.018 C 
BRANCH  27  31
ATOM     30  O   UNL     1      34.013 -14.901 -21.511  0.00  0.00    -0.275 OA
ATOM     31  N   UNL     1      34.704 -16.569 -23.028  0.00  0.00    -0.284 N 
ATOM     32  C   UNL     1      34.313 -15.281 -22.638  0.00  0.00    +0.227 C 
ATOM     33  C   UNL     1      34.294 -14.326 -23.805  0.00  0.00    +0.095 C 
ATOM     34  H   UNL     1      34.911 -16.686 -23.983  0.00  0.00    +0.155 HD
ENDBRANCH  27  31
ENDBRANCH  23  24
ENDBRANCH  22  23
ENDBRANCH   1  22
TORSDOF 9
ENDMDL
