MODEL 1
REMARK VINA RESULT:     -12.8      0.000      0.000
REMARK  Name = 23586145
REMARK  7 active torsions:
REMARK  status: ('A' for Active; 'I' for Inactive)
REMARK    1  A    between atoms: C_5  and  O_24
REMARK    2  A    between atoms: C_7  and  N_10
REMARK    3  A    between atoms: N_10  and  C_12
REMARK    4  A    between atoms: C_15  and  S_18
REMARK    5  A    between atoms: S_18  and  N_21
REMARK    6  A    between atoms: O_24  and  C_25
REMARK    7  A    between atoms: C_25  and  C_26
REMARK                            x       y       z     vdW  Elec       q    Type
REMARK                         _______ _______ _______ _____ _____    ______ ____
ROOT
ATOM      1  N   UNL     1      32.427 -23.033 -14.222  0.00  0.00    -0.299 NA
ATOM      2  N   UNL     1      31.629 -22.652 -16.459  0.00  0.00    -0.106 N 
ATOM      3  N   UNL     1      30.446 -22.409 -17.081  0.00  0.00    -0.139 NA
ATOM      4  N   UNL     1      30.114 -22.628 -14.838  0.00  0.00    -0.145 NA
ATOM      5  C   UNL     1      33.598 -23.136 -14.763  0.00  0.00    +0.291 C 
ATOM      6  C   UNL     1      33.947 -23.015 -16.195  0.00  0.00    +0.105 C 
ATOM      7  C   UNL     1      32.911 -22.769 -17.017  0.00  0.00    +0.142 C 
ATOM      8  C   UNL     1      31.400 -22.783 -15.083  0.00  0.00    +0.178 C 
ATOM      9  C   UNL     1      29.585 -22.406 -16.068  0.00  0.00    +0.230 C 
ENDROOT
BRANCH   7  10
ATOM     10  N   UNL     1      33.026 -22.624 -18.370  0.00  0.00    -0.299 N 
ATOM     11  H   UNL     1      32.674 -23.366 -18.913  0.00  0.00    +0.153 HD
BRANCH  10  12
ATOM     12  C   UNL     1      33.582 -21.556 -19.085  0.00  0.00    +0.049 C 
ATOM     13  C   UNL     1      34.969 -21.365 -19.108  0.00  0.00    +0.016 C 
ATOM     14  C   UNL     1      32.757 -20.667 -19.785  0.00  0.00    +0.016 C 
ATOM     15  C   UNL     1      34.694 -19.420 -20.515  0.00  0.00    +0.122 C 
ATOM     16  C   UNL     1      35.523 -20.301 -19.820  0.00  0.00    +0.021 C 
ATOM     17  C   UNL     1      33.311 -19.603 -20.497  0.00  0.00    +0.021 C 
BRANCH  15  18
ATOM     18  S   UNL     1      35.387 -18.088 -21.406  0.00  0.00    +0.057 S 
ATOM     19  O   UNL     1      35.078 -18.270 -22.817  0.00  0.00    -0.153 OA
ATOM     20  O   UNL     1      35.022 -16.846 -20.740  0.00  0.00    -0.153 OA
BRANCH  18  21
ATOM     21  N   UNL     1      37.055 -18.370 -21.166  0.00  0.00    -0.203 NA
ATOM     22  H   UNL     1      37.581 -17.981 -21.949  0.00  0.00    +0.144 HD
ATOM     23  H   UNL     1      37.225 -19.373 -21.106  0.00  0.00    +0.144 HD
ENDBRANCH  18  21
ENDBRANCH  15  18
ENDBRANCH  10  12
ENDBRANCH   7  10
BRANCH   5  24
ATOM     24  O   UNL     1      34.662 -23.379 -14.004  0.00  0.00    -0.451 OA
BRANCH  24  25
ATOM     25  C   UNL     1      35.883 -22.856 -14.492  0.00  0.00    +0.208 C 
BRANCH  25  26
ATOM     26  C   UNL     1      36.940 -23.958 -14.432  0.00  0.00    +0.044 C 
ATOM     27  C   UNL     1      38.237 -23.502 -15.116  0.00  0.00    +0.004 C 
ATOM     28  C   UNL     1      37.206 -24.376 -12.981  0.00  0.00    +0.004 C 
ATOM     29  C   UNL     1      39.327 -24.568 -15.024  0.00  0.00    +0.000 C 
ATOM     30  C   UNL     1      38.299 -25.441 -12.892  0.00  0.00    +0.000 C 
ATOM     31  C   UNL     1      39.582 -24.987 -13.580  0.00  0.00    +0.000 C 
ENDBRANCH  25  26
ENDBRANCH  24  25
ENDBRANCH   5  24
TORSDOF 7
ENDMDL
MODEL 2
REMARK VINA RESULT:     -12.6      3.333      7.262
REMARK  Name = 23586145
REMARK  7 active torsions:
REMARK  status: ('A' for Active; 'I' for Inactive)
REMARK    1  A    between atoms: C_5  and  O_24
REMARK    2  A    between atoms: C_7  and  N_10
REMARK    3  A    between atoms: N_10  and  C_12
REMARK    4  A    between atoms: C_15  and  S_18
REMARK    5  A    between atoms: S_18  and  N_21
REMARK    6  A    between atoms: O_24  and  C_25
REMARK    7  A    between atoms: C_25  and  C_26
REMARK                            x       y       z     vdW  Elec       q    Type
REMARK                         _______ _______ _______ _____ _____    ______ ____
ROOT
ATOM      1  N   UNL     1      31.598 -22.037 -17.938  0.00  0.00    -0.299 NA
ATOM      2  N   UNL     1      31.826 -22.811 -15.672  0.00  0.00    -0.106 N 
ATOM      3  N   UNL     1      31.023 -23.061 -14.605  0.00  0.00    -0.139 NA
ATOM      4  N   UNL     1      29.774 -22.326 -16.362  0.00  0.00    -0.145 NA
ATOM      5  C   UNL     1      32.883 -22.174 -18.010  0.00  0.00    +0.291 C 
ATOM      6  C   UNL     1      33.803 -22.639 -16.950  0.00  0.00    +0.105 C 
ATOM      7  C   UNL     1      33.218 -22.950 -15.779  0.00  0.00    +0.142 C 
ATOM      8  C   UNL     1      31.037 -22.361 -16.738  0.00  0.00    +0.178 C 
ATOM      9  C   UNL     1      29.818 -22.755 -15.075  0.00  0.00    +0.230 C 
ENDROOT
BRANCH   7  10
ATOM     10  N   UNL     1      33.894 -23.397 -14.681  0.00  0.00    -0.299 N 
ATOM     11  H   UNL     1      33.371 -23.455 -13.849  0.00  0.00    +0.153 HD
BRANCH  10  12
ATOM     12  C   UNL     1      35.237 -23.782 -14.584  0.00  0.00    +0.049 C 
ATOM     13  C   UNL     1      35.607 -25.118 -14.781  0.00  0.00    +0.016 C 
ATOM     14  C   UNL     1      36.225 -22.835 -14.290  0.00  0.00    +0.016 C 
ATOM     15  C   UNL     1      37.923 -24.551 -14.390  0.00  0.00    +0.122 C 
ATOM     16  C   UNL     1      36.945 -25.501 -14.684  0.00  0.00    +0.021 C 
ATOM     17  C   UNL     1      37.563 -23.217 -14.193  0.00  0.00    +0.021 C 
BRANCH  15  18
ATOM     18  S   UNL     1      39.598 -25.030 -14.270  0.00  0.00    +0.057 S 
ATOM     19  O   UNL     1      40.400 -23.839 -14.030  0.00  0.00    -0.153 OA
ATOM     20  O   UNL     1      39.691 -26.161 -13.357  0.00  0.00    -0.153 OA
BRANCH  18  21
ATOM     21  N   UNL     1      39.892 -25.584 -15.859  0.00  0.00    -0.203 NA
ATOM     22  H   UNL     1      39.935 -26.603 -15.861  0.00  0.00    +0.144 HD
ATOM     23  H   UNL     1      40.779 -25.206 -16.192  0.00  0.00    +0.144 HD
ENDBRANCH  18  21
ENDBRANCH  15  18
ENDBRANCH  10  12
ENDBRANCH   7  10
BRANCH   5  24
ATOM     24  O   UNL     1      33.521 -21.883 -19.139  0.00  0.00    -0.451 OA
BRANCH  24  25
ATOM     25  C   UNL     1      34.787 -21.273 -18.977  0.00  0.00    +0.208 C 
BRANCH  25  26
ATOM     26  C   UNL     1      35.082 -20.431 -20.217  0.00  0.00    +0.044 C 
ATOM     27  C   UNL     1      33.811 -19.719 -20.702  0.00  0.00    +0.004 C 
ATOM     28  C   UNL     1      36.200 -19.419 -19.932  0.00  0.00    +0.004 C 
ATOM     29  C   UNL     1      34.091 -18.829 -21.912  0.00  0.00    +0.000 C 
ATOM     30  C   UNL     1      36.476 -18.529 -21.143  0.00  0.00    +0.000 C 
ATOM     31  C   UNL     1      35.209 -17.831 -21.627  0.00  0.00    +0.000 C 
ENDBRANCH  25  26
ENDBRANCH  24  25
ENDBRANCH   5  24
TORSDOF 7
ENDMDL
MODEL 3
REMARK VINA RESULT:     -12.2      5.135     10.662
REMARK  Name = 23586145
REMARK  7 active torsions:
REMARK  status: ('A' for Active; 'I' for Inactive)
REMARK    1  A    between atoms: C_5  and  O_24
REMARK    2  A    between atoms: C_7  and  N_10
REMARK    3  A    between atoms: N_10  and  C_12
REMARK    4  A    between atoms: C_15  and  S_18
REMARK    5  A    between atoms: S_18  and  N_21
REMARK    6  A    between atoms: O_24  and  C_25
REMARK    7  A    between atoms: C_25  and  C_26
REMARK                            x       y       z     vdW  Elec       q    Type
REMARK                         _______ _______ _______ _____ _____    ______ ____
ROOT
ATOM      1  N   UNL     1      33.507 -15.525 -23.563  0.00  0.00    -0.299 NA
ATOM      2  N   UNL     1      34.112 -17.836 -23.289  0.00  0.00    -0.106 N 
ATOM      3  N   UNL     1      33.898 -19.018 -23.924  0.00  0.00    -0.139 NA
ATOM      4  N   UNL     1      32.840 -17.335 -25.036  0.00  0.00    -0.145 NA
ATOM      5  C   UNL     1      34.196 -15.319 -22.487  0.00  0.00    +0.291 C 
ATOM      6  C   UNL     1      34.927 -16.318 -21.677  0.00  0.00    +0.105 C 
ATOM      7  C   UNL     1      34.853 -17.584 -22.125  0.00  0.00    +0.142 C 
ATOM      8  C   UNL     1      33.453 -16.819 -23.990  0.00  0.00    +0.178 C 
ATOM      9  C   UNL     1      33.137 -18.657 -24.952  0.00  0.00    +0.230 C 
ENDROOT
BRANCH   7  10
ATOM     10  N   UNL     1      35.458 -18.646 -21.518  0.00  0.00    -0.299 N 
ATOM     11  H   UNL     1      36.409 -18.779 -21.734  0.00  0.00    +0.153 HD
BRANCH  10  12
ATOM     12  C   UNL     1      34.900 -19.573 -20.629  0.00  0.00    +0.049 C 
ATOM     13  C   UNL     1      33.511 -19.728 -20.547  0.00  0.00    +0.016 C 
ATOM     14  C   UNL     1      35.725 -20.356 -19.812  0.00  0.00    +0.016 C 
ATOM     15  C   UNL     1      33.784 -21.426 -18.850  0.00  0.00    +0.122 C 
ATOM     16  C   UNL     1      32.955 -20.651 -19.661  0.00  0.00    +0.021 C 
ATOM     17  C   UNL     1      35.170 -21.279 -18.926  0.00  0.00    +0.021 C 
BRANCH  15  18
ATOM     18  S   UNL     1      33.089 -22.582 -17.742  0.00  0.00    +0.057 S 
ATOM     19  O   UNL     1      33.071 -23.886 -18.389  0.00  0.00    -0.153 OA
ATOM     20  O   UNL     1      33.735 -22.426 -16.446  0.00  0.00    -0.153 OA
BRANCH  18  21
ATOM     21  N   UNL     1      31.486 -21.999 -17.629  0.00  0.00    -0.203 NA
ATOM     22  H   UNL     1      31.461 -21.196 -17.001  0.00  0.00    +0.144 HD
ATOM     23  H   UNL     1      30.882 -22.735 -17.264  0.00  0.00    +0.144 HD
ENDBRANCH  18  21
ENDBRANCH  15  18
ENDBRANCH  10  12
ENDBRANCH   7  10
BRANCH   5  24
ATOM     24  O   UNL     1      34.307 -14.090 -21.993  0.00  0.00    -0.451 OA
BRANCH  24  25
ATOM     25  C   UNL     1      33.308 -13.722 -21.061  0.00  0.00    +0.208 C 
BRANCH  25  26
ATOM     26  C   UNL     1      32.381 -12.703 -21.723  0.00  0.00    +0.044 C 
ATOM     27  C   UNL     1      31.677 -11.845 -20.662  0.00  0.00    +0.004 C 
ATOM     28  C   UNL     1      33.159 -11.822 -22.709  0.00  0.00    +0.004 C 
ATOM     29  C   UNL     1      30.783 -10.782 -21.301  0.00  0.00    +0.000 C 
ATOM     30  C   UNL     1      32.264 -10.759 -23.344  0.00  0.00    +0.000 C 
ATOM     31  C   UNL     1      31.559  -9.915 -22.287  0.00  0.00    +0.000 C 
ENDBRANCH  25  26
ENDBRANCH  24  25
ENDBRANCH   5  24
TORSDOF 7
ENDMDL
MODEL 4
REMARK VINA RESULT:     -11.8      4.123      7.252
REMARK  Name = 23586145
REMARK  7 active torsions:
REMARK  status: ('A' for Active; 'I' for Inactive)
REMARK    1  A    between atoms: C_5  and  O_24
REMARK    2  A    between atoms: C_7  and  N_10
REMARK    3  A    between atoms: N_10  and  C_12
REMARK    4  A    between atoms: C_15  and  S_18
REMARK    5  A    between atoms: S_18  and  N_21
REMARK    6  A    between atoms: O_24  and  C_25
REMARK    7  A    between atoms: C_25  and  C_26
REMARK                            x       y       z     vdW  Elec       q    Type
REMARK                         _______ _______ _______ _____ _____    ______ ____
ROOT
ATOM      1  N   UNL     1      36.776 -23.254 -13.497  0.00  0.00    -0.299 NA
ATOM      2  N   UNL     1      34.880 -23.944 -12.188  0.00  0.00    -0.106 N 
ATOM      3  N   UNL     1      34.580 -24.160 -10.880  0.00  0.00    -0.139 NA
ATOM      4  N   UNL     1      36.749 -23.494 -11.081  0.00  0.00    -0.145 NA
ATOM      5  C   UNL     1      35.994 -23.388 -14.519  0.00  0.00    +0.291 C 
ATOM      6  C   UNL     1      34.576 -23.810 -14.525  0.00  0.00    +0.105 C 
ATOM      7  C   UNL     1      34.055 -24.082 -13.315  0.00  0.00    +0.142 C 
ATOM      8  C   UNL     1      36.216 -23.537 -12.286  0.00  0.00    +0.178 C 
ATOM      9  C   UNL     1      35.728 -23.876 -10.273  0.00  0.00    +0.230 C 
ENDROOT
BRANCH   7  10
ATOM     10  N   UNL     1      32.767 -24.484 -13.109  0.00  0.00    -0.299 N 
ATOM     11  H   UNL     1      32.635 -25.158 -12.404  0.00  0.00    +0.153 HD
BRANCH  10  12
ATOM     12  C   UNL     1      31.609 -24.064 -13.774  0.00  0.00    +0.049 C 
ATOM     13  C   UNL     1      30.470 -24.879 -13.798  0.00  0.00    +0.016 C 
ATOM     14  C   UNL     1      31.576 -22.824 -14.424  0.00  0.00    +0.016 C 
ATOM     15  C   UNL     1      29.293 -23.222 -15.106  0.00  0.00    +0.122 C 
ATOM     16  C   UNL     1      29.317 -24.459 -14.461  0.00  0.00    +0.021 C 
ATOM     17  C   UNL     1      30.423 -22.404 -15.087  0.00  0.00    +0.021 C 
BRANCH  15  18
ATOM     18  S   UNL     1      27.849 -22.698 -15.936  0.00  0.00    +0.057 S 
ATOM     19  O   UNL     1      26.803 -22.483 -14.946  0.00  0.00    -0.153 OA
ATOM     20  O   UNL     1      28.207 -21.626 -16.854  0.00  0.00    -0.153 OA
BRANCH  18  21
ATOM     21  N   UNL     1      27.471 -24.095 -16.844  0.00  0.00    -0.203 NA
ATOM     22  H   UNL     1      28.334 -24.560 -17.126  0.00  0.00    +0.144 HD
ATOM     23  H   UNL     1      26.942 -23.828 -17.674  0.00  0.00    +0.144 HD
ENDBRANCH  18  21
ENDBRANCH  15  18
ENDBRANCH  10  12
ENDBRANCH   7  10
BRANCH   5  24
ATOM     24  O   UNL     1      36.449 -23.135 -15.743  0.00  0.00    -0.451 OA
BRANCH  24  25
ATOM     25  C   UNL     1      36.210 -21.823 -16.216  0.00  0.00    +0.208 C 
BRANCH  25  26
ATOM     26  C   UNL     1      35.541 -21.916 -17.586  0.00  0.00    +0.044 C 
ATOM     27  C   UNL     1      34.013 -21.945 -17.441  0.00  0.00    +0.004 C 
ATOM     28  C   UNL     1      35.983 -20.755 -18.486  0.00  0.00    +0.004 C 
ATOM     29  C   UNL     1      33.319 -21.986 -18.801  0.00  0.00    +0.000 C 
ATOM     30  C   UNL     1      35.285 -20.797 -19.844  0.00  0.00    +0.000 C 
ATOM     31  C   UNL     1      33.768 -20.835 -19.696  0.00  0.00    +0.000 C 
ENDBRANCH  25  26
ENDBRANCH  24  25
ENDBRANCH   5  24
TORSDOF 7
ENDMDL
MODEL 5
REMARK VINA RESULT:     -11.5      3.611      7.056
REMARK  Name = 23586145
REMARK  7 active torsions:
REMARK  status: ('A' for Active; 'I' for Inactive)
REMARK    1  A    between atoms: C_5  and  O_24
REMARK    2  A    between atoms: C_7  and  N_10
REMARK    3  A    between atoms: N_10  and  C_12
REMARK    4  A    between atoms: C_15  and  S_18
REMARK    5  A    between atoms: S_18  and  N_21
REMARK    6  A    between atoms: O_24  and  C_25
REMARK    7  A    between atoms: C_25  and  C_26
REMARK                            x       y       z     vdW  Elec       q    Type
REMARK                         _______ _______ _______ _____ _____    ______ ____
ROOT
ATOM      1  N   UNL     1      30.657 -23.210 -16.097  0.00  0.00    -0.299 NA
ATOM      2  N   UNL     1      31.733 -23.756 -14.016  0.00  0.00    -0.106 N 
ATOM      3  N   UNL     1      31.400 -24.317 -12.824  0.00  0.00    -0.139 NA
ATOM      4  N   UNL     1      29.577 -24.251 -14.188  0.00  0.00    -0.145 NA
ATOM      5  C   UNL     1      31.814 -22.762 -16.464  0.00  0.00    +0.291 C 
ATOM      6  C   UNL     1      33.068 -22.746 -15.680  0.00  0.00    +0.105 C 
ATOM      7  C   UNL     1      32.975 -23.262 -14.441  0.00  0.00    +0.142 C 
ATOM      8  C   UNL     1      30.598 -23.727 -14.836  0.00  0.00    +0.178 C 
ATOM      9  C   UNL     1      30.109 -24.590 -12.986  0.00  0.00    +0.230 C 
ENDROOT
BRANCH   7  10
ATOM     10  N   UNL     1      34.019 -23.340 -13.565  0.00  0.00    -0.299 N 
ATOM     11  H   UNL     1      33.816 -23.094 -12.633  0.00  0.00    +0.153 HD
BRANCH  10  12
ATOM     12  C   UNL     1      35.342 -23.720 -13.820  0.00  0.00    +0.049 C 
ATOM     13  C   UNL     1      35.640 -25.035 -14.199  0.00  0.00    +0.016 C 
ATOM     14  C   UNL     1      36.382 -22.790 -13.698  0.00  0.00    +0.016 C 
ATOM     15  C   UNL     1      37.989 -24.481 -14.329  0.00  0.00    +0.122 C 
ATOM     16  C   UNL     1      36.959 -25.413 -14.453  0.00  0.00    +0.021 C 
ATOM     17  C   UNL     1      37.700 -23.169 -13.952  0.00  0.00    +0.021 C 
BRANCH  15  18
ATOM     18  S   UNL     1      39.639 -24.955 -14.647  0.00  0.00    +0.057 S 
ATOM     19  O   UNL     1      39.713 -25.480 -16.004  0.00  0.00    -0.153 OA
ATOM     20  O   UNL     1      40.519 -23.868 -14.243  0.00  0.00    -0.153 OA
BRANCH  18  21
ATOM     21  N   UNL     1      39.823 -26.248 -13.545  0.00  0.00    -0.203 NA
ATOM     22  H   UNL     1      39.240 -27.031 -13.840  0.00  0.00    +0.144 HD
ATOM     23  H   UNL     1      39.540 -25.944 -12.614  0.00  0.00    +0.144 HD
ENDBRANCH  18  21
ENDBRANCH  15  18
ENDBRANCH  10  12
ENDBRANCH   7  10
BRANCH   5  24
ATOM     24  O   UNL     1      31.971 -22.239 -17.676  0.00  0.00    -0.451 OA
BRANCH  24  25
ATOM     25  C   UNL     1      33.225 -22.486 -18.282  0.00  0.00    +0.208 C 
BRANCH  25  26
ATOM     26  C   UNL     1      33.746 -21.176 -18.870  0.00  0.00    +0.044 C 
ATOM     27  C   UNL     1      35.182 -21.347 -19.385  0.00  0.00    +0.004 C 
ATOM     28  C   UNL     1      32.821 -20.678 -19.988  0.00  0.00    +0.004 C 
ATOM     29  C   UNL     1      35.708 -20.064 -20.025  0.00  0.00    +0.000 C 
ATOM     30  C   UNL     1      33.351 -19.395 -20.628  0.00  0.00    +0.000 C 
ATOM     31  C   UNL     1      34.781 -19.567 -21.130  0.00  0.00    +0.000 C 
ENDBRANCH  25  26
ENDBRANCH  24  25
ENDBRANCH   5  24
TORSDOF 7
ENDMDL
MODEL 6
REMARK VINA RESULT:     -11.2      5.224      8.441
REMARK  Name = 23586145
REMARK  7 active torsions:
REMARK  status: ('A' for Active; 'I' for Inactive)
REMARK    1  A    between atoms: C_5  and  O_24
REMARK    2  A    between atoms: C_7  and  N_10
REMARK    3  A    between atoms: N_10  and  C_12
REMARK    4  A    between atoms: C_15  and  S_18
REMARK    5  A    between atoms: S_18  and  N_21
REMARK    6  A    between atoms: O_24  and  C_25
REMARK    7  A    between atoms: C_25  and  C_26
REMARK                            x       y       z     vdW  Elec       q    Type
REMARK                         _______ _______ _______ _____ _____    ______ ____
ROOT
ATOM      1  N   UNL     1      34.257 -19.153 -22.247  0.00  0.00    -0.299 NA
ATOM      2  N   UNL     1      33.895 -17.135 -23.504  0.00  0.00    -0.106 N 
ATOM      3  N   UNL     1      33.276 -16.759 -24.654  0.00  0.00    -0.139 NA
ATOM      4  N   UNL     1      33.029 -19.001 -24.336  0.00  0.00    -0.145 NA
ATOM      5  C   UNL     1      34.905 -18.402 -21.416  0.00  0.00    +0.291 C 
ATOM      6  C   UNL     1      35.136 -16.944 -21.506  0.00  0.00    +0.105 C 
ATOM      7  C   UNL     1      34.603 -16.345 -22.586  0.00  0.00    +0.142 C 
ATOM      8  C   UNL     1      33.730 -18.515 -23.331  0.00  0.00    +0.178 C 
ATOM      9  C   UNL     1      32.781 -17.908 -25.102  0.00  0.00    +0.230 C 
ENDROOT
BRANCH   7  10
ATOM     10  N   UNL     1      34.705 -15.009 -22.848  0.00  0.00    -0.299 N 
ATOM     11  H   UNL     1      35.472 -14.738 -23.402  0.00  0.00    +0.153 HD
BRANCH  10  12
ATOM     12  C   UNL     1      33.860 -13.975 -22.429  0.00  0.00    +0.049 C 
ATOM     13  C   UNL     1      33.538 -12.926 -23.300  0.00  0.00    +0.016 C 
ATOM     14  C   UNL     1      33.328 -13.976 -21.134  0.00  0.00    +0.016 C 
ATOM     15  C   UNL     1      32.170 -11.905 -21.589  0.00  0.00    +0.122 C 
ATOM     16  C   UNL     1      32.696 -11.895 -22.881  0.00  0.00    +0.021 C 
ATOM     17  C   UNL     1      32.486 -12.946 -20.715  0.00  0.00    +0.021 C 
BRANCH  15  18
ATOM     18  S   UNL     1      31.117 -10.614 -21.066  0.00  0.00    +0.057 S 
ATOM     19  O   UNL     1      29.786 -10.861 -21.603  0.00  0.00    -0.153 OA
ATOM     20  O   UNL     1      31.295 -10.425 -19.633  0.00  0.00    -0.153 OA
BRANCH  18  21
ATOM     21  N   UNL     1      31.805  -9.282 -21.885  0.00  0.00    -0.203 NA
ATOM     22  H   UNL     1      31.462  -8.415 -21.470  0.00  0.00    +0.144 HD
ATOM     23  H   UNL     1      31.541  -9.315 -22.869  0.00  0.00    +0.144 HD
ENDBRANCH  18  21
ENDBRANCH  15  18
ENDBRANCH  10  12
ENDBRANCH   7  10
BRANCH   5  24
ATOM     24  O   UNL     1      35.456 -18.934 -20.329  0.00  0.00    -0.451 OA
BRANCH  24  25
ATOM     25  C   UNL     1      35.396 -20.345 -20.252  0.00  0.00    +0.208 C 
BRANCH  25  26
ATOM     26  C   UNL     1      34.558 -20.729 -19.033  0.00  0.00    +0.044 C 
ATOM     27  C   UNL     1      33.198 -21.292 -19.468  0.00  0.00    +0.004 C 
ATOM     28  C   UNL     1      35.310 -21.735 -18.153  0.00  0.00    +0.004 C 
ATOM     29  C   UNL     1      32.361 -21.732 -18.268  0.00  0.00    +0.000 C 
ATOM     30  C   UNL     1      34.470 -22.175 -16.955  0.00  0.00    +0.000 C 
ATOM     31  C   UNL     1      33.116 -22.725 -17.390  0.00  0.00    +0.000 C 
ENDBRANCH  25  26
ENDBRANCH  24  25
ENDBRANCH   5  24
TORSDOF 7
ENDMDL
MODEL 7
REMARK VINA RESULT:     -11.1      3.581      7.435
REMARK  Name = 23586145
REMARK  7 active torsions:
REMARK  status: ('A' for Active; 'I' for Inactive)
REMARK    1  A    between atoms: C_5  and  O_24
REMARK    2  A    between atoms: C_7  and  N_10
REMARK    3  A    between atoms: N_10  and  C_12
REMARK    4  A    between atoms: C_15  and  S_18
REMARK    5  A    between atoms: S_18  and  N_21
REMARK    6  A    between atoms: O_24  and  C_25
REMARK    7  A    between atoms: C_25  and  C_26
REMARK                            x       y       z     vdW  Elec       q    Type
REMARK                         _______ _______ _______ _____ _____    ______ ____
ROOT
ATOM      1  N   UNL     1      37.677 -22.678 -15.383  0.00  0.00    -0.299 NA
ATOM      2  N   UNL     1      36.294 -23.743 -13.729  0.00  0.00    -0.106 N 
ATOM      3  N   UNL     1      36.427 -24.677 -12.752  0.00  0.00    -0.139 NA
ATOM      4  N   UNL     1      38.424 -24.360 -13.799  0.00  0.00    -0.145 NA
ATOM      5  C   UNL     1      36.608 -22.031 -15.718  0.00  0.00    +0.291 C 
ATOM      6  C   UNL     1      35.259 -22.143 -15.122  0.00  0.00    +0.105 C 
ATOM      7  C   UNL     1      35.150 -23.028 -14.115  0.00  0.00    +0.142 C 
ATOM      8  C   UNL     1      37.532 -23.566 -14.358  0.00  0.00    +0.178 C 
ATOM      9  C   UNL     1      37.711 -25.005 -12.841  0.00  0.00    +0.230 C 
ENDROOT
BRANCH   7  10
ATOM     10  N   UNL     1      33.991 -23.275 -13.436  0.00  0.00    -0.299 N 
ATOM     11  H   UNL     1      34.097 -23.610 -12.516  0.00  0.00    +0.153 HD
BRANCH  10  12
ATOM     12  C   UNL     1      32.674 -23.116 -13.880  0.00  0.00    +0.049 C 
ATOM     13  C   UNL     1      31.615 -23.090 -12.963  0.00  0.00    +0.016 C 
ATOM     14  C   UNL     1      32.398 -22.980 -15.246  0.00  0.00    +0.016 C 
ATOM     15  C   UNL     1      30.037 -22.797 -14.769  0.00  0.00    +0.122 C 
ATOM     16  C   UNL     1      30.302 -22.931 -13.406  0.00  0.00    +0.021 C 
ATOM     17  C   UNL     1      31.085 -22.821 -15.690  0.00  0.00    +0.021 C 
BRANCH  15  18
ATOM     18  S   UNL     1      28.393 -22.598 -15.323  0.00  0.00    +0.057 S 
ATOM     19  O   UNL     1      27.709 -23.877 -15.200  0.00  0.00    -0.153 OA
ATOM     20  O   UNL     1      27.831 -21.414 -14.690  0.00  0.00    -0.153 OA
BRANCH  18  21
ATOM     21  N   UNL     1      28.647 -22.266 -16.980  0.00  0.00    -0.203 NA
ATOM     22  H   UNL     1      29.589 -21.896 -17.111  0.00  0.00    +0.144 HD
ATOM     23  H   UNL     1      27.964 -21.579 -17.297  0.00  0.00    +0.144 HD
ENDBRANCH  18  21
ENDBRANCH  15  18
ENDBRANCH  10  12
ENDBRANCH   7  10
BRANCH   5  24
ATOM     24  O   UNL     1      36.650 -21.144 -16.707  0.00  0.00    -0.451 OA
BRANCH  24  25
ATOM     25  C   UNL     1      36.309 -21.647 -17.985  0.00  0.00    +0.208 C 
BRANCH  25  26
ATOM     26  C   UNL     1      35.059 -20.918 -18.475  0.00  0.00    +0.044 C 
ATOM     27  C   UNL     1      35.280 -20.351 -19.884  0.00  0.00    +0.004 C 
ATOM     28  C   UNL     1      33.841 -21.851 -18.447  0.00  0.00    +0.004 C 
ATOM     29  C   UNL     1      34.026 -19.662 -20.418  0.00  0.00    +0.000 C 
ATOM     30  C   UNL     1      32.589 -21.160 -18.984  0.00  0.00    +0.000 C 
ATOM     31  C   UNL     1      32.816 -20.590 -20.380  0.00  0.00    +0.000 C 
ENDBRANCH  25  26
ENDBRANCH  24  25
ENDBRANCH   5  24
TORSDOF 7
ENDMDL
MODEL 8
REMARK VINA RESULT:     -11.0      3.717      7.666
REMARK  Name = 23586145
REMARK  7 active torsions:
REMARK  status: ('A' for Active; 'I' for Inactive)
REMARK    1  A    between atoms: C_5  and  O_24
REMARK    2  A    between atoms: C_7  and  N_10
REMARK    3  A    between atoms: N_10  and  C_12
REMARK    4  A    between atoms: C_15  and  S_18
REMARK    5  A    between atoms: S_18  and  N_21
REMARK    6  A    between atoms: O_24  and  C_25
REMARK    7  A    between atoms: C_25  and  C_26
REMARK                            x       y       z     vdW  Elec       q    Type
REMARK                         _______ _______ _______ _____ _____    ______ ____
ROOT
ATOM      1  N   UNL     1      32.441 -21.333 -19.201  0.00  0.00    -0.299 NA
ATOM      2  N   UNL     1      34.775 -21.075 -18.679  0.00  0.00    -0.106 N 
ATOM      3  N   UNL     1      35.863 -20.450 -19.200  0.00  0.00    -0.139 NA
ATOM      4  N   UNL     1      34.041 -20.059 -20.509  0.00  0.00    -0.145 NA
ATOM      5  C   UNL     1      32.382 -22.055 -18.129  0.00  0.00    +0.291 C 
ATOM      6  C   UNL     1      33.484 -22.383 -17.198  0.00  0.00    +0.105 C 
ATOM      7  C   UNL     1      34.681 -21.862 -17.521  0.00  0.00    +0.142 C 
ATOM      8  C   UNL     1      33.669 -20.820 -19.499  0.00  0.00    +0.178 C 
ATOM      9  C   UNL     1      35.365 -19.865 -20.284  0.00  0.00    +0.230 C 
ENDROOT
BRANCH   7  10
ATOM     10  N   UNL     1      35.819 -22.048 -16.790  0.00  0.00    -0.299 N 
ATOM     11  H   UNL     1      36.648 -21.701 -17.191  0.00  0.00    +0.153 HD
BRANCH  10  12
ATOM     12  C   UNL     1      35.959 -22.672 -15.545  0.00  0.00    +0.049 C 
ATOM     13  C   UNL     1      34.908 -22.654 -14.620  0.00  0.00    +0.016 C 
ATOM     14  C   UNL     1      37.154 -23.321 -15.209  0.00  0.00    +0.016 C 
ATOM     15  C   UNL     1      36.242 -23.920 -13.053  0.00  0.00    +0.122 C 
ATOM     16  C   UNL     1      35.048 -23.276 -13.380  0.00  0.00    +0.021 C 
ATOM     17  C   UNL     1      37.295 -23.943 -13.968  0.00  0.00    +0.021 C 
BRANCH  15  18
ATOM     18  S   UNL     1      36.418 -24.698 -11.500  0.00  0.00    +0.057 S 
ATOM     19  O   UNL     1      36.773 -26.092 -11.722  0.00  0.00    -0.153 OA
ATOM     20  O   UNL     1      37.261 -23.863 -10.657  0.00  0.00    -0.153 OA
BRANCH  18  21
ATOM     21  N   UNL     1      34.813 -24.623 -10.916  0.00  0.00    -0.203 NA
ATOM     22  H   UNL     1      34.665 -23.729 -10.448  0.00  0.00    +0.144 HD
ATOM     23  H   UNL     1      34.656 -25.383 -10.255  0.00  0.00    +0.144 HD
ENDBRANCH  18  21
ENDBRANCH  15  18
ENDBRANCH  10  12
ENDBRANCH   7  10
BRANCH   5  24
ATOM     24  O   UNL     1      31.228 -22.599 -17.755  0.00  0.00    -0.451 OA
BRANCH  24  25
ATOM     25  C   UNL     1      30.753 -22.194 -16.486  0.00  0.00    +0.208 C 
BRANCH  25  26
ATOM     26  C   UNL     1      30.719 -23.416 -15.569  0.00  0.00    +0.044 C 
ATOM     27  C   UNL     1      31.358 -23.092 -14.211  0.00  0.00    +0.004 C 
ATOM     28  C   UNL     1      29.281 -23.920 -15.390  0.00  0.00    +0.004 C 
ATOM     29  C   UNL     1      31.290 -24.284 -13.258  0.00  0.00    +0.000 C 
ATOM     30  C   UNL     1      29.216 -25.110 -14.434  0.00  0.00    +0.000 C 
ATOM     31  C   UNL     1      29.860 -24.787 -13.090  0.00  0.00    +0.000 C 
ENDBRANCH  25  26
ENDBRANCH  24  25
ENDBRANCH   5  24
TORSDOF 7
ENDMDL
MODEL 9
REMARK VINA RESULT:     -10.9      6.498     11.527
REMARK  Name = 23586145
REMARK  7 active torsions:
REMARK  status: ('A' for Active; 'I' for Inactive)
REMARK    1  A    between atoms: C_5  and  O_24
REMARK    2  A    between atoms: C_7  and  N_10
REMARK    3  A    between atoms: N_10  and  C_12
REMARK    4  A    between atoms: C_15  and  S_18
REMARK    5  A    between atoms: S_18  and  N_21
REMARK    6  A    between atoms: O_24  and  C_25
REMARK    7  A    between atoms: C_25  and  C_26
REMARK                            x       y       z     vdW  Elec       q    Type
REMARK                         _______ _______ _______ _____ _____    ______ ____
ROOT
ATOM      1  N   UNL     1      32.642 -13.109 -22.747  0.00  0.00    -0.299 NA
ATOM      2  N   UNL     1      33.807 -14.922 -23.816  0.00  0.00    -0.106 N 
ATOM      3  N   UNL     1      33.982 -15.408 -25.073  0.00  0.00    -0.139 NA
ATOM      4  N   UNL     1      32.640 -13.569 -25.131  0.00  0.00    -0.145 NA
ATOM      5  C   UNL     1      33.134 -13.574 -21.644  0.00  0.00    +0.291 C 
ATOM      6  C   UNL     1      34.013 -14.751 -21.471  0.00  0.00    +0.105 C 
ATOM      7  C   UNL     1      34.326 -15.403 -22.605  0.00  0.00    +0.142 C 
ATOM      8  C   UNL     1      32.979 -13.794 -23.877  0.00  0.00    +0.178 C 
ATOM      9  C   UNL     1      33.266 -14.564 -25.809  0.00  0.00    +0.230 C 
ENDROOT
BRANCH   7  10
ATOM     10  N   UNL     1      35.123 -16.511 -22.655  0.00  0.00    -0.299 N 
ATOM     11  H   UNL     1      35.836 -16.495 -23.334  0.00  0.00    +0.153 HD
BRANCH  10  12
ATOM     12  C   UNL     1      35.056 -17.666 -21.867  0.00  0.00    +0.049 C 
ATOM     13  C   UNL     1      36.160 -18.070 -21.106  0.00  0.00    +0.016 C 
ATOM     14  C   UNL     1      33.884 -18.431 -21.831  0.00  0.00    +0.016 C 
ATOM     15  C   UNL     1      34.922 -19.978 -20.291  0.00  0.00    +0.122 C 
ATOM     16  C   UNL     1      36.093 -19.221 -20.322  0.00  0.00    +0.021 C 
ATOM     17  C   UNL     1      33.817 -19.583 -21.046  0.00  0.00    +0.021 C 
BRANCH  15  18
ATOM     18  S   UNL     1      34.838 -21.419 -19.309  0.00  0.00    +0.057 S 
ATOM     19  O   UNL     1      34.913 -22.578 -20.187  0.00  0.00    -0.153 OA
ATOM     20  O   UNL     1      35.781 -21.283 -18.208  0.00  0.00    -0.153 OA
BRANCH  18  21
ATOM     21  N   UNL     1      33.250 -21.297 -18.689  0.00  0.00    -0.203 NA
ATOM     22  H   UNL     1      33.285 -20.939 -17.735  0.00  0.00    +0.144 HD
ATOM     23  H   UNL     1      32.813 -22.218 -18.691  0.00  0.00    +0.144 HD
ENDBRANCH  18  21
ENDBRANCH  15  18
ENDBRANCH  10  12
ENDBRANCH   7  10
BRANCH   5  24
ATOM     24  O   UNL     1      32.861 -12.974 -20.489  0.00  0.00    -0.451 OA
BRANCH  24  25
ATOM     25  C   UNL     1      31.636 -12.267 -20.451  0.00  0.00    +0.208 C 
BRANCH  25  26
ATOM     26  C   UNL     1      31.938 -10.771 -20.508  0.00  0.00    +0.044 C 
ATOM     27  C   UNL     1      31.360 -10.150 -21.787  0.00  0.00    +0.004 C 
ATOM     28  C   UNL     1      31.394 -10.060 -19.262  0.00  0.00    +0.004 C 
ATOM     29  C   UNL     1      31.604  -8.643 -21.842  0.00  0.00    +0.000 C 
ATOM     30  C   UNL     1      31.638  -8.553 -19.321  0.00  0.00    +0.000 C 
ATOM     31  C   UNL     1      31.070  -7.942 -20.597  0.00  0.00    +0.000 C 
ENDBRANCH  25  26
ENDBRANCH  24  25
ENDBRANCH   5  24
TORSDOF 7
ENDMDL
