MODEL 1
REMARK VINA RESULT:     -12.0      0.000      0.000
REMARK  Name = 638024
REMARK  3 active torsions:
REMARK  status: ('A' for Active; 'I' for Inactive)
REMARK    1  A    between atoms: C_1  and  C_13
REMARK    2  A    between atoms: C_2  and  C_6
REMARK    3  A    between atoms: C_12  and  C_21
REMARK                            x       y       z     vdW  Elec       q    Type
REMARK                         _______ _______ _______ _____ _____    ______ ____
ROOT
ATOM      1  C   UNL     1      34.392 -15.442 -22.495  0.00  0.00    +0.000 C 
ATOM      2  C   UNL     1      33.923 -14.542 -21.616  0.00  0.00    +0.000 C 
ENDROOT
BRANCH   2   6
ATOM      3  O   UNL     1      30.718 -10.916 -20.825  0.00  0.00    -0.435 OA
ATOM      4  O   UNL     1      31.341  -9.777 -22.856  0.00  0.00    -0.435 OA
ATOM      5  C   UNL     1      31.690 -11.576 -21.511  0.00  0.00    +0.176 C 
ATOM      6  C   UNL     1      33.259 -13.277 -21.975  0.00  0.00    +0.003 C 
ATOM      7  C   UNL     1      32.046 -10.926 -22.670  0.00  0.00    +0.176 C 
ATOM      8  C   UNL     1      32.283 -12.763 -21.132  0.00  0.00    +0.040 C 
ATOM      9  C   UNL     1      33.630 -12.628 -23.156  0.00  0.00    +0.003 C 
ATOM     10  C   UNL     1      33.014 -11.428 -23.515  0.00  0.00    +0.040 C 
ATOM     11  C   UNL     1      30.501  -9.777 -21.683  0.00  0.00    +0.429 C 
ENDBRANCH   2   6
BRANCH   1  13
ATOM     12  C   UNL     1      34.754 -17.266 -20.927  0.00  0.00    +0.058 C 
ATOM     13  C   UNL     1      35.031 -16.675 -22.088  0.00  0.00    +0.005 C 
BRANCH  12  21
ATOM     14  O   UNL     1      36.681 -18.471 -20.469  0.00  0.00    -0.270 OA
ATOM     15  N   UNL     1      34.693 -19.680 -20.472  0.00  0.00    -0.276 N 
ATOM     16  C   UNL     1      33.231 -21.800 -19.138  0.00  0.00    +0.004 C 
ATOM     17  C   UNL     1      34.733 -21.621 -18.943  0.00  0.00    +0.022 C 
ATOM     18  C   UNL     1      32.569 -20.467 -19.473  0.00  0.00    +0.022 C 
ATOM     19  C   UNL     1      35.364 -20.944 -20.155  0.00  0.00    +0.094 C 
ATOM     20  C   UNL     1      33.239 -19.788 -20.668  0.00  0.00    +0.094 C 
ATOM     21  C   UNL     1      35.458 -18.522 -20.602  0.00  0.00    +0.249 C 
ENDBRANCH  12  21
ENDBRANCH   1  13
TORSDOF 3
ENDMDL
MODEL 2
REMARK VINA RESULT:     -11.5      2.838      9.000
REMARK  Name = 638024
REMARK  3 active torsions:
REMARK  status: ('A' for Active; 'I' for Inactive)
REMARK    1  A    between atoms: C_1  and  C_13
REMARK    2  A    between atoms: C_2  and  C_6
REMARK    3  A    between atoms: C_12  and  C_21
REMARK                            x       y       z     vdW  Elec       q    Type
REMARK                         _______ _______ _______ _____ _____    ______ ____
ROOT
ATOM      1  C   UNL     1      34.921 -17.827 -21.192  0.00  0.00    +0.000 C 
ATOM      2  C   UNL     1      33.972 -18.769 -21.068  0.00  0.00    +0.000 C 
ENDROOT
BRANCH   2   6
ATOM      3  O   UNL     1      31.889 -22.075 -18.105  0.00  0.00    -0.435 OA
ATOM      4  O   UNL     1      34.017 -23.029 -17.496  0.00  0.00    -0.435 OA
ATOM      5  C   UNL     1      32.930 -21.453 -18.723  0.00  0.00    +0.176 C 
ATOM      6  C   UNL     1      34.021 -19.898 -20.124  0.00  0.00    +0.003 C 
ATOM      7  C   UNL     1      34.145 -21.997 -18.375  0.00  0.00    +0.176 C 
ATOM      8  C   UNL     1      32.834 -20.394 -19.602  0.00  0.00    +0.040 C 
ATOM      9  C   UNL     1      35.261 -20.441 -19.781  0.00  0.00    +0.003 C 
ATOM     10  C   UNL     1      35.330 -21.513 -18.888  0.00  0.00    +0.040 C 
ATOM     11  C   UNL     1      32.585 -23.072 -17.330  0.00  0.00    +0.429 C 
ENDBRANCH   2   6
BRANCH   1  13
ATOM     12  C   UNL     1      34.200 -15.593 -21.827  0.00  0.00    +0.058 C 
ATOM     13  C   UNL     1      34.820 -16.731 -22.132  0.00  0.00    +0.005 C 
BRANCH  12  21
ATOM     14  O   UNL     1      34.540 -14.819 -23.986  0.00  0.00    -0.270 OA
ATOM     15  N   UNL     1      33.669 -13.281 -22.473  0.00  0.00    -0.276 N 
ATOM     16  C   UNL     1      31.767 -11.114 -22.158  0.00  0.00    +0.004 C 
ATOM     17  C   UNL     1      32.223 -11.582 -23.536  0.00  0.00    +0.022 C 
ATOM     18  C   UNL     1      31.847 -12.255 -21.149  0.00  0.00    +0.022 C 
ATOM     19  C   UNL     1      33.613 -12.207 -23.469  0.00  0.00    +0.094 C 
ATOM     20  C   UNL     1      33.237 -12.890 -21.122  0.00  0.00    +0.094 C 
ATOM     21  C   UNL     1      34.150 -14.533 -22.854  0.00  0.00    +0.249 C 
ENDBRANCH  12  21
ENDBRANCH   1  13
TORSDOF 3
ENDMDL
MODEL 3
REMARK VINA RESULT:     -11.5      3.789      9.588
REMARK  Name = 638024
REMARK  3 active torsions:
REMARK  status: ('A' for Active; 'I' for Inactive)
REMARK    1  A    between atoms: C_1  and  C_13
REMARK    2  A    between atoms: C_2  and  C_6
REMARK    3  A    between atoms: C_12  and  C_21
REMARK                            x       y       z     vdW  Elec       q    Type
REMARK                         _______ _______ _______ _____ _____    ______ ____
ROOT
ATOM      1  C   UNL     1      33.472 -20.149 -20.075  0.00  0.00    +0.000 C 
ATOM      2  C   UNL     1      34.663 -20.579 -19.627  0.00  0.00    +0.000 C 
ENDROOT
BRANCH   2   6
ATOM      3  O   UNL     1      37.416 -22.079 -15.857  0.00  0.00    -0.435 OA
ATOM      4  O   UNL     1      35.598 -23.332 -14.889  0.00  0.00    -0.435 OA
ATOM      5  C   UNL     1      36.275 -21.991 -16.595  0.00  0.00    +0.176 C 
ATOM      6  C   UNL     1      34.875 -21.320 -18.373  0.00  0.00    +0.003 C 
ATOM      7  C   UNL     1      35.238 -22.706 -16.042  0.00  0.00    +0.176 C 
ATOM      8  C   UNL     1      36.125 -21.282 -17.769  0.00  0.00    +0.040 C 
ATOM      9  C   UNL     1      33.813 -22.042 -17.823  0.00  0.00    +0.003 C 
ATOM     10  C   UNL     1      33.993 -22.751 -16.634  0.00  0.00    +0.040 C 
ATOM     11  C   UNL     1      36.979 -22.930 -14.777  0.00  0.00    +0.429 C 
ENDBRANCH   2   6
BRANCH   1  13
ATOM     12  C   UNL     1      34.359 -18.940 -21.990  0.00  0.00    +0.058 C 
ATOM     13  C   UNL     1      33.317 -19.430 -21.322  0.00  0.00    +0.005 C 
BRANCH  12  21
ATOM     14  O   UNL     1      33.691 -18.883 -24.210  0.00  0.00    -0.270 OA
ATOM     15  N   UNL     1      34.334 -16.848 -23.282  0.00  0.00    -0.276 N 
ATOM     16  C   UNL     1      33.724 -14.014 -23.184  0.00  0.00    +0.004 C 
ATOM     17  C   UNL     1      33.176 -14.911 -24.289  0.00  0.00    +0.022 C 
ATOM     18  C   UNL     1      33.973 -14.819 -21.912  0.00  0.00    +0.022 C 
ATOM     19  C   UNL     1      34.089 -16.109 -24.524  0.00  0.00    +0.094 C 
ATOM     20  C   UNL     1      34.861 -16.035 -22.176  0.00  0.00    +0.094 C 
ATOM     21  C   UNL     1      34.098 -18.222 -23.254  0.00  0.00    +0.249 C 
ENDBRANCH  12  21
ENDBRANCH   1  13
TORSDOF 3
ENDMDL
MODEL 4
REMARK VINA RESULT:     -11.3      3.771      5.718
REMARK  Name = 638024
REMARK  3 active torsions:
REMARK  status: ('A' for Active; 'I' for Inactive)
REMARK    1  A    between atoms: C_1  and  C_13
REMARK    2  A    between atoms: C_2  and  C_6
REMARK    3  A    between atoms: C_12  and  C_21
REMARK                            x       y       z     vdW  Elec       q    Type
REMARK                         _______ _______ _______ _____ _____    ______ ____
ROOT
ATOM      1  C   UNL     1      35.100 -20.222 -20.311  0.00  0.00    +0.000 C 
ATOM      2  C   UNL     1      35.489 -19.032 -20.796  0.00  0.00    +0.000 C 
ENDROOT
BRANCH   2   6
ATOM      3  O   UNL     1      34.361 -15.041 -23.414  0.00  0.00    -0.435 OA
ATOM      4  O   UNL     1      33.230 -16.337 -25.103  0.00  0.00    -0.435 OA
ATOM      5  C   UNL     1      34.383 -16.375 -23.143  0.00  0.00    +0.176 C 
ATOM      6  C   UNL     1      34.879 -18.350 -21.950  0.00  0.00    +0.003 C 
ATOM      7  C   UNL     1      33.737 -17.115 -24.107  0.00  0.00    +0.176 C 
ATOM      8  C   UNL     1      34.969 -16.968 -22.044  0.00  0.00    +0.040 C 
ATOM      9  C   UNL     1      34.227 -19.114 -22.921  0.00  0.00    +0.003 C 
ATOM     10  C   UNL     1      33.642 -18.488 -24.024  0.00  0.00    +0.040 C 
ATOM     11  C   UNL     1      33.630 -15.025 -24.657  0.00  0.00    +0.429 C 
ENDBRANCH   2   6
BRANCH   1  13
ATOM     12  C   UNL     1      35.027 -21.279 -18.121  0.00  0.00    +0.058 C 
ATOM     13  C   UNL     1      35.730 -20.845 -19.166  0.00  0.00    +0.005 C 
BRANCH  12  21
ATOM     14  O   UNL     1      36.966 -21.661 -16.907  0.00  0.00    -0.270 OA
ATOM     15  N   UNL     1      35.045 -22.721 -16.131  0.00  0.00    -0.276 N 
ATOM     16  C   UNL     1      33.581 -23.476 -13.743  0.00  0.00    +0.004 C 
ATOM     17  C   UNL     1      35.052 -23.076 -13.685  0.00  0.00    +0.022 C 
ATOM     18  C   UNL     1      32.886 -22.801 -14.923  0.00  0.00    +0.022 C 
ATOM     19  C   UNL     1      35.748 -23.357 -15.012  0.00  0.00    +0.094 C 
ATOM     20  C   UNL     1      33.619 -23.066 -16.237  0.00  0.00    +0.094 C 
ATOM     21  C   UNL     1      35.761 -21.901 -17.001  0.00  0.00    +0.249 C 
ENDBRANCH  12  21
ENDBRANCH   1  13
TORSDOF 3
ENDMDL
MODEL 5
REMARK VINA RESULT:     -11.1      3.756      9.693
REMARK  Name = 638024
REMARK  3 active torsions:
REMARK  status: ('A' for Active; 'I' for Inactive)
REMARK    1  A    between atoms: C_1  and  C_13
REMARK    2  A    between atoms: C_2  and  C_6
REMARK    3  A    between atoms: C_12  and  C_21
REMARK                            x       y       z     vdW  Elec       q    Type
REMARK                         _______ _______ _______ _____ _____    ______ ____
ROOT
ATOM      1  C   UNL     1      34.298 -20.595 -19.888  0.00  0.00    +0.000 C 
ATOM      2  C   UNL     1      35.453 -20.744 -19.219  0.00  0.00    +0.000 C 
ENDROOT
BRANCH   2   6
ATOM      3  O   UNL     1      33.765 -23.374 -15.440  0.00  0.00    -0.435 OA
ATOM      4  O   UNL     1      35.824 -23.126 -14.210  0.00  0.00    -0.435 OA
ATOM      5  C   UNL     1      34.689 -22.640 -16.119  0.00  0.00    +0.176 C 
ATOM      6  C   UNL     1      35.586 -21.362 -17.889  0.00  0.00    +0.003 C 
ATOM      7  C   UNL     1      35.864 -22.499 -15.417  0.00  0.00    +0.176 C 
ATOM      8  C   UNL     1      34.517 -22.079 -17.368  0.00  0.00    +0.040 C 
ATOM      9  C   UNL     1      36.785 -21.210 -17.188  0.00  0.00    +0.003 C 
ATOM     10  C   UNL     1      36.931 -21.789 -15.925  0.00  0.00    +0.040 C 
ATOM     11  C   UNL     1      34.491 -23.678 -14.232  0.00  0.00    +0.429 C 
ENDBRANCH   2   6
BRANCH   1  13
ATOM     12  C   UNL     1      34.317 -18.670 -21.374  0.00  0.00    +0.058 C 
ATOM     13  C   UNL     1      34.225 -19.987 -21.199  0.00  0.00    +0.005 C 
BRANCH  12  21
ATOM     14  O   UNL     1      34.029 -18.954 -23.657  0.00  0.00    -0.270 OA
ATOM     15  N   UNL     1      34.389 -16.772 -22.934  0.00  0.00    -0.276 N 
ATOM     16  C   UNL     1      33.610 -14.006 -23.334  0.00  0.00    +0.004 C 
ATOM     17  C   UNL     1      33.307 -15.079 -24.374  0.00  0.00    +0.022 C 
ATOM     18  C   UNL     1      33.688 -14.617 -21.938  0.00  0.00    +0.022 C 
ATOM     19  C   UNL     1      34.314 -16.221 -24.291  0.00  0.00    +0.094 C 
ATOM     20  C   UNL     1      34.676 -15.783 -21.885  0.00  0.00    +0.094 C 
ATOM     21  C   UNL     1      34.231 -18.144 -22.751  0.00  0.00    +0.249 C 
ENDBRANCH  12  21
ENDBRANCH   1  13
TORSDOF 3
ENDMDL
MODEL 6
REMARK VINA RESULT:     -11.1      3.357      9.534
REMARK  Name = 638024
REMARK  3 active torsions:
REMARK  status: ('A' for Active; 'I' for Inactive)
REMARK    1  A    between atoms: C_1  and  C_13
REMARK    2  A    between atoms: C_2  and  C_6
REMARK    3  A    between atoms: C_12  and  C_21
REMARK                            x       y       z     vdW  Elec       q    Type
REMARK                         _______ _______ _______ _____ _____    ______ ____
ROOT
ATOM      1  C   UNL     1      32.251 -12.996 -20.884  0.00  0.00    +0.000 C 
ATOM      2  C   UNL     1      33.405 -13.255 -21.520  0.00  0.00    +0.000 C 
ENDROOT
BRANCH   2   6
ATOM      3  O   UNL     1      35.088 -17.754 -20.533  0.00  0.00    -0.435 OA
ATOM      4  O   UNL     1      35.181 -18.348 -22.867  0.00  0.00    -0.435 OA
ATOM      5  C   UNL     1      34.676 -16.739 -21.342  0.00  0.00    +0.176 C 
ATOM      6  C   UNL     1      33.870 -14.596 -21.912  0.00  0.00    +0.003 C 
ATOM      7  C   UNL     1      34.730 -17.079 -22.674  0.00  0.00    +0.176 C 
ATOM      8  C   UNL     1      34.248 -15.496 -20.925  0.00  0.00    +0.040 C 
ATOM      9  C   UNL     1      33.919 -14.926 -23.269  0.00  0.00    +0.003 C 
ATOM     10  C   UNL     1      34.358 -16.192 -23.663  0.00  0.00    +0.040 C 
ATOM     11  C   UNL     1      35.405 -18.770 -21.506  0.00  0.00    +0.429 C 
ENDBRANCH   2   6
BRANCH   1  13
ATOM     12  C   UNL     1      31.612 -10.717 -21.445  0.00  0.00    +0.058 C 
ATOM     13  C   UNL     1      31.836 -11.656 -20.528  0.00  0.00    +0.005 C 
BRANCH  12  21
ATOM     14  O   UNL     1      30.520  -9.319 -19.952  0.00  0.00    -0.270 OA
ATOM     15  N   UNL     1      31.578  -8.278 -21.744  0.00  0.00    -0.276 N 
ATOM     16  C   UNL     1      33.149  -5.967 -22.523  0.00  0.00    +0.004 C 
ATOM     17  C   UNL     1      32.368  -5.996 -21.214  0.00  0.00    +0.022 C 
ATOM     18  C   UNL     1      33.548  -7.379 -22.943  0.00  0.00    +0.022 C 
ATOM     19  C   UNL     1      31.172  -6.937 -21.312  0.00  0.00    +0.094 C 
ATOM     20  C   UNL     1      32.340  -8.314 -23.001  0.00  0.00    +0.094 C 
ATOM     21  C   UNL     1      31.192  -9.379 -20.982  0.00  0.00    +0.249 C 
ENDBRANCH  12  21
ENDBRANCH   1  13
TORSDOF 3
ENDMDL
MODEL 7
REMARK VINA RESULT:     -11.0      3.698      5.826
REMARK  Name = 638024
REMARK  3 active torsions:
REMARK  status: ('A' for Active; 'I' for Inactive)
REMARK    1  A    between atoms: C_1  and  C_13
REMARK    2  A    between atoms: C_2  and  C_6
REMARK    3  A    between atoms: C_12  and  C_21
REMARK                            x       y       z     vdW  Elec       q    Type
REMARK                         _______ _______ _______ _____ _____    ______ ____
ROOT
ATOM      1  C   UNL     1      32.936 -20.142 -20.229  0.00  0.00    +0.000 C 
ATOM      2  C   UNL     1      34.021 -19.489 -20.675  0.00  0.00    +0.000 C 
ENDROOT
BRANCH   2   6
ATOM      3  O   UNL     1      34.748 -15.132 -22.806  0.00  0.00    -0.435 OA
ATOM      4  O   UNL     1      34.150 -15.977 -24.983  0.00  0.00    -0.435 OA
ATOM      5  C   UNL     1      34.420 -16.453 -22.776  0.00  0.00    +0.176 C 
ATOM      6  C   UNL     1      34.044 -18.586 -21.838  0.00  0.00    +0.003 C 
ATOM      7  C   UNL     1      34.078 -16.935 -24.019  0.00  0.00    +0.176 C 
ATOM      8  C   UNL     1      34.413 -17.260 -21.657  0.00  0.00    +0.040 C 
ATOM      9  C   UNL     1      33.695 -19.090 -23.094  0.00  0.00    +0.003 C 
ATOM     10  C   UNL     1      33.711 -18.251 -24.210  0.00  0.00    +0.040 C 
ATOM     11  C   UNL     1      34.575 -14.838 -24.207  0.00  0.00    +0.429 C 
ENDBRANCH   2   6
BRANCH   1  13
ATOM     12  C   UNL     1      34.065 -21.671 -18.711  0.00  0.00    +0.058 C 
ATOM     13  C   UNL     1      32.966 -21.013 -19.073  0.00  0.00    +0.005 C 
BRANCH  12  21
ATOM     14  O   UNL     1      33.104 -23.384 -17.479  0.00  0.00    -0.270 OA
ATOM     15  N   UNL     1      34.939 -22.331 -16.511  0.00  0.00    -0.276 N 
ATOM     16  C   UNL     1      37.348 -22.770 -14.956  0.00  0.00    +0.004 C 
ATOM     17  C   UNL     1      36.244 -23.819 -15.030  0.00  0.00    +0.022 C 
ATOM     18  C   UNL     1      37.361 -21.912 -16.218  0.00  0.00    +0.022 C 
ATOM     19  C   UNL     1      34.892 -23.171 -15.310  0.00  0.00    +0.094 C 
ATOM     20  C   UNL     1      35.988 -21.301 -16.500  0.00  0.00    +0.094 C 
ATOM     21  C   UNL     1      33.996 -22.536 -17.517  0.00  0.00    +0.249 C 
ENDBRANCH  12  21
ENDBRANCH   1  13
TORSDOF 3
ENDMDL
MODEL 8
REMARK VINA RESULT:     -11.0      5.076      8.378
REMARK  Name = 638024
REMARK  3 active torsions:
REMARK  status: ('A' for Active; 'I' for Inactive)
REMARK    1  A    between atoms: C_1  and  C_13
REMARK    2  A    between atoms: C_2  and  C_6
REMARK    3  A    between atoms: C_12  and  C_21
REMARK                            x       y       z     vdW  Elec       q    Type
REMARK                         _______ _______ _______ _____ _____    ______ ____
ROOT
ATOM      1  C   UNL     1      36.504 -20.840 -17.224  0.00  0.00    +0.000 C 
ATOM      2  C   UNL     1      36.115 -21.302 -18.423  0.00  0.00    +0.000 C 
ENDROOT
BRANCH   2   6
ATOM      3  O   UNL     1      36.133 -17.875 -21.931  0.00  0.00    -0.435 OA
ATOM      4  O   UNL     1      33.789 -18.185 -22.396  0.00  0.00    -0.435 OA
ATOM      5  C   UNL     1      35.571 -18.830 -21.141  0.00  0.00    +0.176 C 
ATOM      6  C   UNL     1      35.466 -20.493 -19.469  0.00  0.00    +0.003 C 
ATOM      7  C   UNL     1      34.232 -19.007 -21.406  0.00  0.00    +0.176 C 
ATOM      8  C   UNL     1      36.223 -19.563 -20.170  0.00  0.00    +0.040 C 
ATOM      9  C   UNL     1      34.107 -20.683 -19.728  0.00  0.00    +0.003 C 
ATOM     10  C   UNL     1      33.472 -19.927 -20.716  0.00  0.00    +0.040 C 
ATOM     11  C   UNL     1      34.998 -17.471 -22.724  0.00  0.00    +0.429 C 
ENDBRANCH   2   6
BRANCH   1  13
ATOM     12  C   UNL     1      36.490 -22.641 -15.589  0.00  0.00    +0.058 C 
ATOM     13  C   UNL     1      37.146 -21.678 -16.233  0.00  0.00    +0.005 C 
BRANCH  12  21
ATOM     14  O   UNL     1      38.444 -23.583 -14.768  0.00  0.00    -0.270 OA
ATOM     15  N   UNL     1      36.513 -23.990 -13.534  0.00  0.00    -0.276 N 
ATOM     16  C   UNL     1      35.451 -24.225 -10.845  0.00  0.00    +0.004 C 
ATOM     17  C   UNL     1      36.949 -24.295 -11.121  0.00  0.00    +0.022 C 
ATOM     18  C   UNL     1      34.747 -23.386 -11.909  0.00  0.00    +0.022 C 
ATOM     19  C   UNL     1      37.223 -24.795 -12.535  0.00  0.00    +0.094 C 
ATOM     20  C   UNL     1      35.063 -23.882 -13.320  0.00  0.00    +0.094 C 
ATOM     21  C   UNL     1      37.232 -23.443 -14.596  0.00  0.00    +0.249 C 
ENDBRANCH  12  21
ENDBRANCH   1  13
TORSDOF 3
ENDMDL
MODEL 9
REMARK VINA RESULT:     -10.6      3.797      6.187
REMARK  Name = 638024
REMARK  3 active torsions:
REMARK  status: ('A' for Active; 'I' for Inactive)
REMARK    1  A    between atoms: C_1  and  C_13
REMARK    2  A    between atoms: C_2  and  C_6
REMARK    3  A    between atoms: C_12  and  C_21
REMARK                            x       y       z     vdW  Elec       q    Type
REMARK                         _______ _______ _______ _____ _____    ______ ____
ROOT
ATOM      1  C   UNL     1      33.521 -20.358 -19.855  0.00  0.00    +0.000 C 
ATOM      2  C   UNL     1      34.526 -19.766 -20.520  0.00  0.00    +0.000 C 
ENDROOT
BRANCH   2   6
ATOM      3  O   UNL     1      34.722 -15.330 -22.601  0.00  0.00    -0.435 OA
ATOM      4  O   UNL     1      33.937 -16.170 -24.719  0.00  0.00    -0.435 OA
ATOM      5  C   UNL     1      34.486 -16.670 -22.571  0.00  0.00    +0.176 C 
ATOM      6  C   UNL     1      34.358 -18.841 -21.654  0.00  0.00    +0.003 C 
ATOM      7  C   UNL     1      34.037 -17.150 -23.780  0.00  0.00    +0.176 C 
ATOM      8  C   UNL     1      34.658 -17.497 -21.479  0.00  0.00    +0.040 C 
ATOM      9  C   UNL     1      33.902 -19.343 -22.876  0.00  0.00    +0.003 C 
ATOM     10  C   UNL     1      33.736 -18.483 -23.964  0.00  0.00    +0.040 C 
ATOM     11  C   UNL     1      34.372 -15.020 -23.966  0.00  0.00    +0.429 C 
ENDBRANCH   2   6
BRANCH   1  13
ATOM     12  C   UNL     1      32.734 -21.823 -18.080  0.00  0.00    +0.058 C 
ATOM     13  C   UNL     1      33.741 -21.255 -18.740  0.00  0.00    +0.005 C 
BRANCH  12  21
ATOM     14  O   UNL     1      34.222 -23.123 -16.866  0.00  0.00    -0.270 OA
ATOM     15  N   UNL     1      32.034 -23.064 -16.077  0.00  0.00    -0.276 N 
ATOM     16  C   UNL     1      30.404 -22.963 -13.680  0.00  0.00    +0.004 C 
ATOM     17  C   UNL     1      31.876 -23.359 -13.628  0.00  0.00    +0.022 C 
ATOM     18  C   UNL     1      30.137 -22.037 -14.863  0.00  0.00    +0.022 C 
ATOM     19  C   UNL     1      32.327 -23.961 -14.954  0.00  0.00    +0.094 C 
ATOM     20  C   UNL     1      30.629 -22.644 -16.177  0.00  0.00    +0.094 C 
ATOM     21  C   UNL     1      33.061 -22.724 -16.956  0.00  0.00    +0.249 C 
ENDBRANCH  12  21
ENDBRANCH   1  13
TORSDOF 3
ENDMDL
