MODEL 1
REMARK VINA RESULT:     -11.9      0.000      0.000
REMARK  Name = 448955
REMARK  8 active torsions:
REMARK  status: ('A' for Active; 'I' for Inactive)
REMARK    1  A    between atoms: C_1  and  N_8
REMARK    2  A    between atoms: C_2  and  O_19
REMARK    3  A    between atoms: N_8  and  S_10
REMARK    4  A    between atoms: S_10  and  C_13
REMARK    5  A    between atoms: O_19  and  C_20
REMARK    6  A    between atoms: C_20  and  C_21
REMARK    7  A    between atoms: C_21  and  N_22
REMARK    8  A    between atoms: N_22  and  C_25
REMARK                            x       y       z     vdW  Elec       q    Type
REMARK                         _______ _______ _______ _____ _____    ______ ____
ROOT
ATOM      1  C   UNL     1      34.319 -20.106 -20.404  0.00  0.00    +0.067 C 
ATOM      2  C   UNL     1      35.385 -21.277 -18.579  0.00  0.00    +0.140 C 
ATOM      3  C   UNL     1      32.975 -21.252 -18.757  0.00  0.00    -0.018 C 
ATOM      4  C   UNL     1      35.477 -20.505 -19.737  0.00  0.00    +0.053 C 
ATOM      5  C   UNL     1      33.068 -20.480 -19.915  0.00  0.00    +0.012 C 
ATOM      6  C   UNL     1      34.133 -21.651 -18.090  0.00  0.00    +0.033 C 
ATOM      7  C   UNL     1      31.637 -21.652 -18.234  0.00  0.00    +0.031 C 
ENDROOT
BRANCH   1   8
ATOM      8  N   UNL     1      34.415 -19.315 -21.589  0.00  0.00    -0.215 N 
ATOM      9  H   UNL     1      33.923 -19.570 -22.403  0.00  0.00    +0.174 HD
BRANCH   8  10
ATOM     10  S   UNL     1      35.408 -17.907 -21.569  0.00  0.00    +0.074 S 
ATOM     11  O   UNL     1      35.274 -17.253 -20.281  0.00  0.00    -0.150 OA
ATOM     12  O   UNL     1      36.728 -18.223 -22.083  0.00  0.00    -0.150 OA
BRANCH  10  13
ATOM     13  C   UNL     1      34.600 -16.874 -22.756  0.00  0.00    +0.125 C 
ATOM     14  C   UNL     1      34.526 -15.513 -22.524  0.00  0.00    +0.020 C 
ATOM     15  C   UNL     1      34.057 -17.449 -23.891  0.00  0.00    +0.020 C 
ATOM     16  C   UNL     1      33.888 -14.698 -23.460  0.00  0.00    +0.001 C 
ATOM     17  C   UNL     1      33.420 -16.634 -24.827  0.00  0.00    +0.001 C 
ATOM     18  C   UNL     1      33.336 -15.259 -24.611  0.00  0.00    +0.000 C 
ENDBRANCH  10  13
ENDBRANCH   8  10
ENDBRANCH   1   8
BRANCH   2  19
ATOM     19  O   UNL     1      36.514 -21.666 -17.927  0.00  0.00    -0.474 OA
BRANCH  19  20
ATOM     20  C   UNL     1      36.829 -20.986 -16.713  0.00  0.00    +0.226 C 
BRANCH  20  21
ATOM     21  C   UNL     1      36.881 -21.987 -15.572  0.00  0.00    +0.135 C 
BRANCH  21  22
ATOM     22  N   UNL     1      37.963 -22.920 -15.781  0.00  0.00    -0.330 N 
ATOM     23  H   UNL     1      38.478 -22.854 -16.617  0.00  0.00    +0.147 HD
BRANCH  22  25
ATOM     24  N   UNL     1      39.025 -25.857 -13.063  0.00  0.00    -0.328 N 
ATOM     25  C   UNL     1      38.318 -23.903 -14.871  0.00  0.00    +0.043 C 
ATOM     26  C   UNL     1      39.536 -24.592 -14.993  0.00  0.00    +0.009 C 
ATOM     27  C   UNL     1      37.471 -24.238 -13.802  0.00  0.00    +0.030 C 
ATOM     28  C   UNL     1      39.866 -25.571 -14.066  0.00  0.00    +0.115 C 
ATOM     29  C   UNL     1      37.854 -25.226 -12.907  0.00  0.00    +0.059 C 
ATOM     30  H   UNL     1      39.278 -26.555 -12.417  0.00  0.00    +0.147 HD
ENDBRANCH  22  25
ENDBRANCH  21  22
ENDBRANCH  20  21
ENDBRANCH  19  20
ENDBRANCH   2  19
TORSDOF 8
ENDMDL
MODEL 2
REMARK VINA RESULT:     -11.4      4.946     11.855
REMARK  Name = 448955
REMARK  8 active torsions:
REMARK  status: ('A' for Active; 'I' for Inactive)
REMARK    1  A    between atoms: C_1  and  N_8
REMARK    2  A    between atoms: C_2  and  O_19
REMARK    3  A    between atoms: N_8  and  S_10
REMARK    4  A    between atoms: S_10  and  C_13
REMARK    5  A    between atoms: O_19  and  C_20
REMARK    6  A    between atoms: C_20  and  C_21
REMARK    7  A    between atoms: C_21  and  N_22
REMARK    8  A    between atoms: N_22  and  C_25
REMARK                            x       y       z     vdW  Elec       q    Type
REMARK                         _______ _______ _______ _____ _____    ______ ____
ROOT
ATOM      1  C   UNL     1      34.286 -15.783 -21.501  0.00  0.00    +0.067 C 
ATOM      2  C   UNL     1      33.168 -13.642 -21.460  0.00  0.00    +0.140 C 
ATOM      3  C   UNL     1      33.606 -14.737 -23.569  0.00  0.00    -0.018 C 
ATOM      4  C   UNL     1      33.767 -14.705 -20.784  0.00  0.00    +0.053 C 
ATOM      5  C   UNL     1      34.205 -15.800 -22.893  0.00  0.00    +0.012 C 
ATOM      6  C   UNL     1      33.088 -13.658 -22.853  0.00  0.00    +0.033 C 
ATOM      7  C   UNL     1      33.520 -14.754 -25.058  0.00  0.00    +0.031 C 
ENDROOT
BRANCH   1   8
ATOM      8  N   UNL     1      34.899 -16.871 -20.808  0.00  0.00    -0.215 N 
ATOM      9  H   UNL     1      35.081 -16.811 -19.842  0.00  0.00    +0.174 HD
BRANCH   8  10
ATOM     10  S   UNL     1      35.315 -18.289 -21.693  0.00  0.00    +0.074 S 
ATOM     11  O   UNL     1      34.455 -18.389 -22.857  0.00  0.00    -0.150 OA
ATOM     12  O   UNL     1      36.754 -18.371 -21.852  0.00  0.00    -0.150 OA
BRANCH  10  13
ATOM     13  C   UNL     1      34.820 -19.572 -20.579  0.00  0.00    +0.125 C 
ATOM     14  C   UNL     1      35.791 -20.271 -19.884  0.00  0.00    +0.020 C 
ATOM     15  C   UNL     1      33.474 -19.849 -20.425  0.00  0.00    +0.020 C 
ATOM     16  C   UNL     1      35.401 -21.282 -19.005  0.00  0.00    +0.001 C 
ATOM     17  C   UNL     1      33.084 -20.860 -19.546  0.00  0.00    +0.001 C 
ATOM     18  C   UNL     1      34.048 -21.576 -18.837  0.00  0.00    +0.000 C 
ENDBRANCH  10  13
ENDBRANCH   8  10
ENDBRANCH   1   8
BRANCH   2  19
ATOM     19  O   UNL     1      32.663 -12.589 -20.762  0.00  0.00    -0.474 OA
BRANCH  19  20
ATOM     20  C   UNL     1      31.557 -11.898 -21.340  0.00  0.00    +0.226 C 
BRANCH  20  21
ATOM     21  C   UNL     1      31.172 -10.728 -20.451  0.00  0.00    +0.135 C 
BRANCH  21  22
ATOM     22  N   UNL     1      30.802  -9.592 -21.262  0.00  0.00    -0.330 N 
ATOM     23  H   UNL     1      29.885  -9.552 -21.616  0.00  0.00    +0.147 HD
BRANCH  22  25
ATOM     24  N   UNL     1      33.382  -6.487 -22.183  0.00  0.00    -0.328 N 
ATOM     25  C   UNL     1      31.666  -8.552 -21.570  0.00  0.00    +0.043 C 
ATOM     26  C   UNL     1      32.341  -8.517 -22.801  0.00  0.00    +0.009 C 
ATOM     27  C   UNL     1      31.890  -7.506 -20.661  0.00  0.00    +0.030 C 
ATOM     28  C   UNL     1      33.200  -7.464 -23.083  0.00  0.00    +0.115 C 
ATOM     29  C   UNL     1      32.760  -6.479 -20.997  0.00  0.00    +0.059 C 
ATOM     30  H   UNL     1      33.996  -5.749 -22.403  0.00  0.00    +0.147 HD
ENDBRANCH  22  25
ENDBRANCH  21  22
ENDBRANCH  20  21
ENDBRANCH  19  20
ENDBRANCH   2  19
TORSDOF 8
ENDMDL
MODEL 3
REMARK VINA RESULT:     -10.9      1.884      3.017
REMARK  Name = 448955
REMARK  8 active torsions:
REMARK  status: ('A' for Active; 'I' for Inactive)
REMARK    1  A    between atoms: C_1  and  N_8
REMARK    2  A    between atoms: C_2  and  O_19
REMARK    3  A    between atoms: N_8  and  S_10
REMARK    4  A    between atoms: S_10  and  C_13
REMARK    5  A    between atoms: O_19  and  C_20
REMARK    6  A    between atoms: C_20  and  C_21
REMARK    7  A    between atoms: C_21  and  N_22
REMARK    8  A    between atoms: N_22  and  C_25
REMARK                            x       y       z     vdW  Elec       q    Type
REMARK                         _______ _______ _______ _____ _____    ______ ____
ROOT
ATOM      1  C   UNL     1      34.354 -20.136 -20.397  0.00  0.00    +0.067 C 
ATOM      2  C   UNL     1      33.080 -21.494 -18.858  0.00  0.00    +0.140 C 
ATOM      3  C   UNL     1      35.444 -21.147 -18.493  0.00  0.00    -0.018 C 
ATOM      4  C   UNL     1      33.142 -20.704 -20.005  0.00  0.00    +0.053 C 
ATOM      5  C   UNL     1      35.504 -20.356 -19.641  0.00  0.00    +0.012 C 
ATOM      6  C   UNL     1      34.232 -21.715 -18.101  0.00  0.00    +0.033 C 
ATOM      7  C   UNL     1      36.674 -21.383 -17.684  0.00  0.00    +0.031 C 
ENDROOT
BRANCH   1   8
ATOM      8  N   UNL     1      34.416 -19.328 -21.573  0.00  0.00    -0.215 N 
ATOM      9  H   UNL     1      33.915 -19.581 -22.382  0.00  0.00    +0.174 HD
BRANCH   8  10
ATOM     10  S   UNL     1      35.383 -17.902 -21.549  0.00  0.00    +0.074 S 
ATOM     11  O   UNL     1      35.212 -17.237 -20.272  0.00  0.00    -0.150 OA
ATOM     12  O   UNL     1      36.717 -18.200 -22.034  0.00  0.00    -0.150 OA
BRANCH  10  13
ATOM     13  C   UNL     1      34.579 -16.897 -22.763  0.00  0.00    +0.125 C 
ATOM     14  C   UNL     1      34.546 -15.526 -22.586  0.00  0.00    +0.020 C 
ATOM     15  C   UNL     1      34.001 -17.503 -23.864  0.00  0.00    +0.020 C 
ATOM     16  C   UNL     1      33.912 -14.733 -23.544  0.00  0.00    +0.001 C 
ATOM     17  C   UNL     1      33.368 -16.710 -24.822  0.00  0.00    +0.001 C 
ATOM     18  C   UNL     1      33.323 -15.325 -24.661  0.00  0.00    +0.000 C 
ENDBRANCH  10  13
ENDBRANCH   8  10
ENDBRANCH   1   8
BRANCH   2  19
ATOM     19  O   UNL     1      31.898 -22.049 -18.475  0.00  0.00    -0.474 OA
BRANCH  19  20
ATOM     20  C   UNL     1      31.561 -21.967 -17.091  0.00  0.00    +0.226 C 
BRANCH  20  21
ATOM     21  C   UNL     1      32.058 -23.211 -16.375  0.00  0.00    +0.135 C 
BRANCH  21  22
ATOM     22  N   UNL     1      32.766 -22.840 -15.173  0.00  0.00    -0.330 N 
ATOM     23  H   UNL     1      32.307 -22.263 -14.522  0.00  0.00    +0.147 HD
BRANCH  22  25
ATOM     24  N   UNL     1      36.623 -24.071 -14.306  0.00  0.00    -0.328 N 
ATOM     25  C   UNL     1      34.058 -23.252 -14.883  0.00  0.00    +0.043 C 
ATOM     26  C   UNL     1      34.414 -24.609 -14.952  0.00  0.00    +0.009 C 
ATOM     27  C   UNL     1      35.045 -22.325 -14.511  0.00  0.00    +0.030 C 
ATOM     28  C   UNL     1      35.715 -24.992 -14.657  0.00  0.00    +0.115 C 
ATOM     29  C   UNL     1      36.329 -22.767 -14.227  0.00  0.00    +0.059 C 
ATOM     30  H   UNL     1      37.540 -24.364 -14.101  0.00  0.00    +0.147 HD
ENDBRANCH  22  25
ENDBRANCH  21  22
ENDBRANCH  20  21
ENDBRANCH  19  20
ENDBRANCH   2  19
TORSDOF 8
ENDMDL
MODEL 4
REMARK VINA RESULT:     -10.9      3.566      5.420
REMARK  Name = 448955
REMARK  8 active torsions:
REMARK  status: ('A' for Active; 'I' for Inactive)
REMARK    1  A    between atoms: C_1  and  N_8
REMARK    2  A    between atoms: C_2  and  O_19
REMARK    3  A    between atoms: N_8  and  S_10
REMARK    4  A    between atoms: S_10  and  C_13
REMARK    5  A    between atoms: O_19  and  C_20
REMARK    6  A    between atoms: C_20  and  C_21
REMARK    7  A    between atoms: C_21  and  N_22
REMARK    8  A    between atoms: N_22  and  C_25
REMARK                            x       y       z     vdW  Elec       q    Type
REMARK                         _______ _______ _______ _____ _____    ______ ____
ROOT
ATOM      1  C   UNL     1      31.616 -22.777 -15.794  0.00  0.00    +0.067 C 
ATOM      2  C   UNL     1      32.036 -23.456 -13.513  0.00  0.00    +0.140 C 
ATOM      3  C   UNL     1      29.962 -24.064 -14.593  0.00  0.00    -0.018 C 
ATOM      4  C   UNL     1      32.448 -22.801 -14.674  0.00  0.00    +0.053 C 
ATOM      5  C   UNL     1      30.374 -23.409 -15.754  0.00  0.00    +0.012 C 
ATOM      6  C   UNL     1      30.793 -24.088 -13.474  0.00  0.00    +0.033 C 
ATOM      7  C   UNL     1      28.633 -24.740 -14.551  0.00  0.00    +0.031 C 
ENDROOT
BRANCH   1   8
ATOM      8  N   UNL     1      32.039 -22.105 -16.981  0.00  0.00    -0.215 N 
ATOM      9  H   UNL     1      31.534 -21.334 -17.327  0.00  0.00    +0.174 HD
BRANCH   8  10
ATOM     10  S   UNL     1      33.447 -22.669 -17.797  0.00  0.00    +0.074 S 
ATOM     11  O   UNL     1      34.574 -22.615 -16.885  0.00  0.00    -0.150 OA
ATOM     12  O   UNL     1      33.151 -23.900 -18.505  0.00  0.00    -0.150 OA
BRANCH  10  13
ATOM     13  C   UNL     1      33.702 -21.400 -19.003  0.00  0.00    +0.125 C 
ATOM     14  C   UNL     1      34.994 -21.025 -19.323  0.00  0.00    +0.020 C 
ATOM     15  C   UNL     1      32.604 -20.808 -19.601  0.00  0.00    +0.020 C 
ATOM     16  C   UNL     1      35.195 -20.024 -20.274  0.00  0.00    +0.001 C 
ATOM     17  C   UNL     1      32.805 -19.807 -20.552  0.00  0.00    +0.001 C 
ATOM     18  C   UNL     1      34.101 -19.416 -20.888  0.00  0.00    +0.000 C 
ENDBRANCH  10  13
ENDBRANCH   8  10
ENDBRANCH   1   8
BRANCH   2  19
ATOM     19  O   UNL     1      32.847 -23.480 -12.421  0.00  0.00    -0.474 OA
BRANCH  19  20
ATOM     20  C   UNL     1      34.198 -23.889 -12.624  0.00  0.00    +0.226 C 
BRANCH  20  21
ATOM     21  C   UNL     1      35.045 -23.436 -11.447  0.00  0.00    +0.135 C 
BRANCH  21  22
ATOM     22  N   UNL     1      36.226 -22.754 -11.920  0.00  0.00    -0.330 N 
ATOM     23  H   UNL     1      36.489 -21.917 -11.475  0.00  0.00    +0.147 HD
BRANCH  22  25
ATOM     24  N   UNL     1      38.572 -24.121 -15.046  0.00  0.00    -0.328 N 
ATOM     25  C   UNL     1      37.012 -23.211 -12.967  0.00  0.00    +0.043 C 
ATOM     26  C   UNL     1      37.965 -24.222 -12.764  0.00  0.00    +0.009 C 
ATOM     27  C   UNL     1      36.876 -22.677 -14.258  0.00  0.00    +0.030 C 
ATOM     28  C   UNL     1      38.737 -24.661 -13.831  0.00  0.00    +0.115 C 
ATOM     29  C   UNL     1      37.676 -23.156 -15.286  0.00  0.00    +0.059 C 
ATOM     30  H   UNL     1      39.130 -24.447 -15.789  0.00  0.00    +0.147 HD
ENDBRANCH  22  25
ENDBRANCH  21  22
ENDBRANCH  20  21
ENDBRANCH  19  20
ENDBRANCH   2  19
TORSDOF 8
ENDMDL
MODEL 5
REMARK VINA RESULT:     -10.8      3.113      9.857
REMARK  Name = 448955
REMARK  8 active torsions:
REMARK  status: ('A' for Active; 'I' for Inactive)
REMARK    1  A    between atoms: C_1  and  N_8
REMARK    2  A    between atoms: C_2  and  O_19
REMARK    3  A    between atoms: N_8  and  S_10
REMARK    4  A    between atoms: S_10  and  C_13
REMARK    5  A    between atoms: O_19  and  C_20
REMARK    6  A    between atoms: C_20  and  C_21
REMARK    7  A    between atoms: C_21  and  N_22
REMARK    8  A    between atoms: N_22  and  C_25
REMARK                            x       y       z     vdW  Elec       q    Type
REMARK                         _______ _______ _______ _____ _____    ______ ____
ROOT
ATOM      1  C   UNL     1      33.518 -23.426 -15.407  0.00  0.00    +0.067 C 
ATOM      2  C   UNL     1      32.316 -22.426 -17.249  0.00  0.00    +0.140 C 
ATOM      3  C   UNL     1      31.184 -22.852 -15.157  0.00  0.00    -0.018 C 
ATOM      4  C   UNL     1      33.494 -22.950 -16.718  0.00  0.00    +0.053 C 
ATOM      5  C   UNL     1      32.364 -23.376 -14.626  0.00  0.00    +0.012 C 
ATOM      6  C   UNL     1      31.161 -22.376 -16.468  0.00  0.00    +0.033 C 
ATOM      7  C   UNL     1      29.950 -22.798 -14.322  0.00  0.00    +0.031 C 
ENDROOT
BRANCH   1   8
ATOM      8  N   UNL     1      34.724 -23.963 -14.864  0.00  0.00    -0.215 N 
ATOM      9  H   UNL     1      34.922 -24.925 -14.936  0.00  0.00    +0.174 HD
BRANCH   8  10
ATOM     10  S   UNL     1      35.828 -22.897 -14.081  0.00  0.00    +0.074 S 
ATOM     11  O   UNL     1      36.106 -21.776 -14.960  0.00  0.00    -0.150 OA
ATOM     12  O   UNL     1      35.400 -22.654 -12.717  0.00  0.00    -0.150 OA
BRANCH  10  13
ATOM     13  C   UNL     1      37.299 -23.878 -14.019  0.00  0.00    +0.125 C 
ATOM     14  C   UNL     1      37.446 -24.808 -13.005  0.00  0.00    +0.020 C 
ATOM     15  C   UNL     1      38.273 -23.695 -14.984  0.00  0.00    +0.020 C 
ATOM     16  C   UNL     1      38.605 -25.582 -12.956  0.00  0.00    +0.001 C 
ATOM     17  C   UNL     1      39.432 -24.469 -14.934  0.00  0.00    +0.001 C 
ATOM     18  C   UNL     1      39.598 -25.412 -13.921  0.00  0.00    +0.000 C 
ENDBRANCH  10  13
ENDBRANCH   8  10
ENDBRANCH   1   8
BRANCH   2  19
ATOM     19  O   UNL     1      32.293 -21.962 -18.528  0.00  0.00    -0.474 OA
BRANCH  19  20
ATOM     20  C   UNL     1      33.501 -21.401 -19.037  0.00  0.00    +0.226 C 
BRANCH  20  21
ATOM     21  C   UNL     1      33.169 -20.264 -19.988  0.00  0.00    +0.135 C 
BRANCH  21  22
ATOM     22  N   UNL     1      34.384 -19.645 -20.462  0.00  0.00    -0.330 N 
ATOM     23  H   UNL     1      35.240 -19.950 -20.084  0.00  0.00    +0.147 HD
BRANCH  22  25
ATOM     24  N   UNL     1      34.476 -16.654 -23.324  0.00  0.00    -0.328 N 
ATOM     25  C   UNL     1      34.415 -18.644 -21.421  0.00  0.00    +0.043 C 
ATOM     26  C   UNL     1      34.817 -17.340 -21.088  0.00  0.00    +0.009 C 
ATOM     27  C   UNL     1      34.044 -18.905 -22.750  0.00  0.00    +0.030 C 
ATOM     28  C   UNL     1      34.838 -16.357 -22.069  0.00  0.00    +0.115 C 
ATOM     29  C   UNL     1      34.085 -17.883 -23.687  0.00  0.00    +0.059 C 
ATOM     30  H   UNL     1      34.498 -15.943 -24.005  0.00  0.00    +0.147 HD
ENDBRANCH  22  25
ENDBRANCH  21  22
ENDBRANCH  20  21
ENDBRANCH  19  20
ENDBRANCH   2  19
TORSDOF 8
ENDMDL
MODEL 6
REMARK VINA RESULT:     -10.4      3.830     10.994
REMARK  Name = 448955
REMARK  8 active torsions:
REMARK  status: ('A' for Active; 'I' for Inactive)
REMARK    1  A    between atoms: C_1  and  N_8
REMARK    2  A    between atoms: C_2  and  O_19
REMARK    3  A    between atoms: N_8  and  S_10
REMARK    4  A    between atoms: S_10  and  C_13
REMARK    5  A    between atoms: O_19  and  C_20
REMARK    6  A    between atoms: C_20  and  C_21
REMARK    7  A    between atoms: C_21  and  N_22
REMARK    8  A    between atoms: N_22  and  C_25
REMARK                            x       y       z     vdW  Elec       q    Type
REMARK                         _______ _______ _______ _____ _____    ______ ____
ROOT
ATOM      1  C   UNL     1      35.070 -18.922 -20.966  0.00  0.00    +0.067 C 
ATOM      2  C   UNL     1      34.646 -16.668 -21.725  0.00  0.00    +0.140 C 
ATOM      3  C   UNL     1      34.172 -18.542 -23.176  0.00  0.00    -0.018 C 
ATOM      4  C   UNL     1      35.086 -17.547 -20.736  0.00  0.00    +0.053 C 
ATOM      5  C   UNL     1      34.612 -19.420 -22.185  0.00  0.00    +0.012 C 
ATOM      6  C   UNL     1      34.188 -17.166 -22.946  0.00  0.00    +0.033 C 
ATOM      7  C   UNL     1      33.683 -19.074 -24.480  0.00  0.00    +0.031 C 
ENDROOT
BRANCH   1   8
ATOM      8  N   UNL     1      35.521 -19.821 -19.952  0.00  0.00    -0.215 N 
ATOM      9  H   UNL     1      36.403 -19.699 -19.530  0.00  0.00    +0.174 HD
BRANCH   8  10
ATOM     10  S   UNL     1      34.497 -21.123 -19.482  0.00  0.00    +0.074 S 
ATOM     11  O   UNL     1      33.152 -20.617 -19.282  0.00  0.00    -0.150 OA
ATOM     12  O   UNL     1      34.716 -22.266 -20.348  0.00  0.00    -0.150 OA
BRANCH  10  13
ATOM     13  C   UNL     1      35.135 -21.529 -17.882  0.00  0.00    +0.125 C 
ATOM     14  C   UNL     1      36.417 -21.132 -17.548  0.00  0.00    +0.020 C 
ATOM     15  C   UNL     1      34.339 -22.234 -16.998  0.00  0.00    +0.020 C 
ATOM     16  C   UNL     1      36.920 -21.451 -16.287  0.00  0.00    +0.001 C 
ATOM     17  C   UNL     1      34.842 -22.554 -15.736  0.00  0.00    +0.001 C 
ATOM     18  C   UNL     1      36.132 -22.162 -15.381  0.00  0.00    +0.000 C 
ENDBRANCH  10  13
ENDBRANCH   8  10
ENDBRANCH   1   8
BRANCH   2  19
ATOM     19  O   UNL     1      34.662 -15.327 -21.501  0.00  0.00    -0.474 OA
BRANCH  19  20
ATOM     20  C   UNL     1      33.894 -14.512 -22.386  0.00  0.00    +0.226 C 
BRANCH  20  21
ATOM     21  C   UNL     1      33.154 -13.454 -21.583  0.00  0.00    +0.135 C 
BRANCH  21  22
ATOM     22  N   UNL     1      32.324 -12.661 -22.459  0.00  0.00    -0.330 N 
ATOM     23  H   UNL     1      32.040 -13.056 -23.314  0.00  0.00    +0.147 HD
BRANCH  22  25
ATOM     24  N   UNL     1      31.066  -8.817 -21.572  0.00  0.00    -0.328 N 
ATOM     25  C   UNL     1      31.903 -11.374 -22.162  0.00  0.00    +0.043 C 
ATOM     26  C   UNL     1      31.215 -11.098 -20.969  0.00  0.00    +0.009 C 
ATOM     27  C   UNL     1      32.151 -10.311 -23.045  0.00  0.00    +0.030 C 
ATOM     28  C   UNL     1      30.806  -9.799 -20.698  0.00  0.00    +0.115 C 
ATOM     29  C   UNL     1      31.718  -9.034 -22.722  0.00  0.00    +0.059 C 
ATOM     30  H   UNL     1      30.767  -7.904 -21.361  0.00  0.00    +0.147 HD
ENDBRANCH  22  25
ENDBRANCH  21  22
ENDBRANCH  20  21
ENDBRANCH  19  20
ENDBRANCH   2  19
TORSDOF 8
ENDMDL
MODEL 7
REMARK VINA RESULT:     -10.3      5.262      8.639
REMARK  Name = 448955
REMARK  8 active torsions:
REMARK  status: ('A' for Active; 'I' for Inactive)
REMARK    1  A    between atoms: C_1  and  N_8
REMARK    2  A    between atoms: C_2  and  O_19
REMARK    3  A    between atoms: N_8  and  S_10
REMARK    4  A    between atoms: S_10  and  C_13
REMARK    5  A    between atoms: O_19  and  C_20
REMARK    6  A    between atoms: C_20  and  C_21
REMARK    7  A    between atoms: C_21  and  N_22
REMARK    8  A    between atoms: N_22  and  C_25
REMARK                            x       y       z     vdW  Elec       q    Type
REMARK                         _______ _______ _______ _____ _____    ______ ____
ROOT
ATOM      1  C   UNL     1      32.728 -12.468 -21.961  0.00  0.00    +0.067 C 
ATOM      2  C   UNL     1      33.896 -14.582 -21.951  0.00  0.00    +0.140 C 
ATOM      3  C   UNL     1      33.051 -13.678 -24.027  0.00  0.00    -0.018 C 
ATOM      4  C   UNL     1      33.399 -13.474 -21.266  0.00  0.00    +0.053 C 
ATOM      5  C   UNL     1      32.555 -12.569 -23.341  0.00  0.00    +0.012 C 
ATOM      6  C   UNL     1      33.723 -14.684 -23.332  0.00  0.00    +0.033 C 
ATOM      7  C   UNL     1      32.866 -13.787 -25.502  0.00  0.00    +0.031 C 
ENDROOT
BRANCH   1   8
ATOM      8  N   UNL     1      32.219 -11.333 -21.259  0.00  0.00    -0.215 N 
ATOM      9  H   UNL     1      32.392 -11.221 -20.296  0.00  0.00    +0.174 HD
BRANCH   8  10
ATOM     10  S   UNL     1      31.296 -10.166 -22.127  0.00  0.00    +0.074 S 
ATOM     11  O   UNL     1      31.855 -10.017 -23.458  0.00  0.00    -0.150 OA
ATOM     12  O   UNL     1      29.880 -10.433 -21.966  0.00  0.00    -0.150 OA
BRANCH  10  13
ATOM     13  C   UNL     1      31.669  -8.678 -21.245  0.00  0.00    +0.125 C 
ATOM     14  C   UNL     1      32.282  -7.634 -21.914  0.00  0.00    +0.020 C 
ATOM     15  C   UNL     1      31.341  -8.590 -19.904  0.00  0.00    +0.020 C 
ATOM     16  C   UNL     1      32.576  -6.461 -21.218  0.00  0.00    +0.001 C 
ATOM     17  C   UNL     1      31.635  -7.417 -19.208  0.00  0.00    +0.001 C 
ATOM     18  C   UNL     1      32.252  -6.353 -19.866  0.00  0.00    +0.000 C 
ENDBRANCH  10  13
ENDBRANCH   8  10
ENDBRANCH   1   8
BRANCH   2  19
ATOM     19  O   UNL     1      34.551 -15.564 -21.274  0.00  0.00    -0.474 OA
BRANCH  19  20
ATOM     20  C   UNL     1      34.858 -16.756 -21.995  0.00  0.00    +0.226 C 
BRANCH  20  21
ATOM     21  C   UNL     1      35.294 -17.838 -21.021  0.00  0.00    +0.135 C 
BRANCH  21  22
ATOM     22  N   UNL     1      34.580 -19.063 -21.291  0.00  0.00    -0.330 N 
ATOM     23  H   UNL     1      34.297 -19.242 -22.216  0.00  0.00    +0.147 HD
BRANCH  22  25
ATOM     24  N   UNL     1      33.657 -21.870 -18.390  0.00  0.00    -0.328 N 
ATOM     25  C   UNL     1      34.270 -20.003 -20.320  0.00  0.00    +0.043 C 
ATOM     26  C   UNL     1      35.284 -20.687 -19.629  0.00  0.00    +0.009 C 
ATOM     27  C   UNL     1      32.935 -20.298 -20.000  0.00  0.00    +0.030 C 
ATOM     28  C   UNL     1      34.945 -21.622 -18.662  0.00  0.00    +0.115 C 
ATOM     29  C   UNL     1      32.656 -21.243 -19.023  0.00  0.00    +0.059 C 
ATOM     30  H   UNL     1      33.437 -22.538 -17.701  0.00  0.00    +0.147 HD
ENDBRANCH  22  25
ENDBRANCH  21  22
ENDBRANCH  20  21
ENDBRANCH  19  20
ENDBRANCH   2  19
TORSDOF 8
ENDMDL
MODEL 8
REMARK VINA RESULT:     -10.3      4.337      9.356
REMARK  Name = 448955
REMARK  8 active torsions:
REMARK  status: ('A' for Active; 'I' for Inactive)
REMARK    1  A    between atoms: C_1  and  N_8
REMARK    2  A    between atoms: C_2  and  O_19
REMARK    3  A    between atoms: N_8  and  S_10
REMARK    4  A    between atoms: S_10  and  C_13
REMARK    5  A    between atoms: O_19  and  C_20
REMARK    6  A    between atoms: C_20  and  C_21
REMARK    7  A    between atoms: C_21  and  N_22
REMARK    8  A    between atoms: N_22  and  C_25
REMARK                            x       y       z     vdW  Elec       q    Type
REMARK                         _______ _______ _______ _____ _____    ______ ____
ROOT
ATOM      1  C   UNL     1      33.366 -23.862 -14.336  0.00  0.00    +0.067 C 
ATOM      2  C   UNL     1      34.739 -22.658 -15.918  0.00  0.00    +0.140 C 
ATOM      3  C   UNL     1      35.499 -22.963 -13.644  0.00  0.00    -0.018 C 
ATOM      4  C   UNL     1      33.570 -23.359 -15.621  0.00  0.00    +0.053 C 
ATOM      5  C   UNL     1      34.330 -23.665 -13.348  0.00  0.00    +0.012 C 
ATOM      6  C   UNL     1      35.703 -22.460 -14.929  0.00  0.00    +0.033 C 
ATOM      7  C   UNL     1      36.529 -22.752 -12.588  0.00  0.00    +0.031 C 
ENDROOT
BRANCH   1   8
ATOM      8  N   UNL     1      32.169 -24.579 -14.033  0.00  0.00    -0.215 N 
ATOM      9  H   UNL     1      32.065 -25.519 -14.307  0.00  0.00    +0.174 HD
BRANCH   8  10
ATOM     10  S   UNL     1      30.910 -23.770 -13.179  0.00  0.00    +0.074 S 
ATOM     11  O   UNL     1      30.317 -24.692 -12.227  0.00  0.00    -0.150 OA
ATOM     12  O   UNL     1      31.370 -22.470 -12.731  0.00  0.00    -0.150 OA
BRANCH  10  13
ATOM     13  C   UNL     1      29.713 -23.510 -14.455  0.00  0.00    +0.125 C 
ATOM     14  C   UNL     1      29.321 -22.218 -14.756  0.00  0.00    +0.020 C 
ATOM     15  C   UNL     1      29.194 -24.602 -15.126  0.00  0.00    +0.020 C 
ATOM     16  C   UNL     1      28.377 -22.012 -15.763  0.00  0.00    +0.001 C 
ATOM     17  C   UNL     1      28.250 -24.397 -16.132  0.00  0.00    +0.001 C 
ATOM     18  C   UNL     1      27.842 -23.102 -16.451  0.00  0.00    +0.000 C 
ENDBRANCH  10  13
ENDBRANCH   8  10
ENDBRANCH   1   8
BRANCH   2  19
ATOM     19  O   UNL     1      34.939 -22.167 -17.171  0.00  0.00    -0.474 OA
BRANCH  19  20
ATOM     20  C   UNL     1      33.783 -21.978 -17.986  0.00  0.00    +0.226 C 
BRANCH  20  21
ATOM     21  C   UNL     1      34.214 -21.645 -19.404  0.00  0.00    +0.135 C 
BRANCH  21  22
ATOM     22  N   UNL     1      35.067 -20.480 -19.401  0.00  0.00    -0.330 N 
ATOM     23  H   UNL     1      35.593 -20.291 -18.591  0.00  0.00    +0.147 HD
BRANCH  22  25
ATOM     24  N   UNL     1      35.433 -17.888 -22.609  0.00  0.00    -0.328 N 
ATOM     25  C   UNL     1      35.189 -19.612 -20.475  0.00  0.00    +0.043 C 
ATOM     26  C   UNL     1      36.382 -18.905 -20.698  0.00  0.00    +0.009 C 
ATOM     27  C   UNL     1      34.125 -19.416 -21.369  0.00  0.00    +0.030 C 
ATOM     28  C   UNL     1      36.476 -18.044 -21.782  0.00  0.00    +0.115 C 
ATOM     29  C   UNL     1      34.277 -18.541 -22.435  0.00  0.00    +0.059 C 
ATOM     30  H   UNL     1      35.521 -17.272 -23.372  0.00  0.00    +0.147 HD
ENDBRANCH  22  25
ENDBRANCH  21  22
ENDBRANCH  20  21
ENDBRANCH  19  20
ENDBRANCH   2  19
TORSDOF 8
ENDMDL
MODEL 9
REMARK VINA RESULT:     -10.3      7.229     11.414
REMARK  Name = 448955
REMARK  8 active torsions:
REMARK  status: ('A' for Active; 'I' for Inactive)
REMARK    1  A    between atoms: C_1  and  N_8
REMARK    2  A    between atoms: C_2  and  O_19
REMARK    3  A    between atoms: N_8  and  S_10
REMARK    4  A    between atoms: S_10  and  C_13
REMARK    5  A    between atoms: O_19  and  C_20
REMARK    6  A    between atoms: C_20  and  C_21
REMARK    7  A    between atoms: C_21  and  N_22
REMARK    8  A    between atoms: N_22  and  C_25
REMARK                            x       y       z     vdW  Elec       q    Type
REMARK                         _______ _______ _______ _____ _____    ______ ____
ROOT
ATOM      1  C   UNL     1      31.576  -9.450 -22.668  0.00  0.00    +0.067 C 
ATOM      2  C   UNL     1      31.957 -11.712 -21.910  0.00  0.00    +0.140 C 
ATOM      3  C   UNL     1      31.276 -10.009 -20.337  0.00  0.00    -0.018 C 
ATOM      4  C   UNL     1      31.930 -10.772 -22.940  0.00  0.00    +0.053 C 
ATOM      5  C   UNL     1      31.248  -9.069 -21.367  0.00  0.00    +0.012 C 
ATOM      6  C   UNL     1      31.630 -11.331 -20.609  0.00  0.00    +0.033 C 
ATOM      7  C   UNL     1      30.926  -9.601 -18.946  0.00  0.00    +0.031 C 
ENDROOT
BRANCH   1   8
ATOM      8  N   UNL     1      31.549  -8.488 -23.722  0.00  0.00    -0.215 N 
ATOM      9  H   UNL     1      30.947  -8.605 -24.493  0.00  0.00    +0.174 HD
BRANCH   8  10
ATOM     10  S   UNL     1      32.588  -7.117 -23.623  0.00  0.00    +0.074 S 
ATOM     11  O   UNL     1      33.829  -7.512 -22.983  0.00  0.00    -0.150 OA
ATOM     12  O   UNL     1      32.622  -6.426 -24.897  0.00  0.00    -0.150 OA
BRANCH  10  13
ATOM     13  C   UNL     1      31.724  -6.088 -22.473  0.00  0.00    +0.125 C 
ATOM     14  C   UNL     1      32.308  -5.804 -21.251  0.00  0.00    +0.020 C 
ATOM     15  C   UNL     1      30.481  -5.588 -22.817  0.00  0.00    +0.020 C 
ATOM     16  C   UNL     1      31.627  -4.992 -20.344  0.00  0.00    +0.001 C 
ATOM     17  C   UNL     1      29.799  -4.776 -21.910  0.00  0.00    +0.001 C 
ATOM     18  C   UNL     1      30.372  -4.478 -20.674  0.00  0.00    +0.000 C 
ENDBRANCH  10  13
ENDBRANCH   8  10
ENDBRANCH   1   8
BRANCH   2  19
ATOM     19  O   UNL     1      32.302 -13.001 -22.175  0.00  0.00    -0.474 OA
BRANCH  19  20
ATOM     20  C   UNL     1      33.605 -13.228 -22.711  0.00  0.00    +0.226 C 
BRANCH  20  21
ATOM     21  C   UNL     1      33.586 -14.479 -23.572  0.00  0.00    +0.135 C 
BRANCH  21  22
ATOM     22  N   UNL     1      34.711 -15.322 -23.244  0.00  0.00    -0.330 N 
ATOM     23  H   UNL     1      35.616 -14.947 -23.336  0.00  0.00    +0.147 HD
BRANCH  22  25
ATOM     24  N   UNL     1      34.346 -19.232 -21.930  0.00  0.00    -0.328 N 
ATOM     25  C   UNL     1      34.588 -16.632 -22.804  0.00  0.00    +0.043 C 
ATOM     26  C   UNL     1      34.903 -16.980 -21.480  0.00  0.00    +0.009 C 
ATOM     27  C   UNL     1      34.147 -17.645 -23.669  0.00  0.00    +0.030 C 
ATOM     28  C   UNL     1      34.771 -18.298 -21.068  0.00  0.00    +0.115 C 
ATOM     29  C   UNL     1      34.035 -18.946 -23.201  0.00  0.00    +0.059 C 
ATOM     30  H   UNL     1      34.259 -20.161 -21.617  0.00  0.00    +0.147 HD
ENDBRANCH  22  25
ENDBRANCH  21  22
ENDBRANCH  20  21
ENDBRANCH  19  20
ENDBRANCH   2  19
TORSDOF 8
ENDMDL
