MODEL 1
REMARK VINA RESULT:     -10.3      0.000      0.000
REMARK  Name = 5284527
REMARK  10 active torsions:
REMARK  status: ('A' for Active; 'I' for Inactive)
REMARK    1  A    between atoms: CA_5  and  N_11
REMARK    2  A    between atoms: CA_7  and  C_25
REMARK    3  A    between atoms: C_8  and  C_28
REMARK    4  A    between atoms: C_12  and  C_14
REMARK    5  A    between atoms: C_14  and  C_15
REMARK    6  A    between atoms: C_14  and  O_21
REMARK    7  A    between atoms: O_21  and  C_23
REMARK    8  A    between atoms: C_25  and  O_26
REMARK    9  A    between atoms: C_28  and  S_29
REMARK   10  A    between atoms: S_29  and  C_34
REMARK                            x       y       z     vdW  Elec       q    Type
REMARK                         _______ _______ _______ _____ _____    ______ ____
ROOT
ATOM      1  S   UNL     1      36.746 -21.861 -15.795  0.00  0.00    -0.114 S 
ATOM      2  O   UNL     1      32.512 -23.615 -15.016  0.00  0.00    -0.273 OA
ATOM      3  N   UNL     1      34.141 -22.286 -16.084  0.00  0.00    -0.242 N 
ATOM      4  C   UNL     1      35.055 -21.513 -15.261  0.00  0.00    +0.155 C 
ATOM      5  CA  UNL     1      34.528 -22.340 -14.068  0.00  0.00    +0.178 C 
ATOM      6  C   UNL     1      33.475 -22.887 -15.074  0.00  0.00    +0.251 C 
ATOM      7  CA  UNL     1      34.139 -22.257 -17.440  0.00  0.00    +0.124 C 
ATOM      8  C   UNL     1      35.176 -21.733 -18.138  0.00  0.00    -0.002 C 
ATOM      9  C   UNL     1      36.460 -21.231 -17.484  0.00  0.00    +0.083 C 
ENDROOT
BRANCH   5  11
ATOM     10  O   UNL     1      33.834 -24.250 -12.012  0.00  0.00    -0.271 OA
ATOM     11  N   UNL     1      35.388 -23.378 -13.500  0.00  0.00    -0.293 N 
ATOM     12  C   UNL     1      34.961 -24.257 -12.505  0.00  0.00    +0.268 C 
ATOM     13  H   UNL     1      36.311 -23.460 -13.835  0.00  0.00    +0.150 HD
BRANCH  12  14
ATOM     14  C   UNL     1      36.032 -25.258 -12.097  0.00  0.00    +0.267 C 
BRANCH  14  15
ATOM     15  C   UNL     1      37.231 -25.194 -13.013  0.00  0.00    +0.026 C 
ATOM     16  C   UNL     1      37.266 -25.969 -14.173  0.00  0.00    -0.000 C 
ATOM     17  C   UNL     1      38.306 -24.361 -12.700  0.00  0.00    -0.000 C 
ATOM     18  C   UNL     1      38.373 -25.911 -15.019  0.00  0.00    -0.000 C 
ATOM     19  C   UNL     1      39.413 -24.302 -13.546  0.00  0.00    -0.000 C 
ATOM     20  C   UNL     1      39.447 -25.077 -14.705  0.00  0.00    -0.000 C 
ENDBRANCH  14  15
BRANCH  14  21
ATOM     21  O   UNL     1      36.454 -24.981 -10.770  0.00  0.00    -0.431 OA
BRANCH  21  23
ATOM     22  O   UNL     1      35.081 -24.160  -9.096  0.00  0.00    -0.238 OA
ATOM     23  C   UNL     1      35.744 -24.021 -10.112  0.00  0.00    +0.419 C 
ENDBRANCH  21  23
ENDBRANCH  14  21
ENDBRANCH  12  14
ENDBRANCH   5  11
BRANCH   7  25
ATOM     24  OXT UNL     1      33.048 -23.913 -18.752  0.00  0.00    -0.244 OA
ATOM     25  C   UNL     1      32.991 -22.877 -18.119  0.00  0.00    +0.351 C 
BRANCH  25  26
ATOM     26  O   UNL     1      31.894 -22.120 -17.925  0.00  0.00    -0.476 OA
ATOM     27  H   UNL     1      31.060 -22.526 -17.803  0.00  0.00    +0.295 HD
ENDBRANCH  25  26
ENDBRANCH   7  25
BRANCH   8  28
ATOM     28  C   UNL     1      35.212 -21.592 -19.641  0.00  0.00    +0.089 C 
BRANCH  28  29
ATOM     29  S   UNL     1      34.103 -20.266 -20.144  0.00  0.00    -0.070 S 
BRANCH  29  34
ATOM     30  N   UNL     1      35.056 -18.573 -22.113  0.00  0.00    -0.206 N 
ATOM     31  N   UNL     1      36.414 -18.762 -20.433  0.00  0.00    -0.101 NA
ATOM     32  N   UNL     1      36.102 -17.791 -22.415  0.00  0.00    -0.042 NA
ATOM     33  N   UNL     1      36.929 -17.911 -21.384  0.00  0.00    -0.022 NA
ATOM     34  C   UNL     1      35.254 -19.159 -20.904  0.00  0.00    +0.211 A 
ATOM     35  C   UNL     1      33.946 -18.689 -23.025  0.00  0.00    +0.158 C 
ENDBRANCH  29  34
ENDBRANCH  28  29
ENDBRANCH   8  28
TORSDOF 10
ENDMDL
MODEL 2
REMARK VINA RESULT:     -10.2      3.032      9.578
REMARK  Name = 5284527
REMARK  10 active torsions:
REMARK  status: ('A' for Active; 'I' for Inactive)
REMARK    1  A    between atoms: CA_5  and  N_11
REMARK    2  A    between atoms: CA_7  and  C_25
REMARK    3  A    between atoms: C_8  and  C_28
REMARK    4  A    between atoms: C_12  and  C_14
REMARK    5  A    between atoms: C_14  and  C_15
REMARK    6  A    between atoms: C_14  and  O_21
REMARK    7  A    between atoms: O_21  and  C_23
REMARK    8  A    between atoms: C_25  and  O_26
REMARK    9  A    between atoms: C_28  and  S_29
REMARK   10  A    between atoms: S_29  and  C_34
REMARK                            x       y       z     vdW  Elec       q    Type
REMARK                         _______ _______ _______ _____ _____    ______ ____
ROOT
ATOM      1  S   UNL     1      36.653 -19.882 -17.887  0.00  0.00    -0.114 S 
ATOM      2  O   UNL     1      32.876 -21.777 -19.824  0.00  0.00    -0.273 OA
ATOM      3  N   UNL     1      34.730 -21.646 -18.373  0.00  0.00    -0.242 N 
ATOM      4  C   UNL     1      36.007 -21.220 -18.916  0.00  0.00    +0.155 C 
ATOM      5  CA  UNL     1      35.222 -20.799 -20.177  0.00  0.00    +0.178 C 
ATOM      6  C   UNL     1      34.013 -21.515 -19.511  0.00  0.00    +0.251 C 
ATOM      7  CA  UNL     1      34.545 -22.019 -17.081  0.00  0.00    +0.124 C 
ATOM      8  C   UNL     1      35.467 -21.744 -16.127  0.00  0.00    -0.002 C 
ATOM      9  C   UNL     1      36.724 -20.919 -16.388  0.00  0.00    +0.083 C 
ENDROOT
BRANCH   5  11
ATOM     10  O   UNL     1      36.856 -19.021 -21.765  0.00  0.00    -0.271 OA
ATOM     11  N   UNL     1      34.997 -19.375 -20.420  0.00  0.00    -0.293 N 
ATOM     12  C   UNL     1      35.847 -18.596 -21.205  0.00  0.00    +0.268 C 
ATOM     13  H   UNL     1      34.211 -18.946 -20.010  0.00  0.00    +0.150 HD
BRANCH  12  14
ATOM     14  C   UNL     1      35.387 -17.150 -21.323  0.00  0.00    +0.267 C 
BRANCH  14  15
ATOM     15  C   UNL     1      34.656 -16.904 -22.622  0.00  0.00    +0.026 C 
ATOM     16  C   UNL     1      34.002 -17.955 -23.264  0.00  0.00    -0.000 C 
ATOM     17  C   UNL     1      34.636 -15.625 -23.181  0.00  0.00    -0.000 C 
ATOM     18  C   UNL     1      33.327 -17.729 -24.464  0.00  0.00    -0.000 C 
ATOM     19  C   UNL     1      33.962 -15.399 -24.380  0.00  0.00    -0.000 C 
ATOM     20  C   UNL     1      33.307 -16.450 -25.021  0.00  0.00    -0.000 C 
ENDBRANCH  14  15
BRANCH  14  21
ATOM     21  O   UNL     1      34.518 -16.843 -20.243  0.00  0.00    -0.431 OA
BRANCH  21  23
ATOM     22  O   UNL     1      34.175 -14.554 -20.181  0.00  0.00    -0.238 OA
ATOM     23  C   UNL     1      33.792 -15.697 -20.375  0.00  0.00    +0.419 C 
ENDBRANCH  21  23
ENDBRANCH  14  21
ENDBRANCH  12  14
ENDBRANCH   5  11
BRANCH   7  25
ATOM     24  OXT UNL     1      32.215 -22.091 -16.612  0.00  0.00    -0.244 OA
ATOM     25  C   UNL     1      33.271 -22.676 -16.751  0.00  0.00    +0.351 C 
BRANCH  25  26
ATOM     26  O   UNL     1      33.470 -24.003 -16.634  0.00  0.00    -0.476 OA
ATOM     27  H   UNL     1      33.079 -24.591 -17.248  0.00  0.00    +0.295 HD
ENDBRANCH  25  26
ENDBRANCH   7  25
BRANCH   8  28
ATOM     28  C   UNL     1      35.372 -22.194 -14.689  0.00  0.00    +0.089 C 
BRANCH  28  29
ATOM     29  S   UNL     1      36.944 -22.907 -14.181  0.00  0.00    -0.070 S 
BRANCH  29  34
ATOM     30  N   UNL     1      37.657 -25.551 -14.571  0.00  0.00    -0.206 N 
ATOM     31  N   UNL     1      35.606 -25.136 -15.141  0.00  0.00    -0.101 NA
ATOM     32  N   UNL     1      37.168 -26.721 -15.004  0.00  0.00    -0.042 NA
ATOM     33  N   UNL     1      35.913 -26.461 -15.351  0.00  0.00    -0.022 NA
ATOM     34  C   UNL     1      36.699 -24.592 -14.657  0.00  0.00    +0.211 A 
ATOM     35  C   UNL     1      39.018 -25.457 -14.107  0.00  0.00    +0.158 C 
ENDBRANCH  29  34
ENDBRANCH  28  29
ENDBRANCH   8  28
TORSDOF 10
ENDMDL
MODEL 3
REMARK VINA RESULT:     -10.1     10.049     15.565
REMARK  Name = 5284527
REMARK  10 active torsions:
REMARK  status: ('A' for Active; 'I' for Inactive)
REMARK    1  A    between atoms: CA_5  and  N_11
REMARK    2  A    between atoms: CA_7  and  C_25
REMARK    3  A    between atoms: C_8  and  C_28
REMARK    4  A    between atoms: C_12  and  C_14
REMARK    5  A    between atoms: C_14  and  C_15
REMARK    6  A    between atoms: C_14  and  O_21
REMARK    7  A    between atoms: O_21  and  C_23
REMARK    8  A    between atoms: C_25  and  O_26
REMARK    9  A    between atoms: C_28  and  S_29
REMARK   10  A    between atoms: S_29  and  C_34
REMARK                            x       y       z     vdW  Elec       q    Type
REMARK                         _______ _______ _______ _____ _____    ______ ____
ROOT
ATOM      1  S   UNL     1      33.054 -10.775 -23.796  0.00  0.00    -0.114 S 
ATOM      2  O   UNL     1      31.457 -11.058 -19.440  0.00  0.00    -0.273 OA
ATOM      3  N   UNL     1      32.059 -11.844 -21.579  0.00  0.00    -0.242 N 
ATOM      4  C   UNL     1      31.620 -11.095 -22.743  0.00  0.00    +0.155 C 
ATOM      5  CA  UNL     1      31.229  -9.974 -21.755  0.00  0.00    +0.178 C 
ATOM      6  C   UNL     1      31.544 -11.016 -20.644  0.00  0.00    +0.251 C 
ATOM      7  CA  UNL     1      32.763 -13.002 -21.649  0.00  0.00    +0.124 C 
ATOM      8  C   UNL     1      33.364 -13.397 -22.797  0.00  0.00    -0.002 C 
ATOM      9  C   UNL     1      33.392 -12.548 -24.065  0.00  0.00    +0.083 C 
ENDROOT
BRANCH   5  11
ATOM     10  O   UNL     1      30.567  -7.327 -22.708  0.00  0.00    -0.271 OA
ATOM     11  N   UNL     1      32.066  -8.777 -21.688  0.00  0.00    -0.293 N 
ATOM     12  C   UNL     1      31.657  -7.537 -22.178  0.00  0.00    +0.268 C 
ATOM     13  H   UNL     1      32.959  -8.849 -21.278  0.00  0.00    +0.150 HD
BRANCH  12  14
ATOM     14  C   UNL     1      32.695  -6.444 -21.970  0.00  0.00    +0.267 C 
BRANCH  14  15
ATOM     15  C   UNL     1      33.217  -5.916 -23.285  0.00  0.00    +0.026 C 
ATOM     16  C   UNL     1      33.949  -6.750 -24.131  0.00  0.00    -0.000 C 
ATOM     17  C   UNL     1      32.971  -4.593 -23.654  0.00  0.00    -0.000 C 
ATOM     18  C   UNL     1      34.432  -6.263 -25.346  0.00  0.00    -0.000 C 
ATOM     19  C   UNL     1      33.454  -4.106 -24.868  0.00  0.00    -0.000 C 
ATOM     20  C   UNL     1      34.184  -4.941 -25.714  0.00  0.00    -0.000 C 
ENDBRANCH  14  15
BRANCH  14  21
ATOM     21  O   UNL     1      32.110  -5.372 -21.245  0.00  0.00    -0.431 OA
BRANCH  21  23
ATOM     22  O   UNL     1      32.647  -6.083 -19.109  0.00  0.00    -0.238 OA
ATOM     23  C   UNL     1      31.872  -5.611 -19.925  0.00  0.00    +0.419 C 
ENDBRANCH  21  23
ENDBRANCH  14  21
ENDBRANCH  12  14
ENDBRANCH   5  11
BRANCH   7  25
ATOM     24  OXT UNL     1      33.960 -14.139 -19.937  0.00  0.00    -0.244 OA
ATOM     25  C   UNL     1      32.899 -13.776 -20.406  0.00  0.00    +0.351 C 
BRANCH  25  26
ATOM     26  O   UNL     1      31.677 -14.009 -19.888  0.00  0.00    -0.476 OA
ATOM     27  H   UNL     1      31.114 -14.644 -20.282  0.00  0.00    +0.295 HD
ENDBRANCH  25  26
ENDBRANCH   7  25
BRANCH   8  28
ATOM     28  C   UNL     1      34.095 -14.707 -22.975  0.00  0.00    +0.089 C 
BRANCH  28  29
ATOM     29  S   UNL     1      34.043 -15.188 -24.709  0.00  0.00    -0.070 S 
BRANCH  29  34
ATOM     30  N   UNL     1      33.917 -17.778 -23.745  0.00  0.00    -0.206 N 
ATOM     31  N   UNL     1      32.366 -17.342 -25.197  0.00  0.00    -0.101 NA
ATOM     32  N   UNL     1      33.209 -18.911 -23.857  0.00  0.00    -0.042 NA
ATOM     33  N   UNL     1      32.262 -18.638 -24.746  0.00  0.00    -0.022 NA
ATOM     34  C   UNL     1      33.395 -16.828 -24.564  0.00  0.00    +0.211 A 
ATOM     35  C   UNL     1      35.044 -17.709 -22.850  0.00  0.00    +0.158 C 
ENDBRANCH  29  34
ENDBRANCH  28  29
ENDBRANCH   8  28
TORSDOF 10
ENDMDL
MODEL 4
REMARK VINA RESULT:      -9.4      3.507      6.170
REMARK  Name = 5284527
REMARK  10 active torsions:
REMARK  status: ('A' for Active; 'I' for Inactive)
REMARK    1  A    between atoms: CA_5  and  N_11
REMARK    2  A    between atoms: CA_7  and  C_25
REMARK    3  A    between atoms: C_8  and  C_28
REMARK    4  A    between atoms: C_12  and  C_14
REMARK    5  A    between atoms: C_14  and  C_15
REMARK    6  A    between atoms: C_14  and  O_21
REMARK    7  A    between atoms: O_21  and  C_23
REMARK    8  A    between atoms: C_25  and  O_26
REMARK    9  A    between atoms: C_28  and  S_29
REMARK   10  A    between atoms: S_29  and  C_34
REMARK                            x       y       z     vdW  Elec       q    Type
REMARK                         _______ _______ _______ _____ _____    ______ ____
ROOT
ATOM      1  S   UNL     1      32.302 -20.477 -19.957  0.00  0.00    -0.114 S 
ATOM      2  O   UNL     1      36.608 -21.236 -18.381  0.00  0.00    -0.273 OA
ATOM      3  N   UNL     1      34.951 -20.642 -19.950  0.00  0.00    -0.242 N 
ATOM      4  C   UNL     1      33.787 -21.499 -20.087  0.00  0.00    +0.155 C 
ATOM      5  CA  UNL     1      34.261 -22.190 -18.790  0.00  0.00    +0.178 C 
ATOM      6  C   UNL     1      35.547 -21.330 -18.951  0.00  0.00    +0.251 C 
ATOM      7  CA  UNL     1      35.167 -19.536 -20.705  0.00  0.00    +0.124 C 
ATOM      8  C   UNL     1      34.177 -18.978 -21.442  0.00  0.00    -0.002 C 
ATOM      9  C   UNL     1      32.733 -19.469 -21.416  0.00  0.00    +0.083 C 
ENDROOT
BRANCH   5  11
ATOM     10  O   UNL     1      33.442 -24.123 -16.804  0.00  0.00    -0.271 OA
ATOM     11  N   UNL     1      33.533 -21.926 -17.550  0.00  0.00    -0.293 N 
ATOM     12  C   UNL     1      33.180 -22.932 -16.650  0.00  0.00    +0.268 C 
ATOM     13  H   UNL     1      33.279 -20.998 -17.341  0.00  0.00    +0.150 HD
BRANCH  12  14
ATOM     14  C   UNL     1      32.448 -22.402 -15.425  0.00  0.00    +0.267 C 
BRANCH  14  15
ATOM     15  C   UNL     1      31.023 -22.900 -15.370  0.00  0.00    +0.026 C 
ATOM     16  C   UNL     1      30.067 -22.378 -16.241  0.00  0.00    -0.000 C 
ATOM     17  C   UNL     1      30.662 -23.882 -14.446  0.00  0.00    -0.000 C 
ATOM     18  C   UNL     1      28.751 -22.837 -16.190  0.00  0.00    -0.000 C 
ATOM     19  C   UNL     1      29.346 -24.342 -14.396  0.00  0.00    -0.000 C 
ATOM     20  C   UNL     1      28.391 -23.819 -15.267  0.00  0.00    -0.000 C 
ENDBRANCH  14  15
BRANCH  14  21
ATOM     21  O   UNL     1      33.127 -22.824 -14.251  0.00  0.00    -0.431 OA
BRANCH  21  23
ATOM     22  O   UNL     1      35.331 -23.383 -13.816  0.00  0.00    -0.238 OA
ATOM     23  C   UNL     1      34.476 -22.625 -14.244  0.00  0.00    +0.419 C 
ENDBRANCH  21  23
ENDBRANCH  14  21
ENDBRANCH  12  14
ENDBRANCH   5  11
BRANCH   7  25
ATOM     24  OXT UNL     1      37.193 -18.673 -21.604  0.00  0.00    -0.244 OA
ATOM     25  C   UNL     1      36.507 -18.931 -20.635  0.00  0.00    +0.351 C 
BRANCH  25  26
ATOM     26  O   UNL     1      36.834 -18.717 -19.346  0.00  0.00    -0.476 OA
ATOM     27  H   UNL     1      36.208 -18.341 -18.760  0.00  0.00    +0.295 HD
ENDBRANCH  25  26
ENDBRANCH   7  25
BRANCH   8  28
ATOM     28  C   UNL     1      34.358 -17.798 -22.368  0.00  0.00    +0.089 C 
BRANCH  28  29
ATOM     29  S   UNL     1      34.470 -16.288 -21.395  0.00  0.00    -0.070 S 
BRANCH  29  34
ATOM     30  N   UNL     1      33.594 -13.816 -22.276  0.00  0.00    -0.206 N 
ATOM     31  N   UNL     1      33.698 -15.290 -23.863  0.00  0.00    -0.101 NA
ATOM     32  N   UNL     1      33.194 -13.173 -23.381  0.00  0.00    -0.042 NA
ATOM     33  N   UNL     1      33.260 -14.079 -24.349  0.00  0.00    -0.022 NA
ATOM     34  C   UNL     1      33.900 -15.105 -22.580  0.00  0.00    +0.211 A 
ATOM     35  C   UNL     1      33.648 -13.128 -21.011  0.00  0.00    +0.158 C 
ENDBRANCH  29  34
ENDBRANCH  28  29
ENDBRANCH   8  28
TORSDOF 10
ENDMDL
MODEL 5
REMARK VINA RESULT:      -9.3      2.918      9.792
REMARK  Name = 5284527
REMARK  10 active torsions:
REMARK  status: ('A' for Active; 'I' for Inactive)
REMARK    1  A    between atoms: CA_5  and  N_11
REMARK    2  A    between atoms: CA_7  and  C_25
REMARK    3  A    between atoms: C_8  and  C_28
REMARK    4  A    between atoms: C_12  and  C_14
REMARK    5  A    between atoms: C_14  and  C_15
REMARK    6  A    between atoms: C_14  and  O_21
REMARK    7  A    between atoms: O_21  and  C_23
REMARK    8  A    between atoms: C_25  and  O_26
REMARK    9  A    between atoms: C_28  and  S_29
REMARK   10  A    between atoms: S_29  and  C_34
REMARK                            x       y       z     vdW  Elec       q    Type
REMARK                         _______ _______ _______ _____ _____    ______ ____
ROOT
ATOM      1  S   UNL     1      36.709 -19.901 -17.944  0.00  0.00    -0.114 S 
ATOM      2  O   UNL     1      32.858 -21.818 -19.706  0.00  0.00    -0.273 OA
ATOM      3  N   UNL     1      34.767 -21.670 -18.330  0.00  0.00    -0.242 N 
ATOM      4  C   UNL     1      36.023 -21.254 -18.928  0.00  0.00    +0.155 C 
ATOM      5  CA  UNL     1      35.190 -20.850 -20.164  0.00  0.00    +0.178 C 
ATOM      6  C   UNL     1      34.007 -21.554 -19.441  0.00  0.00    +0.251 C 
ATOM      7  CA  UNL     1      34.632 -22.023 -17.027  0.00  0.00    +0.124 C 
ATOM      8  C   UNL     1      35.590 -21.736 -16.113  0.00  0.00    -0.002 C 
ATOM      9  C   UNL     1      36.837 -20.917 -16.434  0.00  0.00    +0.083 C 
ENDROOT
BRANCH   5  11
ATOM     10  O   UNL     1      36.864 -19.054 -21.690  0.00  0.00    -0.271 OA
ATOM     11  N   UNL     1      34.958 -19.429 -20.418  0.00  0.00    -0.293 N 
ATOM     12  C   UNL     1      35.828 -18.641 -21.171  0.00  0.00    +0.268 C 
ATOM     13  H   UNL     1      34.150 -19.009 -20.041  0.00  0.00    +0.150 HD
BRANCH  12  14
ATOM     14  C   UNL     1      35.355 -17.201 -21.311  0.00  0.00    +0.267 C 
BRANCH  14  15
ATOM     15  C   UNL     1      34.636 -16.976 -22.620  0.00  0.00    +0.026 C 
ATOM     16  C   UNL     1      34.615 -15.705 -23.195  0.00  0.00    -0.000 C 
ATOM     17  C   UNL     1      33.993 -18.039 -23.255  0.00  0.00    -0.000 C 
ATOM     18  C   UNL     1      33.951 -15.496 -24.403  0.00  0.00    -0.000 C 
ATOM     19  C   UNL     1      33.329 -17.830 -24.463  0.00  0.00    -0.000 C 
ATOM     20  C   UNL     1      33.308 -16.559 -25.037  0.00  0.00    -0.000 C 
ENDBRANCH  14  15
BRANCH  14  21
ATOM     21  O   UNL     1      34.471 -16.890 -20.243  0.00  0.00    -0.431 OA
BRANCH  21  23
ATOM     22  O   UNL     1      34.157 -14.603 -20.077  0.00  0.00    -0.238 OA
ATOM     23  C   UNL     1      33.776 -15.725 -20.370  0.00  0.00    +0.419 C 
ENDBRANCH  21  23
ENDBRANCH  14  21
ENDBRANCH  12  14
ENDBRANCH   5  11
BRANCH   7  25
ATOM     24  OXT UNL     1      32.371 -22.077 -16.292  0.00  0.00    -0.244 OA
ATOM     25  C   UNL     1      33.371 -22.674 -16.639  0.00  0.00    +0.351 C 
BRANCH  25  26
ATOM     26  O   UNL     1      33.510 -24.010 -16.732  0.00  0.00    -0.476 OA
ATOM     27  H   UNL     1      34.000 -24.383 -17.438  0.00  0.00    +0.295 HD
ENDBRANCH  25  26
ENDBRANCH   7  25
BRANCH   8  28
ATOM     28  C   UNL     1      35.550 -22.166 -14.666  0.00  0.00    +0.089 C 
BRANCH  28  29
ATOM     29  S   UNL     1      36.393 -23.746 -14.488  0.00  0.00    -0.070 S 
BRANCH  29  34
ATOM     30  N   UNL     1      34.677 -24.111 -12.350  0.00  0.00    -0.206 N 
ATOM     31  N   UNL     1      36.742 -24.552 -11.859  0.00  0.00    -0.101 NA
ATOM     32  N   UNL     1      34.662 -24.480 -11.061  0.00  0.00    -0.042 NA
ATOM     33  N   UNL     1      35.928 -24.749 -10.767  0.00  0.00    -0.022 NA
ATOM     34  C   UNL     1      35.948 -24.159 -12.827  0.00  0.00    +0.211 A 
ATOM     35  C   UNL     1      33.453 -23.740 -13.015  0.00  0.00    +0.158 C 
ENDBRANCH  29  34
ENDBRANCH  28  29
ENDBRANCH   8  28
TORSDOF 10
ENDMDL
MODEL 6
REMARK VINA RESULT:      -9.0      3.154      5.518
REMARK  Name = 5284527
REMARK  10 active torsions:
REMARK  status: ('A' for Active; 'I' for Inactive)
REMARK    1  A    between atoms: CA_5  and  N_11
REMARK    2  A    between atoms: CA_7  and  C_25
REMARK    3  A    between atoms: C_8  and  C_28
REMARK    4  A    between atoms: C_12  and  C_14
REMARK    5  A    between atoms: C_14  and  C_15
REMARK    6  A    between atoms: C_14  and  O_21
REMARK    7  A    between atoms: O_21  and  C_23
REMARK    8  A    between atoms: C_25  and  O_26
REMARK    9  A    between atoms: C_28  and  S_29
REMARK   10  A    between atoms: S_29  and  C_34
REMARK                            x       y       z     vdW  Elec       q    Type
REMARK                         _______ _______ _______ _____ _____    ______ ____
ROOT
ATOM      1  S   UNL     1      32.260 -21.035 -19.077  0.00  0.00    -0.114 S 
ATOM      2  O   UNL     1      36.683 -21.565 -17.750  0.00  0.00    -0.273 OA
ATOM      3  N   UNL     1      34.911 -21.037 -19.213  0.00  0.00    -0.242 N 
ATOM      4  C   UNL     1      33.795 -21.960 -19.313  0.00  0.00    +0.155 C 
ATOM      5  CA  UNL     1      34.379 -22.651 -18.061  0.00  0.00    +0.178 C 
ATOM      6  C   UNL     1      35.600 -21.711 -18.266  0.00  0.00    +0.251 C 
ATOM      7  CA  UNL     1      35.020 -19.902 -19.948  0.00  0.00    +0.124 C 
ATOM      8  C   UNL     1      33.959 -19.389 -20.617  0.00  0.00    -0.002 C 
ATOM      9  C   UNL     1      32.550 -19.968 -20.529  0.00  0.00    +0.083 C 
ENDROOT
BRANCH   5  11
ATOM     10  O   UNL     1      34.407 -24.445 -15.795  0.00  0.00    -0.271 OA
ATOM     11  N   UNL     1      33.704 -22.462 -16.778  0.00  0.00    -0.293 N 
ATOM     12  C   UNL     1      33.777 -23.390 -15.739  0.00  0.00    +0.268 C 
ATOM     13  H   UNL     1      33.173 -21.644 -16.640  0.00  0.00    +0.150 HD
BRANCH  12  14
ATOM     14  C   UNL     1      33.008 -22.955 -14.499  0.00  0.00    +0.267 C 
BRANCH  14  15
ATOM     15  C   UNL     1      31.532 -23.248 -14.628  0.00  0.00    +0.026 C 
ATOM     16  C   UNL     1      30.968 -24.311 -13.921  0.00  0.00    -0.000 C 
ATOM     17  C   UNL     1      30.733 -22.458 -15.454  0.00  0.00    -0.000 C 
ATOM     18  C   UNL     1      29.605 -24.582 -14.040  0.00  0.00    -0.000 C 
ATOM     19  C   UNL     1      29.370 -22.729 -15.573  0.00  0.00    -0.000 C 
ATOM     20  C   UNL     1      28.806 -23.791 -14.866  0.00  0.00    -0.000 C 
ENDBRANCH  14  15
BRANCH  14  21
ATOM     21  O   UNL     1      33.516 -23.645 -13.366  0.00  0.00    -0.431 OA
BRANCH  21  23
ATOM     22  O   UNL     1      35.619 -22.681 -13.297  0.00  0.00    -0.238 OA
ATOM     23  C   UNL     1      34.596 -23.075 -12.761  0.00  0.00    +0.419 C 
ENDBRANCH  21  23
ENDBRANCH  14  21
ENDBRANCH  12  14
ENDBRANCH   5  11
BRANCH   7  25
ATOM     24  OXT UNL     1      36.858 -18.790 -18.930  0.00  0.00    -0.244 OA
ATOM     25  C   UNL     1      36.322 -19.218 -19.932  0.00  0.00    +0.351 C 
BRANCH  25  26
ATOM     26  O   UNL     1      36.807 -19.151 -21.187  0.00  0.00    -0.476 OA
ATOM     27  H   UNL     1      36.629 -19.840 -21.796  0.00  0.00    +0.295 HD
ENDBRANCH  25  26
ENDBRANCH   7  25
BRANCH   8  28
ATOM     28  C   UNL     1      34.019 -18.178 -21.519  0.00  0.00    +0.089 C 
BRANCH  28  29
ATOM     29  S   UNL     1      33.986 -18.711 -23.238  0.00  0.00    -0.070 S 
BRANCH  29  34
ATOM     30  N   UNL     1      33.954 -15.961 -23.532  0.00  0.00    -0.206 N 
ATOM     31  N   UNL     1      33.010 -16.997 -25.186  0.00  0.00    -0.101 NA
ATOM     32  N   UNL     1      33.548 -14.995 -24.368  0.00  0.00    -0.042 NA
ATOM     33  N   UNL     1      32.971 -15.635 -25.378  0.00  0.00    -0.022 NA
ATOM     34  C   UNL     1      33.623 -17.177 -24.039  0.00  0.00    +0.211 A 
ATOM     35  C   UNL     1      34.633 -15.625 -22.306  0.00  0.00    +0.158 C 
ENDBRANCH  29  34
ENDBRANCH  28  29
ENDBRANCH   8  28
TORSDOF 10
ENDMDL
MODEL 7
REMARK VINA RESULT:      -8.8      2.648      8.386
REMARK  Name = 5284527
REMARK  10 active torsions:
REMARK  status: ('A' for Active; 'I' for Inactive)
REMARK    1  A    between atoms: CA_5  and  N_11
REMARK    2  A    between atoms: CA_7  and  C_25
REMARK    3  A    between atoms: C_8  and  C_28
REMARK    4  A    between atoms: C_12  and  C_14
REMARK    5  A    between atoms: C_14  and  C_15
REMARK    6  A    between atoms: C_14  and  O_21
REMARK    7  A    between atoms: O_21  and  C_23
REMARK    8  A    between atoms: C_25  and  O_26
REMARK    9  A    between atoms: C_28  and  S_29
REMARK   10  A    between atoms: S_29  and  C_34
REMARK                            x       y       z     vdW  Elec       q    Type
REMARK                         _______ _______ _______ _____ _____    ______ ____
ROOT
ATOM      1  S   UNL     1      36.343 -21.643 -15.998  0.00  0.00    -0.114 S 
ATOM      2  O   UNL     1      32.125 -23.578 -15.723  0.00  0.00    -0.273 OA
ATOM      3  N   UNL     1      34.386 -23.224 -15.152  0.00  0.00    -0.242 N 
ATOM      4  C   UNL     1      35.367 -23.149 -16.219  0.00  0.00    +0.155 C 
ATOM      5  CA  UNL     1      34.167 -23.053 -17.187  0.00  0.00    +0.178 C 
ATOM      6  C   UNL     1      33.296 -23.371 -15.938  0.00  0.00    +0.251 C 
ATOM      7  CA  UNL     1      34.697 -23.147 -13.833  0.00  0.00    +0.124 C 
ATOM      8  C   UNL     1      35.906 -22.701 -13.417  0.00  0.00    -0.002 C 
ATOM      9  C   UNL     1      36.973 -22.158 -14.364  0.00  0.00    +0.083 C 
ENDROOT
BRANCH   5  11
ATOM     10  O   UNL     1      34.839 -22.187 -19.862  0.00  0.00    -0.271 OA
ATOM     11  N   UNL     1      33.862 -21.760 -17.799  0.00  0.00    -0.293 N 
ATOM     12  C   UNL     1      34.230 -21.434 -19.103  0.00  0.00    +0.268 C 
ATOM     13  H   UNL     1      33.375 -21.090 -17.265  0.00  0.00    +0.150 HD
BRANCH  12  14
ATOM     14  C   UNL     1      33.779 -20.040 -19.517  0.00  0.00    +0.267 C 
BRANCH  14  15
ATOM     15  C   UNL     1      34.695 -19.445 -20.560  0.00  0.00    +0.026 C 
ATOM     16  C   UNL     1      34.220 -19.202 -21.849  0.00  0.00    -0.000 C 
ATOM     17  C   UNL     1      36.018 -19.140 -20.236  0.00  0.00    -0.000 C 
ATOM     18  C   UNL     1      35.065 -18.653 -22.813  0.00  0.00    -0.000 C 
ATOM     19  C   UNL     1      36.863 -18.591 -21.199  0.00  0.00    -0.000 C 
ATOM     20  C   UNL     1      36.387 -18.348 -22.488  0.00  0.00    -0.000 C 
ENDBRANCH  14  15
BRANCH  14  21
ATOM     21  O   UNL     1      32.464 -20.110 -20.047  0.00  0.00    -0.431 OA
BRANCH  21  23
ATOM     22  O   UNL     1      31.249 -20.981 -18.280  0.00  0.00    -0.238 OA
ATOM     23  C   UNL     1      31.627 -20.998 -19.440  0.00  0.00    +0.419 C 
ENDBRANCH  21  23
ENDBRANCH  14  21
ENDBRANCH  12  14
ENDBRANCH   5  11
BRANCH   7  25
ATOM     24  OXT UNL     1      33.721 -24.420 -12.078  0.00  0.00    -0.244 OA
ATOM     25  C   UNL     1      33.640 -23.508 -12.876  0.00  0.00    +0.351 C 
BRANCH  25  26
ATOM     26  O   UNL     1      32.593 -22.674 -13.030  0.00  0.00    -0.476 OA
ATOM     27  H   UNL     1      31.810 -22.808 -12.535  0.00  0.00    +0.295 HD
ENDBRANCH  25  26
ENDBRANCH   7  25
BRANCH   8  28
ATOM     28  C   UNL     1      36.355 -22.661 -11.976  0.00  0.00    +0.089 C 
BRANCH  28  29
ATOM     29  S   UNL     1      37.955 -23.472 -11.826  0.00  0.00    -0.070 S 
BRANCH  29  34
ATOM     30  N   UNL     1      38.341 -25.429 -13.743  0.00  0.00    -0.206 N 
ATOM     31  N   UNL     1      36.683 -25.864 -12.415  0.00  0.00    -0.101 NA
ATOM     32  N   UNL     1      37.851 -26.603 -14.164  0.00  0.00    -0.042 NA
ATOM     33  N   UNL     1      36.836 -26.864 -13.348  0.00  0.00    -0.022 NA
ATOM     34  C   UNL     1      37.625 -24.987 -12.677  0.00  0.00    +0.211 A 
ATOM     35  C   UNL     1      39.469 -24.829 -14.411  0.00  0.00    +0.158 C 
ENDBRANCH  29  34
ENDBRANCH  28  29
ENDBRANCH   8  28
TORSDOF 10
ENDMDL
MODEL 8
REMARK VINA RESULT:      -8.7     13.225     18.870
REMARK  Name = 5284527
REMARK  10 active torsions:
REMARK  status: ('A' for Active; 'I' for Inactive)
REMARK    1  A    between atoms: CA_5  and  N_11
REMARK    2  A    between atoms: CA_7  and  C_25
REMARK    3  A    between atoms: C_8  and  C_28
REMARK    4  A    between atoms: C_12  and  C_14
REMARK    5  A    between atoms: C_14  and  C_15
REMARK    6  A    between atoms: C_14  and  O_21
REMARK    7  A    between atoms: O_21  and  C_23
REMARK    8  A    between atoms: C_25  and  O_26
REMARK    9  A    between atoms: C_28  and  S_29
REMARK   10  A    between atoms: S_29  and  C_34
REMARK                            x       y       z     vdW  Elec       q    Type
REMARK                         _______ _______ _______ _____ _____    ______ ____
ROOT
ATOM      1  S   UNL     1      31.529  -7.714 -24.052  0.00  0.00    -0.114 S 
ATOM      2  O   UNL     1      30.971  -5.446 -20.032  0.00  0.00    -0.273 OA
ATOM      3  N   UNL     1      30.888  -7.280 -21.512  0.00  0.00    -0.242 N 
ATOM      4  C   UNL     1      30.347  -7.072 -22.844  0.00  0.00    +0.155 C 
ATOM      5  CA  UNL     1      30.429  -5.561 -22.538  0.00  0.00    +0.178 C 
ATOM      6  C   UNL     1      30.780  -6.001 -21.088  0.00  0.00    +0.251 C 
ATOM      7  CA  UNL     1      31.311  -8.482 -21.048  0.00  0.00    +0.124 C 
ATOM      8  C   UNL     1      31.536  -9.524 -21.885  0.00  0.00    -0.002 C 
ATOM      9  C   UNL     1      31.436  -9.417 -23.404  0.00  0.00    +0.083 C 
ENDROOT
BRANCH   5  11
ATOM     10  O   UNL     1      30.079  -3.303 -24.309  0.00  0.00    -0.271 OA
ATOM     11  N   UNL     1      31.479  -4.772 -23.181  0.00  0.00    -0.293 N 
ATOM     12  C   UNL     1      31.209  -3.695 -24.024  0.00  0.00    +0.268 C 
ATOM     13  H   UNL     1      32.419  -5.013 -23.011  0.00  0.00    +0.150 HD
BRANCH  12  14
ATOM     14  C   UNL     1      32.469  -3.022 -24.550  0.00  0.00    +0.267 C 
BRANCH  14  15
ATOM     15  C   UNL     1      33.176  -3.885 -25.569  0.00  0.00    +0.026 C 
ATOM     16  C   UNL     1      32.445  -4.774 -26.358  0.00  0.00    -0.000 C 
ATOM     17  C   UNL     1      34.560  -3.794 -25.722  0.00  0.00    -0.000 C 
ATOM     18  C   UNL     1      33.097  -5.571 -27.299  0.00  0.00    -0.000 C 
ATOM     19  C   UNL     1      35.212  -4.590 -26.662  0.00  0.00    -0.000 C 
ATOM     20  C   UNL     1      34.481  -5.479 -27.450  0.00  0.00    -0.000 C 
ENDBRANCH  14  15
BRANCH  14  21
ATOM     21  O   UNL     1      32.124  -1.786 -25.157  0.00  0.00    -0.431 OA
BRANCH  21  23
ATOM     22  O   UNL     1      30.863  -1.813 -27.098  0.00  0.00    -0.238 OA
ATOM     23  C   UNL     1      31.930  -1.822 -26.506  0.00  0.00    +0.419 C 
ENDBRANCH  21  23
ENDBRANCH  14  21
ENDBRANCH  12  14
ENDBRANCH   5  11
BRANCH   7  25
ATOM     24  OXT UNL     1      30.962  -9.308 -18.846  0.00  0.00    -0.244 OA
ATOM     25  C   UNL     1      31.577  -8.585 -19.605  0.00  0.00    +0.351 C 
BRANCH  25  26
ATOM     26  O   UNL     1      32.592  -7.763 -19.278  0.00  0.00    -0.476 OA
ATOM     27  H   UNL     1      32.553  -7.260 -18.489  0.00  0.00    +0.295 HD
ENDBRANCH  25  26
ENDBRANCH   7  25
BRANCH   8  28
ATOM     28  C   UNL     1      31.930 -10.912 -21.439  0.00  0.00    +0.089 C 
BRANCH  28  29
ATOM     29  S   UNL     1      32.629 -11.812 -22.832  0.00  0.00    -0.070 S 
BRANCH  29  34
ATOM     30  N   UNL     1      33.643 -14.376 -22.607  0.00  0.00    -0.206 N 
ATOM     31  N   UNL     1      33.613 -13.311 -20.718  0.00  0.00    -0.101 NA
ATOM     32  N   UNL     1      34.146 -15.234 -21.710  0.00  0.00    -0.042 NA
ATOM     33  N   UNL     1      34.126 -14.578 -20.556  0.00  0.00    -0.022 NA
ATOM     34  C   UNL     1      33.322 -13.206 -21.994  0.00  0.00    +0.211 A 
ATOM     35  C   UNL     1      33.513 -14.759 -23.990  0.00  0.00    +0.158 C 
ENDBRANCH  29  34
ENDBRANCH  28  29
ENDBRANCH   8  28
TORSDOF 10
ENDMDL
MODEL 9
REMARK VINA RESULT:      -8.4      3.199      8.874
REMARK  Name = 5284527
REMARK  10 active torsions:
REMARK  status: ('A' for Active; 'I' for Inactive)
REMARK    1  A    between atoms: CA_5  and  N_11
REMARK    2  A    between atoms: CA_7  and  C_25
REMARK    3  A    between atoms: C_8  and  C_28
REMARK    4  A    between atoms: C_12  and  C_14
REMARK    5  A    between atoms: C_14  and  C_15
REMARK    6  A    between atoms: C_14  and  O_21
REMARK    7  A    between atoms: O_21  and  C_23
REMARK    8  A    between atoms: C_25  and  O_26
REMARK    9  A    between atoms: C_28  and  S_29
REMARK   10  A    between atoms: S_29  and  C_34
REMARK                            x       y       z     vdW  Elec       q    Type
REMARK                         _______ _______ _______ _____ _____    ______ ____
ROOT
ATOM      1  S   UNL     1      34.037 -23.357 -15.051  0.00  0.00    -0.114 S 
ATOM      2  O   UNL     1      38.263 -21.942 -16.371  0.00  0.00    -0.273 OA
ATOM      3  N   UNL     1      36.663 -22.976 -14.982  0.00  0.00    -0.242 N 
ATOM      4  C   UNL     1      35.431 -22.264 -14.693  0.00  0.00    +0.155 C 
ATOM      5  CA  UNL     1      35.845 -21.288 -15.816  0.00  0.00    +0.178 C 
ATOM      6  C   UNL     1      37.199 -22.053 -15.811  0.00  0.00    +0.251 C 
ATOM      7  CA  UNL     1      36.972 -24.191 -14.462  0.00  0.00    +0.124 C 
ATOM      8  C   UNL     1      36.033 -24.966 -13.869  0.00  0.00    -0.002 C 
ATOM      9  C   UNL     1      34.552 -24.601 -13.819  0.00  0.00    +0.083 C 
ENDROOT
BRANCH   5  11
ATOM     10  O   UNL     1      36.585 -19.978 -18.284  0.00  0.00    -0.271 OA
ATOM     11  N   UNL     1      35.140 -21.354 -17.096  0.00  0.00    -0.293 N 
ATOM     12  C   UNL     1      35.578 -20.683 -18.237  0.00  0.00    +0.268 C 
ATOM     13  H   UNL     1      34.320 -21.897 -17.155  0.00  0.00    +0.150 HD
BRANCH  12  14
ATOM     14  C   UNL     1      34.688 -20.927 -19.448  0.00  0.00    +0.267 C 
BRANCH  14  15
ATOM     15  C   UNL     1      34.933 -19.907 -20.534  0.00  0.00    +0.026 C 
ATOM     16  C   UNL     1      36.172 -19.273 -20.629  0.00  0.00    -0.000 C 
ATOM     17  C   UNL     1      33.919 -19.595 -21.441  0.00  0.00    -0.000 C 
ATOM     18  C   UNL     1      36.399 -18.330 -21.631  0.00  0.00    -0.000 C 
ATOM     19  C   UNL     1      34.146 -18.652 -22.443  0.00  0.00    -0.000 C 
ATOM     20  C   UNL     1      35.385 -18.020 -22.538  0.00  0.00    -0.000 C 
ENDBRANCH  14  15
BRANCH  14  21
ATOM     21  O   UNL     1      34.949 -22.223 -19.969  0.00  0.00    -0.431 OA
BRANCH  21  23
ATOM     22  O   UNL     1      33.379 -23.470 -18.813  0.00  0.00    -0.238 OA
ATOM     23  C   UNL     1      33.936 -23.126 -19.843  0.00  0.00    +0.419 C 
ENDBRANCH  21  23
ENDBRANCH  14  21
ENDBRANCH  12  14
ENDBRANCH   5  11
BRANCH   7  25
ATOM     24  OXT UNL     1      39.327 -24.112 -14.139  0.00  0.00    -0.244 OA
ATOM     25  C   UNL     1      38.357 -24.656 -14.630  0.00  0.00    +0.351 C 
BRANCH  25  26
ATOM     26  O   UNL     1      38.368 -25.760 -15.402  0.00  0.00    -0.476 OA
ATOM     27  H   UNL     1      37.562 -26.175 -15.637  0.00  0.00    +0.295 HD
ENDBRANCH  25  26
ENDBRANCH   7  25
BRANCH   8  28
ATOM     28  C   UNL     1      36.313 -26.290 -13.198  0.00  0.00    +0.089 C 
BRANCH  28  29
ATOM     29  S   UNL     1      37.284 -26.011 -11.708  0.00  0.00    -0.070 S 
BRANCH  29  34
ATOM     30  N   UNL     1      36.606 -23.448 -10.918  0.00  0.00    -0.206 N 
ATOM     31  N   UNL     1      35.188 -24.943 -10.241  0.00  0.00    -0.101 NA
ATOM     32  N   UNL     1      35.673 -22.767 -10.238  0.00  0.00    -0.042 NA
ATOM     33  N   UNL     1      34.808 -23.687  -9.826  0.00  0.00    -0.022 NA
ATOM     34  C   UNL     1      36.301 -24.772 -10.916  0.00  0.00    +0.211 A 
ATOM     35  C   UNL     1      37.719 -22.757 -11.517  0.00  0.00    +0.158 C 
ENDBRANCH  29  34
ENDBRANCH  28  29
ENDBRANCH   8  28
TORSDOF 10
ENDMDL
