MODEL 1
REMARK VINA RESULT:     -13.2      0.000      0.000
REMARK  Name = 42611257
REMARK  7 active torsions:
REMARK  status: ('A' for Active; 'I' for Inactive)
REMARK    1  A    between atoms: C_2  and  C_6
REMARK    2  A    between atoms: C_2  and  C_22
REMARK    3  A    between atoms: C_10  and  C_14
REMARK    4  A    between atoms: C_23  and  N_28
REMARK    5  A    between atoms: N_28  and  S_30
REMARK    6  A    between atoms: S_30  and  C_33
REMARK    7  A    between atoms: C_33  and  C_34
REMARK                            x       y       z     vdW  Elec       q    Type
REMARK                         _______ _______ _______ _____ _____    ______ ____
ROOT
ATOM      1  O   UNL     1      34.357 -12.770 -21.522  0.00  0.00    -0.286 OA
ATOM      2  C   UNL     1      33.437 -12.737 -22.367  0.00  0.00    +0.201 C 
ENDROOT
BRANCH   2   6
ATOM      3  N   UNL     1      33.015 -14.599 -25.428  0.00  0.00    -0.297 N 
ATOM      4  N   UNL     1      33.584 -16.902 -25.010  0.00  0.00    -0.229 NA
ATOM      5  C   UNL     1      33.656 -15.101 -23.348  0.00  0.00    +0.036 C 
ATOM      6  C   UNL     1      33.360 -13.714 -23.416  0.00  0.00    +0.056 C 
ATOM      7  C   UNL     1      33.430 -15.623 -24.618  0.00  0.00    +0.132 C 
ATOM      8  C   UNL     1      34.092 -15.989 -22.351  0.00  0.00    +0.004 C 
ATOM      9  C   UNL     1      32.968 -13.434 -24.707  0.00  0.00    +0.066 C 
ATOM     10  C   UNL     1      34.267 -17.326 -22.704  0.00  0.00    +0.019 C 
ATOM     11  C   UNL     1      34.006 -17.712 -24.012  0.00  0.00    +0.100 C 
ATOM     12  H   UNL     1      32.785 -14.687 -26.381  0.00  0.00    +0.154 HD
BRANCH  10  14
ATOM     13 CL   UNL     1      36.109 -21.298 -18.665  0.00  0.00    -0.082 Cl
ATOM     14  C   UNL     1      34.715 -18.290 -21.725  0.00  0.00    +0.002 C 
ATOM     15  C   UNL     1      36.030 -18.255 -21.261  0.00  0.00    +0.001 C 
ATOM     16  C   UNL     1      33.831 -19.256 -21.243  0.00  0.00    +0.001 C 
ATOM     17  C   UNL     1      36.461 -19.185 -20.314  0.00  0.00    +0.011 C 
ATOM     18  C   UNL     1      34.262 -20.186 -20.298  0.00  0.00    +0.011 C 
ATOM     19  C   UNL     1      35.577 -20.151 -19.833  0.00  0.00    +0.058 C 
ENDBRANCH  10  14
ENDBRANCH   2   6
BRANCH   2  22
ATOM     20  F   UNL     1      33.642 -10.287 -23.752  0.00  0.00    -0.203 F 
ATOM     21  F   UNL     1      31.187 -12.912 -20.654  0.00  0.00    -0.204 F 
ATOM     22  C   UNL     1      32.438 -11.623 -22.208  0.00  0.00    +0.095 C 
ATOM     23  C   UNL     1      31.673  -9.403 -22.776  0.00  0.00    +0.092 C 
ATOM     24  C   UNL     1      32.599 -10.436 -22.923  0.00  0.00    +0.160 C 
ATOM     25  C   UNL     1      31.352 -11.776 -21.346  0.00  0.00    +0.145 C 
ATOM     26  C   UNL     1      30.587  -9.557 -21.914  0.00  0.00    +0.020 C 
ATOM     27  C   UNL     1      30.426 -10.743 -21.200  0.00  0.00    +0.031 C 
BRANCH  23  28
ATOM     28  N   UNL     1      31.835  -8.187 -23.507  0.00  0.00    -0.217 N 
ATOM     29  H   UNL     1      31.381  -8.052 -24.371  0.00  0.00    +0.173 HD
BRANCH  28  30
ATOM     30  S   UNL     1      32.844  -6.963 -22.836  0.00  0.00    +0.054 S 
ATOM     31  O   UNL     1      32.776  -7.056 -21.389  0.00  0.00    -0.154 OA
ATOM     32  O   UNL     1      34.124  -6.919 -23.512  0.00  0.00    -0.154 OA
BRANCH  30  33
ATOM     33  C   UNL     1      31.929  -5.511 -23.303  0.00  0.00    +0.172 C 
BRANCH  33  34
ATOM     34  C   UNL     1      30.457  -5.648 -22.952  0.00  0.00    +0.027 C 
ATOM     35  C   UNL     1      30.079  -4.755 -21.782  0.00  0.00    +0.002 C 
ENDBRANCH  33  34
ENDBRANCH  30  33
ENDBRANCH  28  30
ENDBRANCH  23  28
ENDBRANCH   2  22
TORSDOF 7
ENDMDL
MODEL 2
REMARK VINA RESULT:     -12.5      4.129      6.969
REMARK  Name = 42611257
REMARK  7 active torsions:
REMARK  status: ('A' for Active; 'I' for Inactive)
REMARK    1  A    between atoms: C_2  and  C_6
REMARK    2  A    between atoms: C_2  and  C_22
REMARK    3  A    between atoms: C_10  and  C_14
REMARK    4  A    between atoms: C_23  and  N_28
REMARK    5  A    between atoms: N_28  and  S_30
REMARK    6  A    between atoms: S_30  and  C_33
REMARK    7  A    between atoms: C_33  and  C_34
REMARK                            x       y       z     vdW  Elec       q    Type
REMARK                         _______ _______ _______ _____ _____    ______ ____
ROOT
ATOM      1  O   UNL     1      36.023 -19.058 -20.584  0.00  0.00    -0.286 OA
ATOM      2  C   UNL     1      34.835 -18.896 -20.937  0.00  0.00    +0.201 C 
ENDROOT
BRANCH   2   6
ATOM      3  N   UNL     1      31.780 -20.649 -20.159  0.00  0.00    -0.297 N 
ATOM      4  N   UNL     1      32.189 -22.112 -18.290  0.00  0.00    -0.229 NA
ATOM      5  C   UNL     1      33.851 -20.634 -19.323  0.00  0.00    +0.036 C 
ATOM      6  C   UNL     1      33.787 -19.722 -20.410  0.00  0.00    +0.056 C 
ATOM      7  C   UNL     1      32.583 -21.195 -19.194  0.00  0.00    +0.132 C 
ATOM      8  C   UNL     1      34.841 -21.058 -18.421  0.00  0.00    +0.004 C 
ATOM      9  C   UNL     1      32.501 -19.752 -20.904  0.00  0.00    +0.066 C 
ATOM     10  C   UNL     1      34.485 -22.007 -17.465  0.00  0.00    +0.019 C 
ATOM     11  C   UNL     1      33.181 -22.484 -17.449  0.00  0.00    +0.100 C 
ATOM     12  H   UNL     1      30.830 -20.867 -20.298  0.00  0.00    +0.154 HD
BRANCH  10  14
ATOM     13 CL   UNL     1      38.498 -23.981 -13.530  0.00  0.00    -0.082 Cl
ATOM     14  C   UNL     1      35.457 -22.485 -16.509  0.00  0.00    +0.002 C 
ATOM     15  C   UNL     1      35.093 -23.439 -15.559  0.00  0.00    +0.001 C 
ATOM     16  C   UNL     1      36.762 -21.993 -16.537  0.00  0.00    +0.001 C 
ATOM     17  C   UNL     1      36.033 -23.902 -14.638  0.00  0.00    +0.011 C 
ATOM     18  C   UNL     1      37.702 -22.455 -15.616  0.00  0.00    +0.011 C 
ATOM     19  C   UNL     1      37.338 -23.410 -14.667  0.00  0.00    +0.058 C 
ENDBRANCH  10  14
ENDBRANCH   2   6
BRANCH   2  22
ATOM     20  F   UNL     1      34.680 -16.174 -20.207  0.00  0.00    -0.203 F 
ATOM     21  F   UNL     1      34.488 -19.372 -23.708  0.00  0.00    -0.204 F 
ATOM     22  C   UNL     1      34.590 -17.796 -21.934  0.00  0.00    +0.095 C 
ATOM     23  C   UNL     1      34.296 -15.449 -22.430  0.00  0.00    +0.092 C 
ATOM     24  C   UNL     1      34.524 -16.470 -21.506  0.00  0.00    +0.160 C 
ATOM     25  C   UNL     1      34.427 -18.101 -23.285  0.00  0.00    +0.145 C 
ATOM     26  C   UNL     1      34.133 -15.756 -23.782  0.00  0.00    +0.020 C 
ATOM     27  C   UNL     1      34.199 -17.081 -24.209  0.00  0.00    +0.031 C 
BRANCH  23  28
ATOM     28  N   UNL     1      34.229 -14.091 -21.995  0.00  0.00    -0.217 N 
ATOM     29  H   UNL     1      34.818 -13.759 -21.279  0.00  0.00    +0.173 HD
BRANCH  28  30
ATOM     30  S   UNL     1      33.089 -13.049 -22.758  0.00  0.00    +0.054 S 
ATOM     31  O   UNL     1      33.751 -11.794 -23.067  0.00  0.00    -0.154 OA
ATOM     32  O   UNL     1      32.340 -13.757 -23.776  0.00  0.00    -0.154 OA
BRANCH  30  33
ATOM     33  C   UNL     1      31.993 -12.731 -21.395  0.00  0.00    +0.172 C 
BRANCH  33  34
ATOM     34  C   UNL     1      31.179 -11.468 -21.621  0.00  0.00    +0.027 C 
ATOM     35  C   UNL     1      31.216 -10.556 -20.406  0.00  0.00    +0.002 C 
ENDBRANCH  33  34
ENDBRANCH  30  33
ENDBRANCH  28  30
ENDBRANCH  23  28
ENDBRANCH   2  22
TORSDOF 7
ENDMDL
MODEL 3
REMARK VINA RESULT:     -12.3      4.665     10.332
REMARK  Name = 42611257
REMARK  7 active torsions:
REMARK  status: ('A' for Active; 'I' for Inactive)
REMARK    1  A    between atoms: C_2  and  C_6
REMARK    2  A    between atoms: C_2  and  C_22
REMARK    3  A    between atoms: C_10  and  C_14
REMARK    4  A    between atoms: C_23  and  N_28
REMARK    5  A    between atoms: N_28  and  S_30
REMARK    6  A    between atoms: S_30  and  C_33
REMARK    7  A    between atoms: C_33  and  C_34
REMARK                            x       y       z     vdW  Elec       q    Type
REMARK                         _______ _______ _______ _____ _____    ______ ____
ROOT
ATOM      1  O   UNL     1      33.856 -12.096 -24.299  0.00  0.00    -0.286 OA
ATOM      2  C   UNL     1      33.294 -12.767 -23.406  0.00  0.00    +0.201 C 
ENDROOT
BRANCH   2   6
ATOM      3  N   UNL     1      30.971 -11.923 -20.778  0.00  0.00    -0.297 N 
ATOM      4  N   UNL     1      30.580  -9.548 -20.832  0.00  0.00    -0.229 NA
ATOM      5  C   UNL     1      32.060 -10.775 -22.353  0.00  0.00    +0.036 C 
ATOM      6  C   UNL     1      32.405 -12.148 -22.465  0.00  0.00    +0.056 C 
ATOM      7  C   UNL     1      31.166 -10.669 -21.293  0.00  0.00    +0.132 C 
ATOM      8  C   UNL     1      32.402  -9.593 -23.032  0.00  0.00    +0.004 C 
ATOM      9  C   UNL     1      31.719 -12.830 -21.483  0.00  0.00    +0.066 C 
ATOM     10  C   UNL     1      31.824  -8.403 -22.595  0.00  0.00    +0.019 C 
ATOM     11  C   UNL     1      30.945  -8.442 -21.521  0.00  0.00    +0.100 C 
ATOM     12  H   UNL     1      30.384 -12.140 -20.018  0.00  0.00    +0.154 HD
BRANCH  10  14
ATOM     13 CL   UNL     1      33.108  -3.247 -25.286  0.00  0.00    -0.082 Cl
ATOM     14  C   UNL     1      32.135  -7.153 -23.250  0.00  0.00    +0.002 C 
ATOM     15  C   UNL     1      31.222  -6.582 -24.137  0.00  0.00    +0.001 C 
ATOM     16  C   UNL     1      33.350  -6.516 -22.993  0.00  0.00    +0.001 C 
ATOM     17  C   UNL     1      31.523  -5.374 -24.766  0.00  0.00    +0.011 C 
ATOM     18  C   UNL     1      33.651  -5.309 -23.623  0.00  0.00    +0.011 C 
ATOM     19  C   UNL     1      32.737  -4.737 -24.509  0.00  0.00    +0.058 C 
ENDBRANCH  10  14
ENDBRANCH   2   6
BRANCH   2  22
ATOM     20  F   UNL     1      34.330 -14.084 -21.136  0.00  0.00    -0.203 F 
ATOM     21  F   UNL     1      32.908 -14.455 -25.648  0.00  0.00    -0.204 F 
ATOM     22  C   UNL     1      33.612 -14.237 -23.390  0.00  0.00    +0.095 C 
ATOM     23  C   UNL     1      34.419 -16.190 -22.218  0.00  0.00    +0.092 C 
ATOM     24  C   UNL     1      34.123 -14.826 -22.234  0.00  0.00    +0.160 C 
ATOM     25  C   UNL     1      33.398 -15.011 -24.531  0.00  0.00    +0.145 C 
ATOM     26  C   UNL     1      34.204 -16.963 -23.359  0.00  0.00    +0.020 C 
ATOM     27  C   UNL     1      33.694 -16.374 -24.515  0.00  0.00    +0.031 C 
BRANCH  23  28
ATOM     28  N   UNL     1      34.942 -16.796 -21.036  0.00  0.00    -0.217 N 
ATOM     29  H   UNL     1      34.821 -16.373 -20.154  0.00  0.00    +0.173 HD
BRANCH  28  30
ATOM     30  S   UNL     1      35.787 -18.288 -21.193  0.00  0.00    +0.054 S 
ATOM     31  O   UNL     1      36.466 -18.297 -22.476  0.00  0.00    -0.154 OA
ATOM     32  O   UNL     1      36.507 -18.606 -19.977  0.00  0.00    -0.154 OA
BRANCH  30  33
ATOM     33  C   UNL     1      34.417 -19.413 -21.326  0.00  0.00    +0.172 C 
BRANCH  33  34
ATOM     34  C   UNL     1      34.243 -20.228 -20.055  0.00  0.00    +0.027 C 
ATOM     35  C   UNL     1      32.776 -20.487 -19.757  0.00  0.00    +0.002 C 
ENDBRANCH  33  34
ENDBRANCH  30  33
ENDBRANCH  28  30
ENDBRANCH  23  28
ENDBRANCH   2  22
TORSDOF 7
ENDMDL
MODEL 4
REMARK VINA RESULT:     -12.0      1.597      2.131
REMARK  Name = 42611257
REMARK  7 active torsions:
REMARK  status: ('A' for Active; 'I' for Inactive)
REMARK    1  A    between atoms: C_2  and  C_6
REMARK    2  A    between atoms: C_2  and  C_22
REMARK    3  A    between atoms: C_10  and  C_14
REMARK    4  A    between atoms: C_23  and  N_28
REMARK    5  A    between atoms: N_28  and  S_30
REMARK    6  A    between atoms: S_30  and  C_33
REMARK    7  A    between atoms: C_33  and  C_34
REMARK                            x       y       z     vdW  Elec       q    Type
REMARK                         _______ _______ _______ _____ _____    ______ ____
ROOT
ATOM      1  O   UNL     1      34.507 -13.922 -20.583  0.00  0.00    -0.286 OA
ATOM      2  C   UNL     1      33.785 -13.882 -21.602  0.00  0.00    +0.201 C 
ENDROOT
BRANCH   2   6
ATOM      3  N   UNL     1      34.085 -15.739 -24.681  0.00  0.00    -0.297 N 
ATOM      4  N   UNL     1      34.277 -18.080 -24.149  0.00  0.00    -0.229 NA
ATOM      5  C   UNL     1      34.042 -16.270 -22.512  0.00  0.00    +0.036 C 
ATOM      6  C   UNL     1      33.919 -14.861 -22.643  0.00  0.00    +0.056 C 
ATOM      7  C   UNL     1      34.144 -16.786 -23.801  0.00  0.00    +0.132 C 
ATOM      8  C   UNL     1      34.080 -17.182 -21.445  0.00  0.00    +0.004 C 
ATOM      9  C   UNL     1      33.948 -14.564 -23.988  0.00  0.00    +0.066 C 
ATOM     10  C   UNL     1      34.217 -18.535 -21.751  0.00  0.00    +0.019 C 
ATOM     11  C   UNL     1      34.308 -18.913 -23.084  0.00  0.00    +0.100 C 
ATOM     12  H   UNL     1      34.134 -15.817 -25.661  0.00  0.00    +0.154 HD
BRANCH  10  14
ATOM     13 CL   UNL     1      34.415 -22.617 -17.417  0.00  0.00    -0.082 Cl
ATOM     14  C   UNL     1      34.264 -19.524 -20.698  0.00  0.00    +0.002 C 
ATOM     15  C   UNL     1      33.081 -20.074 -20.203  0.00  0.00    +0.001 C 
ATOM     16  C   UNL     1      35.493 -19.930 -20.178  0.00  0.00    +0.001 C 
ATOM     17  C   UNL     1      33.128 -21.031 -19.189  0.00  0.00    +0.011 C 
ATOM     18  C   UNL     1      35.540 -20.886 -19.164  0.00  0.00    +0.011 C 
ATOM     19  C   UNL     1      34.357 -21.437 -18.669  0.00  0.00    +0.058 C 
ENDBRANCH  10  14
ENDBRANCH   2   6
BRANCH   2  22
ATOM     20  F   UNL     1      34.044 -11.695 -23.367  0.00  0.00    -0.203 F 
ATOM     21  F   UNL     1      31.487 -13.769 -19.950  0.00  0.00    -0.204 F 
ATOM     22  C   UNL     1      32.789 -12.756 -21.659  0.00  0.00    +0.095 C 
ATOM     23  C   UNL     1      32.054 -10.659 -22.607  0.00  0.00    +0.092 C 
ATOM     24  C   UNL     1      32.976 -11.704 -22.555  0.00  0.00    +0.160 C 
ATOM     25  C   UNL     1      31.678 -12.764 -20.815  0.00  0.00    +0.145 C 
ATOM     26  C   UNL     1      30.942 -10.667 -21.763  0.00  0.00    +0.020 C 
ATOM     27  C   UNL     1      30.755 -11.719 -20.868  0.00  0.00    +0.031 C 
BRANCH  23  28
ATOM     28  N   UNL     1      32.243  -9.581 -23.524  0.00  0.00    -0.217 N 
ATOM     29  H   UNL     1      32.434  -9.753 -24.475  0.00  0.00    +0.173 HD
BRANCH  28  30
ATOM     30  S   UNL     1      32.125  -7.972 -22.921  0.00  0.00    +0.054 S 
ATOM     31  O   UNL     1      31.064  -7.290 -23.640  0.00  0.00    -0.154 OA
ATOM     32  O   UNL     1      32.162  -7.957 -21.473  0.00  0.00    -0.154 OA
BRANCH  30  33
ATOM     33  C   UNL     1      33.662  -7.302 -23.514  0.00  0.00    +0.172 C 
BRANCH  33  34
ATOM     34  C   UNL     1      33.810  -5.837 -23.136  0.00  0.00    +0.027 C 
ATOM     35  C   UNL     1      33.974  -4.959 -24.365  0.00  0.00    +0.002 C 
ENDBRANCH  33  34
ENDBRANCH  30  33
ENDBRANCH  28  30
ENDBRANCH  23  28
ENDBRANCH   2  22
TORSDOF 7
ENDMDL
MODEL 5
REMARK VINA RESULT:     -11.1      6.731     10.702
REMARK  Name = 42611257
REMARK  7 active torsions:
REMARK  status: ('A' for Active; 'I' for Inactive)
REMARK    1  A    between atoms: C_2  and  C_6
REMARK    2  A    between atoms: C_2  and  C_22
REMARK    3  A    between atoms: C_10  and  C_14
REMARK    4  A    between atoms: C_23  and  N_28
REMARK    5  A    between atoms: N_28  and  S_30
REMARK    6  A    between atoms: S_30  and  C_33
REMARK    7  A    between atoms: C_33  and  C_34
REMARK                            x       y       z     vdW  Elec       q    Type
REMARK                         _______ _______ _______ _____ _____    ______ ____
ROOT
ATOM      1  O   UNL     1      33.104 -23.561 -19.342  0.00  0.00    -0.286 OA
ATOM      2  C   UNL     1      33.365 -22.611 -18.572  0.00  0.00    +0.201 C 
ENDROOT
BRANCH   2   6
ATOM      3  N   UNL     1      31.652 -22.390 -15.405  0.00  0.00    -0.297 N 
ATOM      4  N   UNL     1      33.140 -23.156 -13.673  0.00  0.00    -0.229 NA
ATOM      5  C   UNL     1      33.683 -23.049 -16.061  0.00  0.00    +0.036 C 
ATOM      6  C   UNL     1      32.944 -22.633 -17.201  0.00  0.00    +0.056 C 
ATOM      7  C   UNL     1      32.849 -22.885 -14.959  0.00  0.00    +0.132 C 
ATOM      8  C   UNL     1      34.974 -23.551 -15.827  0.00  0.00    +0.004 C 
ATOM      9  C   UNL     1      31.699 -22.233 -16.766  0.00  0.00    +0.066 C 
ATOM     10  C   UNL     1      35.327 -23.847 -14.512  0.00  0.00    +0.019 C 
ATOM     11  C   UNL     1      34.394 -23.636 -13.505  0.00  0.00    +0.100 C 
ATOM     12  H   UNL     1      30.877 -22.180 -14.835  0.00  0.00    +0.154 HD
BRANCH  10  14
ATOM     13 CL   UNL     1      40.737 -25.989 -13.238  0.00  0.00    -0.082 Cl
ATOM     14  C   UNL     1      36.639 -24.368 -14.205  0.00  0.00    +0.002 C 
ATOM     15  C   UNL     1      37.735 -24.007 -14.989  0.00  0.00    +0.001 C 
ATOM     16  C   UNL     1      36.810 -25.231 -13.122  0.00  0.00    +0.001 C 
ATOM     17  C   UNL     1      39.002 -24.508 -14.690  0.00  0.00    +0.011 C 
ATOM     18  C   UNL     1      38.077 -25.732 -12.823  0.00  0.00    +0.011 C 
ATOM     19  C   UNL     1      39.173 -25.371 -13.607  0.00  0.00    +0.058 C 
ENDBRANCH  10  14
ENDBRANCH   2   6
BRANCH   2  22
ATOM     20  F   UNL     1      32.249 -20.849 -20.474  0.00  0.00    -0.203 F 
ATOM     21  F   UNL     1      36.057 -22.037 -17.903  0.00  0.00    -0.204 F 
ATOM     22  C   UNL     1      34.134 -21.468 -19.176  0.00  0.00    +0.095 C 
ATOM     23  C   UNL     1      34.235 -19.574 -20.673  0.00  0.00    +0.092 C 
ATOM     24  C   UNL     1      33.523 -20.634 -20.112  0.00  0.00    +0.160 C 
ATOM     25  C   UNL     1      35.459 -21.242 -18.801  0.00  0.00    +0.145 C 
ATOM     26  C   UNL     1      35.560 -19.348 -20.297  0.00  0.00    +0.020 C 
ATOM     27  C   UNL     1      36.171 -20.182 -19.362  0.00  0.00    +0.031 C 
BRANCH  23  28
ATOM     28  N   UNL     1      33.612 -18.718 -21.631  0.00  0.00    -0.217 N 
ATOM     29  H   UNL     1      32.644 -18.773 -21.803  0.00  0.00    +0.173 HD
BRANCH  28  30
ATOM     30  S   UNL     1      34.599 -17.588 -22.476  0.00  0.00    +0.054 S 
ATOM     31  O   UNL     1      35.963 -18.087 -22.484  0.00  0.00    -0.154 OA
ATOM     32  O   UNL     1      33.964 -17.163 -23.706  0.00  0.00    -0.154 OA
BRANCH  30  33
ATOM     33  C   UNL     1      34.557 -16.222 -21.338  0.00  0.00    +0.172 C 
BRANCH  33  34
ATOM     34  C   UNL     1      34.137 -14.937 -22.032  0.00  0.00    +0.027 C 
ATOM     35  C   UNL     1      33.732 -13.870 -21.029  0.00  0.00    +0.002 C 
ENDBRANCH  33  34
ENDBRANCH  30  33
ENDBRANCH  28  30
ENDBRANCH  23  28
ENDBRANCH   2  22
TORSDOF 7
ENDMDL
MODEL 6
REMARK VINA RESULT:     -10.8      4.580     10.547
REMARK  Name = 42611257
REMARK  7 active torsions:
REMARK  status: ('A' for Active; 'I' for Inactive)
REMARK    1  A    between atoms: C_2  and  C_6
REMARK    2  A    between atoms: C_2  and  C_22
REMARK    3  A    between atoms: C_10  and  C_14
REMARK    4  A    between atoms: C_23  and  N_28
REMARK    5  A    between atoms: N_28  and  S_30
REMARK    6  A    between atoms: S_30  and  C_33
REMARK    7  A    between atoms: C_33  and  C_34
REMARK                            x       y       z     vdW  Elec       q    Type
REMARK                         _______ _______ _______ _____ _____    ______ ____
ROOT
ATOM      1  O   UNL     1      29.620 -10.778 -21.648  0.00  0.00    -0.286 OA
ATOM      2  C   UNL     1      30.816 -10.534 -21.379  0.00  0.00    +0.201 C 
ENDROOT
BRANCH   2   6
ATOM      3  N   UNL     1      31.515  -8.515 -18.473  0.00  0.00    -0.297 N 
ATOM      4  N   UNL     1      32.265  -6.347 -19.207  0.00  0.00    -0.229 NA
ATOM      5  C   UNL     1      31.624  -8.198 -20.681  0.00  0.00    +0.036 C 
ATOM      6  C   UNL     1      31.168  -9.519 -20.428  0.00  0.00    +0.056 C 
ATOM      7  C   UNL     1      31.831  -7.600 -19.441  0.00  0.00    +0.132 C 
ATOM      8  C   UNL     1      31.890  -7.427 -21.824  0.00  0.00    +0.004 C 
ATOM      9  C   UNL     1      31.110  -9.685 -19.061  0.00  0.00    +0.066 C 
ATOM     10  C   UNL     1      32.341  -6.122 -21.637  0.00  0.00    +0.019 C 
ATOM     11  C   UNL     1      32.505  -5.650 -20.341  0.00  0.00    +0.100 C 
ATOM     12  H   UNL     1      31.571  -8.356 -17.503  0.00  0.00    +0.154 HD
BRANCH  10  14
ATOM     13 CL   UNL     1      33.539  -2.641 -26.320  0.00  0.00    -0.082 Cl
ATOM     14  C   UNL     1      32.633  -5.277 -22.773  0.00  0.00    +0.002 C 
ATOM     15  C   UNL     1      33.779  -5.503 -23.535  0.00  0.00    +0.001 C 
ATOM     16  C   UNL     1      31.767  -4.235 -23.107  0.00  0.00    +0.001 C 
ATOM     17  C   UNL     1      34.059  -4.689 -24.632  0.00  0.00    +0.011 C 
ATOM     18  C   UNL     1      32.048  -3.420 -24.203  0.00  0.00    +0.011 C 
ATOM     19  C   UNL     1      33.194  -3.647 -24.966  0.00  0.00    +0.058 C 
ENDBRANCH  10  14
ENDBRANCH   2   6
BRANCH   2  22
ATOM     20  F   UNL     1      31.689 -13.054 -20.455  0.00  0.00    -0.203 F 
ATOM     21  F   UNL     1      32.031  -9.705 -23.800  0.00  0.00    -0.204 F 
ATOM     22  C   UNL     1      31.837 -11.363 -22.110  0.00  0.00    +0.095 C 
ATOM     23  C   UNL     1      33.173 -13.369 -22.275  0.00  0.00    +0.092 C 
ATOM     24  C   UNL     1      32.226 -12.601 -21.598  0.00  0.00    +0.160 C 
ATOM     25  C   UNL     1      32.397 -10.893 -23.299  0.00  0.00    +0.145 C 
ATOM     26  C   UNL     1      33.732 -12.900 -23.464  0.00  0.00    +0.020 C 
ATOM     27  C   UNL     1      33.343 -11.662 -23.976  0.00  0.00    +0.031 C 
BRANCH  23  28
ATOM     28  N   UNL     1      33.572 -14.637 -21.753  0.00  0.00    -0.217 N 
ATOM     29  H   UNL     1      33.488 -14.839 -20.793  0.00  0.00    +0.173 HD
BRANCH  28  30
ATOM     30  S   UNL     1      34.205 -15.804 -22.851  0.00  0.00    +0.054 S 
ATOM     31  O   UNL     1      33.118 -16.283 -23.687  0.00  0.00    -0.154 OA
ATOM     32  O   UNL     1      35.442 -15.341 -23.444  0.00  0.00    -0.154 OA
BRANCH  30  33
ATOM     33  C   UNL     1      34.600 -17.117 -21.718  0.00  0.00    +0.172 C 
BRANCH  33  34
ATOM     34  C   UNL     1      35.480 -18.168 -22.375  0.00  0.00    +0.027 C 
ATOM     35  C   UNL     1      36.857 -18.219 -21.736  0.00  0.00    +0.002 C 
ENDBRANCH  33  34
ENDBRANCH  30  33
ENDBRANCH  28  30
ENDBRANCH  23  28
ENDBRANCH   2  22
TORSDOF 7
ENDMDL
MODEL 7
REMARK VINA RESULT:     -10.8     10.008     12.831
REMARK  Name = 42611257
REMARK  7 active torsions:
REMARK  status: ('A' for Active; 'I' for Inactive)
REMARK    1  A    between atoms: C_2  and  C_6
REMARK    2  A    between atoms: C_2  and  C_22
REMARK    3  A    between atoms: C_10  and  C_14
REMARK    4  A    between atoms: C_23  and  N_28
REMARK    5  A    between atoms: N_28  and  S_30
REMARK    6  A    between atoms: S_30  and  C_33
REMARK    7  A    between atoms: C_33  and  C_34
REMARK                            x       y       z     vdW  Elec       q    Type
REMARK                         _______ _______ _______ _____ _____    ______ ____
ROOT
ATOM      1  O   UNL     1      34.223 -25.169 -15.660  0.00  0.00    -0.286 OA
ATOM      2  C   UNL     1      34.125 -23.970 -15.319  0.00  0.00    +0.201 C 
ENDROOT
BRANCH   2   6
ATOM      3  N   UNL     1      37.161 -22.138 -14.658  0.00  0.00    -0.297 N 
ATOM      4  N   UNL     1      37.533 -20.591 -16.465  0.00  0.00    -0.229 NA
ATOM      5  C   UNL     1      35.641 -22.141 -16.294  0.00  0.00    +0.036 C 
ATOM      6  C   UNL     1      35.270 -23.105 -15.320  0.00  0.00    +0.056 C 
ATOM      7  C   UNL     1      36.825 -21.557 -15.851  0.00  0.00    +0.132 C 
ATOM      8  C   UNL     1      35.112 -21.686 -17.513  0.00  0.00    +0.004 C 
ATOM      9  C   UNL     1      36.223 -23.081 -14.325  0.00  0.00    +0.066 C 
ATOM     10  C   UNL     1      35.807 -20.686 -18.190  0.00  0.00    +0.019 C 
ATOM     11  C   UNL     1      36.979 -20.191 -17.633  0.00  0.00    +0.100 C 
ATOM     12  H   UNL     1      37.956 -21.914 -14.121  0.00  0.00    +0.154 HD
BRANCH  10  14
ATOM     13 CL   UNL     1      33.784 -18.575 -23.380  0.00  0.00    -0.082 Cl
ATOM     14  C   UNL     1      35.316 -20.176 -19.450  0.00  0.00    +0.002 C 
ATOM     15  C   UNL     1      34.001 -20.427 -19.840  0.00  0.00    +0.001 C 
ATOM     16  C   UNL     1      36.158 -19.430 -20.275  0.00  0.00    +0.001 C 
ATOM     17  C   UNL     1      33.527 -19.932 -21.055  0.00  0.00    +0.011 C 
ATOM     18  C   UNL     1      35.685 -18.935 -21.490  0.00  0.00    +0.011 C 
ATOM     19  C   UNL     1      34.369 -19.186 -21.880  0.00  0.00    +0.058 C 
ENDBRANCH  10  14
ENDBRANCH   2   6
BRANCH   2  22
ATOM     20  F   UNL     1      32.115 -23.322 -17.191  0.00  0.00    -0.203 F 
ATOM     21  F   UNL     1      33.325 -23.680 -12.617  0.00  0.00    -0.204 F 
ATOM     22  C   UNL     1      32.750 -23.511 -14.915  0.00  0.00    +0.095 C 
ATOM     23  C   UNL     1      30.528 -22.780 -15.519  0.00  0.00    +0.092 C 
ATOM     24  C   UNL     1      31.802 -23.206 -15.892  0.00  0.00    +0.160 C 
ATOM     25  C   UNL     1      32.423 -23.390 -13.564  0.00  0.00    +0.145 C 
ATOM     26  C   UNL     1      30.201 -22.659 -14.167  0.00  0.00    +0.020 C 
ATOM     27  C   UNL     1      31.148 -22.965 -13.191  0.00  0.00    +0.031 C 
BRANCH  23  28
ATOM     28  N   UNL     1      29.555 -22.467 -16.516  0.00  0.00    -0.217 N 
ATOM     29  H   UNL     1      29.780 -21.882 -17.276  0.00  0.00    +0.173 HD
BRANCH  28  30
ATOM     30  S   UNL     1      27.979 -23.142 -16.355  0.00  0.00    +0.054 S 
ATOM     31  O   UNL     1      27.377 -23.221 -17.674  0.00  0.00    -0.154 OA
ATOM     32  O   UNL     1      27.997 -24.299 -15.483  0.00  0.00    -0.154 OA
BRANCH  30  33
ATOM     33  C   UNL     1      27.159 -21.821 -15.492  0.00  0.00    +0.172 C 
BRANCH  33  34
ATOM     34  C   UNL     1      25.723 -21.661 -15.960  0.00  0.00    +0.027 C 
ATOM     35  C   UNL     1      25.629 -20.739 -17.164  0.00  0.00    +0.002 C 
ENDBRANCH  33  34
ENDBRANCH  30  33
ENDBRANCH  28  30
ENDBRANCH  23  28
ENDBRANCH   2  22
TORSDOF 7
ENDMDL
MODEL 8
REMARK VINA RESULT:     -10.3      2.204      3.112
REMARK  Name = 42611257
REMARK  7 active torsions:
REMARK  status: ('A' for Active; 'I' for Inactive)
REMARK    1  A    between atoms: C_2  and  C_6
REMARK    2  A    between atoms: C_2  and  C_22
REMARK    3  A    between atoms: C_10  and  C_14
REMARK    4  A    between atoms: C_23  and  N_28
REMARK    5  A    between atoms: N_28  and  S_30
REMARK    6  A    between atoms: S_30  and  C_33
REMARK    7  A    between atoms: C_33  and  C_34
REMARK                            x       y       z     vdW  Elec       q    Type
REMARK                         _______ _______ _______ _____ _____    ______ ____
ROOT
ATOM      1  O   UNL     1      34.241 -14.516 -20.552  0.00  0.00    -0.286 OA
ATOM      2  C   UNL     1      33.812 -14.397 -21.720  0.00  0.00    +0.201 C 
ENDROOT
BRANCH   2   6
ATOM      3  N   UNL     1      34.115 -16.509 -24.628  0.00  0.00    -0.297 N 
ATOM      4  N   UNL     1      34.347 -18.792 -23.897  0.00  0.00    -0.229 NA
ATOM      5  C   UNL     1      34.098 -16.851 -22.421  0.00  0.00    +0.036 C 
ATOM      6  C   UNL     1      33.952 -15.461 -22.673  0.00  0.00    +0.056 C 
ATOM      7  C   UNL     1      34.197 -17.475 -23.661  0.00  0.00    +0.132 C 
ATOM      8  C   UNL     1      34.158 -17.666 -21.279  0.00  0.00    +0.004 C 
ATOM      9  C   UNL     1      33.966 -15.281 -24.039  0.00  0.00    +0.066 C 
ATOM     10  C   UNL     1      34.312 -19.038 -21.468  0.00  0.00    +0.019 C 
ATOM     11  C   UNL     1      34.399 -19.529 -22.764  0.00  0.00    +0.100 C 
ATOM     12  H   UNL     1      34.158 -16.672 -25.598  0.00  0.00    +0.154 HD
BRANCH  10  14
ATOM     13 CL   UNL     1      34.605 -22.724 -16.798  0.00  0.00    -0.082 Cl
ATOM     14  C   UNL     1      34.382 -19.931 -20.334  0.00  0.00    +0.002 C 
ATOM     15  C   UNL     1      33.217 -20.499 -19.819  0.00  0.00    +0.001 C 
ATOM     16  C   UNL     1      35.617 -20.226 -19.755  0.00  0.00    +0.001 C 
ATOM     17  C   UNL     1      33.285 -21.363 -18.726  0.00  0.00    +0.011 C 
ATOM     18  C   UNL     1      35.685 -21.089 -18.662  0.00  0.00    +0.011 C 
ATOM     19  C   UNL     1      34.520 -21.658 -18.147  0.00  0.00    +0.058 C 
ENDBRANCH  10  14
ENDBRANCH   2   6
BRANCH   2  22
ATOM     20  F   UNL     1      31.879 -13.194 -20.051  0.00  0.00    -0.203 F 
ATOM     21  F   UNL     1      34.400 -12.916 -24.062  0.00  0.00    -0.204 F 
ATOM     22  C   UNL     1      33.153 -13.084 -22.048  0.00  0.00    +0.095 C 
ATOM     23  C   UNL     1      31.592 -11.328 -21.482  0.00  0.00    +0.092 C 
ATOM     24  C   UNL     1      32.204 -12.545 -21.179  0.00  0.00    +0.160 C 
ATOM     25  C   UNL     1      33.490 -12.407 -23.220  0.00  0.00    +0.145 C 
ATOM     26  C   UNL     1      31.930 -10.651 -22.655  0.00  0.00    +0.020 C 
ATOM     27  C   UNL     1      32.878 -11.190 -23.523  0.00  0.00    +0.031 C 
BRANCH  23  28
ATOM     28  N   UNL     1      30.621 -10.773 -20.595  0.00  0.00    -0.217 N 
ATOM     29  H   UNL     1      29.706 -11.134 -20.557  0.00  0.00    +0.173 HD
BRANCH  28  30
ATOM     30  S   UNL     1      31.096  -9.457 -19.591  0.00  0.00    +0.054 S 
ATOM     31  O   UNL     1      29.994  -9.138 -18.701  0.00  0.00    -0.154 OA
ATOM     32  O   UNL     1      32.431  -9.660 -19.066  0.00  0.00    -0.154 OA
BRANCH  30  33
ATOM     33  C   UNL     1      31.177  -8.155 -20.799  0.00  0.00    +0.172 C 
BRANCH  33  34
ATOM     34  C   UNL     1      32.387  -7.264 -20.573  0.00  0.00    +0.027 C 
ATOM     35  C   UNL     1      32.004  -5.974 -19.867  0.00  0.00    +0.002 C 
ENDBRANCH  33  34
ENDBRANCH  30  33
ENDBRANCH  28  30
ENDBRANCH  23  28
ENDBRANCH   2  22
TORSDOF 7
ENDMDL
