MODEL 1
REMARK VINA RESULT:     -12.2      0.000      0.000
REMARK  Name = 11546620
REMARK  10 active torsions:
REMARK  status: ('A' for Active; 'I' for Inactive)
REMARK    1  A    between atoms: C_1  and  C_9
REMARK    2  A    between atoms: C_4  and  C_23
REMARK    3  A    between atoms: N_8  and  C_11
REMARK    4  A    between atoms: C_11  and  C_14
REMARK    5  A    between atoms: C_11  and  C_18
REMARK    6  A    between atoms: N_13  and  O_16
REMARK    7  A    between atoms: C_18  and  O_20
REMARK    8  A    between atoms: C_22  and  C_29
REMARK    9  A    between atoms: C_24  and  C_30
REMARK   10  A    between atoms: C_30  and  N_32
REMARK                            x       y       z     vdW  Elec       q    Type
REMARK                         _______ _______ _______ _____ _____    ______ ____
ROOT
ATOM      1  C   UNL     1      35.216 -23.063 -16.161  0.00  0.00    +0.053 C 
ATOM      2  C   UNL     1      36.276 -22.248 -16.503  0.00  0.00    +0.005 C 
ATOM      3  C   UNL     1      34.019 -23.039 -16.845  0.00  0.00    +0.005 C 
ATOM      4  C   UNL     1      34.929 -21.326 -18.284  0.00  0.00    +0.042 C 
ATOM      5  C   UNL     1      36.131 -21.369 -17.576  0.00  0.00    +0.008 C 
ATOM      6  C   UNL     1      33.873 -22.160 -17.918  0.00  0.00    +0.008 C 
ENDROOT
BRANCH   1   9
ATOM      7  O   UNL     1      34.969 -25.155 -15.132  0.00  0.00    -0.270 OA
ATOM      8  N   UNL     1      35.999 -23.488 -13.892  0.00  0.00    -0.293 N 
ATOM      9  C   UNL     1      35.372 -24.000 -15.019  0.00  0.00    +0.246 C 
ATOM     10  H   UNL     1      36.287 -22.546 -13.898  0.00  0.00    +0.150 HD
BRANCH   8  11
ATOM     11  C   UNL     1      36.245 -24.279 -12.713  0.00  0.00    +0.178 C 
BRANCH  11  14
ATOM     12  O   UNL     1      34.069 -23.504 -11.975  0.00  0.00    -0.271 OA
ATOM     13  N   UNL     1      35.657 -24.044 -10.390  0.00  0.00    -0.196 N 
ATOM     14  C   UNL     1      35.190 -23.909 -11.675  0.00  0.00    +0.265 C 
ATOM     15  H   UNL     1      36.564 -24.373 -10.195  0.00  0.00    +0.182 HD
BRANCH  13  16
ATOM     16  O   UNL     1      34.760 -23.687  -9.375  0.00  0.00    -0.295 OA
ATOM     17  H   UNL     1      34.017 -23.195  -9.757  0.00  0.00    +0.241 HD
ENDBRANCH  13  16
ENDBRANCH  11  14
BRANCH  11  18
ATOM     18  C   UNL     1      37.663 -24.094 -12.158  0.00  0.00    +0.137 C 
ATOM     19  C   UNL     1      38.731 -24.663 -13.085  0.00  0.00    +0.034 C 
BRANCH  18  20
ATOM     20  O   UNL     1      37.918 -22.704 -11.956  0.00  0.00    -0.382 OA
ATOM     21  H   UNL     1      37.167 -22.186 -12.283  0.00  0.00    +0.210 HD
ENDBRANCH  18  20
ENDBRANCH  11  18
ENDBRANCH   8  11
ENDBRANCH   1   9
BRANCH   4  23
ATOM     22  C   UNL     1      34.655 -19.663 -20.306  0.00  0.00    -0.060 C 
ATOM     23  C   UNL     1      34.780 -20.423 -19.382  0.00  0.00    -0.060 C 
BRANCH  22  29
ATOM     24  C   UNL     1      34.217 -17.002 -23.550  0.00  0.00    -0.043 C 
ATOM     25  C   UNL     1      33.682 -18.288 -23.626  0.00  0.00    -0.006 C 
ATOM     26  C   UNL     1      34.897 -16.596 -22.401  0.00  0.00    -0.006 C 
ATOM     27  C   UNL     1      33.825 -19.167 -22.553  0.00  0.00    +0.008 C 
ATOM     28  C   UNL     1      35.041 -17.476 -21.329  0.00  0.00    +0.008 C 
ATOM     29  C   UNL     1      34.506 -18.760 -21.406  0.00  0.00    +0.042 C 
BRANCH  24  30
ATOM     30  C   UNL     1      34.061 -16.062 -24.697  0.00  0.00    -0.050 C 
BRANCH  30  32
ATOM     31  O   UNL     1      33.011 -12.055 -24.014  0.00  0.00    -0.358 OA
ATOM     32  N   UNL     1      33.296 -14.869 -24.337  0.00  0.00    +0.393 N 
ATOM     33  C   UNL     1      33.938 -14.155 -23.225  0.00  0.00    -0.044 C 
ATOM     34  C   UNL     1      33.149 -13.974 -25.493  0.00  0.00    -0.044 C 
ATOM     35  C   UNL     1      33.129 -12.909 -22.874  0.00  0.00    +0.119 C 
ATOM     36  C   UNL     1      32.359 -12.733 -25.089  0.00  0.00    +0.119 C 
ATOM     37  H   UNL     1      32.368 -15.171 -24.038  0.00  0.00    -0.079 HD
ENDBRANCH  30  32
ENDBRANCH  24  30
ENDBRANCH  22  29
ENDBRANCH   4  23
TORSDOF 10
ENDMDL
MODEL 2
REMARK VINA RESULT:     -11.5      1.126      2.363
REMARK  Name = 11546620
REMARK  10 active torsions:
REMARK  status: ('A' for Active; 'I' for Inactive)
REMARK    1  A    between atoms: C_1  and  C_9
REMARK    2  A    between atoms: C_4  and  C_23
REMARK    3  A    between atoms: N_8  and  C_11
REMARK    4  A    between atoms: C_11  and  C_14
REMARK    5  A    between atoms: C_11  and  C_18
REMARK    6  A    between atoms: N_13  and  O_16
REMARK    7  A    between atoms: C_18  and  O_20
REMARK    8  A    between atoms: C_22  and  C_29
REMARK    9  A    between atoms: C_24  and  C_30
REMARK   10  A    between atoms: C_30  and  N_32
REMARK                            x       y       z     vdW  Elec       q    Type
REMARK                         _______ _______ _______ _____ _____    ______ ____
ROOT
ATOM      1  C   UNL     1      35.298 -22.912 -15.988  0.00  0.00    +0.053 C 
ATOM      2  C   UNL     1      34.093 -22.910 -16.659  0.00  0.00    +0.005 C 
ATOM      3  C   UNL     1      36.352 -22.107 -16.365  0.00  0.00    +0.005 C 
ATOM      4  C   UNL     1      34.986 -21.242 -18.160  0.00  0.00    +0.042 C 
ATOM      5  C   UNL     1      33.935 -22.066 -17.758  0.00  0.00    +0.008 C 
ATOM      6  C   UNL     1      36.195 -21.262 -17.464  0.00  0.00    +0.008 C 
ENDROOT
BRANCH   1   9
ATOM      7  O   UNL     1      34.970 -24.934 -14.847  0.00  0.00    -0.270 OA
ATOM      8  N   UNL     1      36.208 -23.300 -13.761  0.00  0.00    -0.293 N 
ATOM      9  C   UNL     1      35.465 -23.810 -14.816  0.00  0.00    +0.246 C 
ATOM     10  H   UNL     1      36.564 -22.385 -13.830  0.00  0.00    +0.150 HD
BRANCH   8  11
ATOM     11  C   UNL     1      36.479 -24.058 -12.565  0.00  0.00    +0.178 C 
BRANCH  11  14
ATOM     12  O   UNL     1      36.752 -26.466 -12.463  0.00  0.00    -0.271 OA
ATOM     13  N   UNL     1      38.008 -25.264 -13.981  0.00  0.00    -0.196 N 
ATOM     14  C   UNL     1      37.069 -25.400 -12.988  0.00  0.00    +0.265 C 
ATOM     15  H   UNL     1      38.232 -24.389 -14.374  0.00  0.00    +0.182 HD
BRANCH  13  16
ATOM     16  O   UNL     1      38.628 -26.448 -14.401  0.00  0.00    -0.295 OA
ATOM     17  H   UNL     1      39.000 -26.909 -13.633  0.00  0.00    +0.241 HD
ENDBRANCH  13  16
ENDBRANCH  11  14
BRANCH  11  18
ATOM     18  C   UNL     1      35.235 -24.248 -11.688  0.00  0.00    +0.137 C 
ATOM     19  C   UNL     1      35.510 -23.965 -10.216  0.00  0.00    +0.034 C 
BRANCH  18  20
ATOM     20  O   UNL     1      34.196 -23.380 -12.140  0.00  0.00    -0.382 OA
ATOM     21  H   UNL     1      34.578 -22.530 -12.408  0.00  0.00    +0.210 HD
ENDBRANCH  18  20
ENDBRANCH  11  18
ENDBRANCH   8  11
ENDBRANCH   1   9
BRANCH   4  23
ATOM     22  C   UNL     1      34.690 -19.652 -20.237  0.00  0.00    -0.060 C 
ATOM     23  C   UNL     1      34.826 -20.378 -19.288  0.00  0.00    -0.060 C 
BRANCH  22  29
ATOM     24  C   UNL     1      34.216 -17.101 -23.564  0.00  0.00    -0.043 C 
ATOM     25  C   UNL     1      34.927 -16.664 -22.446  0.00  0.00    -0.006 C 
ATOM     26  C   UNL     1      33.663 -18.382 -23.582  0.00  0.00    -0.006 C 
ATOM     27  C   UNL     1      35.085 -17.508 -21.347  0.00  0.00    +0.008 C 
ATOM     28  C   UNL     1      33.820 -19.225 -22.482  0.00  0.00    +0.008 C 
ATOM     29  C   UNL     1      34.530 -18.787 -21.365  0.00  0.00    +0.042 C 
BRANCH  24  30
ATOM     30  C   UNL     1      34.050 -16.200 -24.740  0.00  0.00    -0.050 C 
BRANCH  30  32
ATOM     31  O   UNL     1      33.053 -12.166 -24.148  0.00  0.00    -0.358 OA
ATOM     32  N   UNL     1      33.299 -14.989 -24.411  0.00  0.00    +0.393 N 
ATOM     33  C   UNL     1      33.941 -14.262 -23.308  0.00  0.00    -0.044 C 
ATOM     34  C   UNL     1      33.177 -14.115 -25.586  0.00  0.00    -0.044 C 
ATOM     35  C   UNL     1      33.147 -12.998 -22.990  0.00  0.00    +0.119 C 
ATOM     36  C   UNL     1      32.402 -12.855 -25.216  0.00  0.00    +0.119 C 
ATOM     37  H   UNL     1      32.365 -15.272 -24.117  0.00  0.00    -0.079 HD
ENDBRANCH  30  32
ENDBRANCH  24  30
ENDBRANCH  22  29
ENDBRANCH   4  23
TORSDOF 10
ENDMDL
MODEL 3
REMARK VINA RESULT:     -11.2      1.752      2.729
REMARK  Name = 11546620
REMARK  10 active torsions:
REMARK  status: ('A' for Active; 'I' for Inactive)
REMARK    1  A    between atoms: C_1  and  C_9
REMARK    2  A    between atoms: C_4  and  C_23
REMARK    3  A    between atoms: N_8  and  C_11
REMARK    4  A    between atoms: C_11  and  C_14
REMARK    5  A    between atoms: C_11  and  C_18
REMARK    6  A    between atoms: N_13  and  O_16
REMARK    7  A    between atoms: C_18  and  O_20
REMARK    8  A    between atoms: C_22  and  C_29
REMARK    9  A    between atoms: C_24  and  C_30
REMARK   10  A    between atoms: C_30  and  N_32
REMARK                            x       y       z     vdW  Elec       q    Type
REMARK                         _______ _______ _______ _____ _____    ______ ____
ROOT
ATOM      1  C   UNL     1      36.045 -22.477 -16.138  0.00  0.00    +0.053 C 
ATOM      2  C   UNL     1      36.980 -21.549 -16.546  0.00  0.00    +0.005 C 
ATOM      3  C   UNL     1      34.840 -22.642 -16.788  0.00  0.00    +0.005 C 
ATOM      4  C   UNL     1      35.486 -20.898 -18.329  0.00  0.00    +0.042 C 
ATOM      5  C   UNL     1      36.698 -20.750 -17.654  0.00  0.00    +0.008 C 
ATOM      6  C   UNL     1      34.556 -21.844 -17.896  0.00  0.00    +0.008 C 
ENDROOT
BRANCH   1   9
ATOM      7  O   UNL     1      35.519 -23.418 -14.055  0.00  0.00    -0.270 OA
ATOM      8  N   UNL     1      37.564 -23.995 -14.985  0.00  0.00    -0.293 N 
ATOM      9  C   UNL     1      36.347 -23.329 -14.959  0.00  0.00    +0.246 C 
ATOM     10  H   UNL     1      38.161 -23.858 -15.756  0.00  0.00    +0.150 HD
BRANCH   8  11
ATOM     11  C   UNL     1      37.990 -24.876 -13.928  0.00  0.00    +0.178 C 
BRANCH  11  14
ATOM     12  O   UNL     1      40.243 -24.039 -14.246  0.00  0.00    -0.271 OA
ATOM     13  N   UNL     1      39.938 -26.285 -13.808  0.00  0.00    -0.196 N 
ATOM     14  C   UNL     1      39.508 -24.995 -14.003  0.00  0.00    +0.265 C 
ATOM     15  H   UNL     1      39.314 -27.021 -13.616  0.00  0.00    +0.182 HD
BRANCH  13  16
ATOM     16  O   UNL     1      41.322 -26.487 -13.900  0.00  0.00    -0.295 OA
ATOM     17  H   UNL     1      41.576 -26.573 -14.832  0.00  0.00    +0.241 HD
ENDBRANCH  13  16
ENDBRANCH  11  14
BRANCH  11  18
ATOM     18  C   UNL     1      37.318 -26.254 -13.998  0.00  0.00    +0.137 C 
ATOM     19  C   UNL     1      36.468 -26.552 -12.768  0.00  0.00    +0.034 C 
BRANCH  18  20
ATOM     20  O   UNL     1      36.493 -26.324 -15.160  0.00  0.00    -0.382 OA
ATOM     21  H   UNL     1      36.928 -25.865 -15.894  0.00  0.00    +0.210 HD
ENDBRANCH  18  20
ENDBRANCH  11  18
ENDBRANCH   8  11
ENDBRANCH   1   9
BRANCH   4  23
ATOM     22  C   UNL     1      34.950 -19.387 -20.417  0.00  0.00    -0.060 C 
ATOM     23  C   UNL     1      35.195 -20.077 -19.463  0.00  0.00    -0.060 C 
BRANCH  22  29
ATOM     24  C   UNL     1      34.092 -16.967 -23.764  0.00  0.00    -0.043 C 
ATOM     25  C   UNL     1      33.663 -18.294 -23.735  0.00  0.00    -0.006 C 
ATOM     26  C   UNL     1      34.804 -16.440 -22.686  0.00  0.00    -0.006 C 
ATOM     27  C   UNL     1      33.946 -19.094 -22.628  0.00  0.00    +0.008 C 
ATOM     28  C   UNL     1      35.087 -17.241 -21.579  0.00  0.00    +0.008 C 
ATOM     29  C   UNL     1      34.658 -18.566 -21.551  0.00  0.00    +0.042 C 
BRANCH  24  30
ATOM     30  C   UNL     1      33.787 -16.111 -24.946  0.00  0.00    -0.050 C 
BRANCH  30  32
ATOM     31  O   UNL     1      32.990 -12.075 -24.114  0.00  0.00    -0.358 OA
ATOM     32  N   UNL     1      33.087 -14.882 -24.577  0.00  0.00    +0.393 N 
ATOM     33  C   UNL     1      33.689 -14.280 -23.380  0.00  0.00    -0.044 C 
ATOM     34  C   UNL     1      33.103 -13.919 -25.687  0.00  0.00    -0.044 C 
ATOM     35  C   UNL     1      32.950 -12.993 -23.020  0.00  0.00    +0.119 C 
ATOM     36  C   UNL     1      32.379 -12.641 -25.274  0.00  0.00    +0.119 C 
ATOM     37  H   UNL     1      32.118 -15.124 -24.369  0.00  0.00    -0.079 HD
ENDBRANCH  30  32
ENDBRANCH  24  30
ENDBRANCH  22  29
ENDBRANCH   4  23
TORSDOF 10
ENDMDL
MODEL 4
REMARK VINA RESULT:     -10.9      5.497     15.329
REMARK  Name = 11546620
REMARK  10 active torsions:
REMARK  status: ('A' for Active; 'I' for Inactive)
REMARK    1  A    between atoms: C_1  and  C_9
REMARK    2  A    between atoms: C_4  and  C_23
REMARK    3  A    between atoms: N_8  and  C_11
REMARK    4  A    between atoms: C_11  and  C_14
REMARK    5  A    between atoms: C_11  and  C_18
REMARK    6  A    between atoms: N_13  and  O_16
REMARK    7  A    between atoms: C_18  and  O_20
REMARK    8  A    between atoms: C_22  and  C_29
REMARK    9  A    between atoms: C_24  and  C_30
REMARK   10  A    between atoms: C_30  and  N_32
REMARK                            x       y       z     vdW  Elec       q    Type
REMARK                         _______ _______ _______ _____ _____    ______ ____
ROOT
ATOM      1  C   UNL     1      31.301  -8.524 -22.958  0.00  0.00    +0.053 C 
ATOM      2  C   UNL     1      30.634  -9.406 -22.135  0.00  0.00    +0.005 C 
ATOM      3  C   UNL     1      32.464  -8.866 -23.615  0.00  0.00    +0.005 C 
ATOM      4  C   UNL     1      32.330 -11.059 -22.611  0.00  0.00    +0.042 C 
ATOM      5  C   UNL     1      31.154 -10.688 -21.958  0.00  0.00    +0.008 C 
ATOM      6  C   UNL     1      32.985 -10.148 -23.439  0.00  0.00    +0.008 C 
ENDROOT
BRANCH   1   9
ATOM      7  O   UNL     1      29.527  -7.009 -23.200  0.00  0.00    -0.270 OA
ATOM      8  N   UNL     1      31.674  -6.131 -23.229  0.00  0.00    -0.293 N 
ATOM      9  C   UNL     1      30.745  -7.159 -23.148  0.00  0.00    +0.246 C 
ATOM     10  H   UNL     1      32.631  -6.352 -23.177  0.00  0.00    +0.150 HD
BRANCH   8  11
ATOM     11  C   UNL     1      31.291  -4.751 -23.388  0.00  0.00    +0.178 C 
BRANCH  11  14
ATOM     12  O   UNL     1      32.222  -2.958 -24.730  0.00  0.00    -0.271 OA
ATOM     13  N   UNL     1      33.522  -4.813 -24.291  0.00  0.00    -0.196 N 
ATOM     14  C   UNL     1      32.380  -4.055 -24.199  0.00  0.00    +0.265 C 
ATOM     15  H   UNL     1      33.607  -5.689 -23.849  0.00  0.00    +0.182 HD
BRANCH  13  16
ATOM     16  O   UNL     1      34.561  -4.262 -25.053  0.00  0.00    -0.295 OA
ATOM     17  H   UNL     1      35.120  -3.708 -24.486  0.00  0.00    +0.241 HD
ENDBRANCH  13  16
ENDBRANCH  11  14
BRANCH  11  18
ATOM     18  C   UNL     1      31.055  -4.042 -22.049  0.00  0.00    +0.137 C 
ATOM     19  C   UNL     1      31.737  -4.751 -20.884  0.00  0.00    +0.034 C 
BRANCH  18  20
ATOM     20  O   UNL     1      31.542  -2.703 -22.125  0.00  0.00    -0.382 OA
ATOM     21  H   UNL     1      31.716  -2.474 -23.050  0.00  0.00    +0.210 HD
ENDBRANCH  18  20
ENDBRANCH  11  18
ENDBRANCH   8  11
ENDBRANCH   1   9
BRANCH   4  23
ATOM     22  C   UNL     1      33.314 -13.476 -22.274  0.00  0.00    -0.060 C 
ATOM     23  C   UNL     1      32.864 -12.372 -22.427  0.00  0.00    -0.060 C 
BRANCH  22  29
ATOM     24  C   UNL     1      34.892 -17.352 -21.735  0.00  0.00    -0.043 C 
ATOM     25  C   UNL     1      34.694 -16.853 -23.022  0.00  0.00    -0.006 C 
ATOM     26  C   UNL     1      34.569 -16.569 -20.626  0.00  0.00    -0.006 C 
ATOM     27  C   UNL     1      34.174 -15.571 -23.200  0.00  0.00    +0.008 C 
ATOM     28  C   UNL     1      34.048 -15.288 -20.805  0.00  0.00    +0.008 C 
ATOM     29  C   UNL     1      33.850 -14.790 -22.091  0.00  0.00    +0.042 C 
BRANCH  24  30
ATOM     30  C   UNL     1      35.452 -18.721 -21.545  0.00  0.00    -0.050 C 
BRANCH  30  32
ATOM     31  O   UNL     1      33.687 -21.689 -19.158  0.00  0.00    -0.358 OA
ATOM     32  N   UNL     1      34.857 -19.411 -20.401  0.00  0.00    +0.393 N 
ATOM     33  C   UNL     1      33.481 -19.830 -20.705  0.00  0.00    -0.044 C 
ATOM     34  C   UNL     1      35.665 -20.577 -20.016  0.00  0.00    -0.044 C 
ATOM     35  C   UNL     1      32.885 -20.557 -19.502  0.00  0.00    +0.119 C 
ATOM     36  C   UNL     1      35.018 -21.286 -18.831  0.00  0.00    +0.119 C 
ATOM     37  H   UNL     1      34.834 -18.757 -19.619  0.00  0.00    -0.079 HD
ENDBRANCH  30  32
ENDBRANCH  24  30
ENDBRANCH  22  29
ENDBRANCH   4  23
TORSDOF 10
ENDMDL
MODEL 5
REMARK VINA RESULT:     -10.7      1.291      2.199
REMARK  Name = 11546620
REMARK  10 active torsions:
REMARK  status: ('A' for Active; 'I' for Inactive)
REMARK    1  A    between atoms: C_1  and  C_9
REMARK    2  A    between atoms: C_4  and  C_23
REMARK    3  A    between atoms: N_8  and  C_11
REMARK    4  A    between atoms: C_11  and  C_14
REMARK    5  A    between atoms: C_11  and  C_18
REMARK    6  A    between atoms: N_13  and  O_16
REMARK    7  A    between atoms: C_18  and  O_20
REMARK    8  A    between atoms: C_22  and  C_29
REMARK    9  A    between atoms: C_24  and  C_30
REMARK   10  A    between atoms: C_30  and  N_32
REMARK                            x       y       z     vdW  Elec       q    Type
REMARK                         _______ _______ _______ _____ _____    ______ ____
ROOT
ATOM      1  C   UNL     1      36.632 -22.380 -15.743  0.00  0.00    +0.053 C 
ATOM      2  C   UNL     1      37.416 -21.303 -16.101  0.00  0.00    +0.005 C 
ATOM      3  C   UNL     1      35.508 -22.741 -16.456  0.00  0.00    +0.005 C 
ATOM      4  C   UNL     1      35.926 -20.896 -17.959  0.00  0.00    +0.042 C 
ATOM      5  C   UNL     1      37.059 -20.552 -17.221  0.00  0.00    +0.008 C 
ATOM      6  C   UNL     1      35.150 -21.991 -17.577  0.00  0.00    +0.008 C 
ENDROOT
BRANCH   1   9
ATOM      7  O   UNL     1      38.179 -23.546 -14.422  0.00  0.00    -0.270 OA
ATOM      8  N   UNL     1      35.997 -23.438 -13.641  0.00  0.00    -0.293 N 
ATOM      9  C   UNL     1      37.013 -23.181 -14.551  0.00  0.00    +0.246 C 
ATOM     10  H   UNL     1      35.092 -23.102 -13.835  0.00  0.00    +0.150 HD
BRANCH   8  11
ATOM     11  C   UNL     1      36.215 -24.180 -12.426  0.00  0.00    +0.178 C 
BRANCH  11  14
ATOM     12  O   UNL     1      36.847 -26.489 -12.042  0.00  0.00    -0.271 OA
ATOM     13  N   UNL     1      35.912 -25.911 -14.071  0.00  0.00    -0.196 N 
ATOM     14  C   UNL     1      36.357 -25.652 -12.797  0.00  0.00    +0.265 C 
ATOM     15  H   UNL     1      35.525 -25.210 -14.643  0.00  0.00    +0.182 HD
BRANCH  13  16
ATOM     16  O   UNL     1      36.044 -27.237 -14.505  0.00  0.00    -0.295 OA
ATOM     17  H   UNL     1      35.719 -27.837 -13.817  0.00  0.00    +0.241 HD
ENDBRANCH  13  16
ENDBRANCH  11  14
BRANCH  11  18
ATOM     18  C   UNL     1      35.098 -23.970 -11.395  0.00  0.00    +0.137 C 
ATOM     19  C   UNL     1      35.596 -23.287 -10.126  0.00  0.00    +0.034 C 
BRANCH  18  20
ATOM     20  O   UNL     1      34.059 -23.179 -11.970  0.00  0.00    -0.382 OA
ATOM     21  H   UNL     1      33.639 -23.672 -12.691  0.00  0.00    +0.210 HD
ENDBRANCH  18  20
ENDBRANCH  11  18
ENDBRANCH   8  11
ENDBRANCH   1   9
BRANCH   4  23
ATOM     22  C   UNL     1      35.250 -19.477 -20.070  0.00  0.00    -0.060 C 
ATOM     23  C   UNL     1      35.559 -20.125 -19.105  0.00  0.00    -0.060 C 
BRANCH  22  29
ATOM     24  C   UNL     1      34.167 -17.204 -23.455  0.00  0.00    -0.043 C 
ATOM     25  C   UNL     1      33.736 -18.525 -23.335  0.00  0.00    -0.006 C 
ATOM     26  C   UNL     1      34.954 -16.634 -22.454  0.00  0.00    -0.006 C 
ATOM     27  C   UNL     1      34.093 -19.276 -22.216  0.00  0.00    +0.008 C 
ATOM     28  C   UNL     1      35.312 -17.386 -21.335  0.00  0.00    +0.008 C 
ATOM     29  C   UNL     1      34.882 -18.706 -21.217  0.00  0.00    +0.042 C 
BRANCH  24  30
ATOM     30  C   UNL     1      33.782 -16.400 -24.650  0.00  0.00    -0.050 C 
BRANCH  30  32
ATOM     31  O   UNL     1      33.347 -12.268 -24.054  0.00  0.00    -0.358 OA
ATOM     32  N   UNL     1      33.215 -15.102 -24.289  0.00  0.00    +0.393 N 
ATOM     33  C   UNL     1      34.022 -14.454 -23.245  0.00  0.00    -0.044 C 
ATOM     34  C   UNL     1      33.119 -14.228 -25.466  0.00  0.00    -0.044 C 
ATOM     35  C   UNL     1      33.419 -13.097 -22.892  0.00  0.00    +0.119 C 
ATOM     36  C   UNL     1      32.538 -12.877 -25.062  0.00  0.00    +0.119 C 
ATOM     37  H   UNL     1      32.276 -15.261 -23.923  0.00  0.00    -0.079 HD
ENDBRANCH  30  32
ENDBRANCH  24  30
ENDBRANCH  22  29
ENDBRANCH   4  23
TORSDOF 10
ENDMDL
MODEL 6
REMARK VINA RESULT:     -10.7      5.341      9.224
REMARK  Name = 11546620
REMARK  10 active torsions:
REMARK  status: ('A' for Active; 'I' for Inactive)
REMARK    1  A    between atoms: C_1  and  C_9
REMARK    2  A    between atoms: C_4  and  C_23
REMARK    3  A    between atoms: N_8  and  C_11
REMARK    4  A    between atoms: C_11  and  C_14
REMARK    5  A    between atoms: C_11  and  C_18
REMARK    6  A    between atoms: N_13  and  O_16
REMARK    7  A    between atoms: C_18  and  O_20
REMARK    8  A    between atoms: C_22  and  C_29
REMARK    9  A    between atoms: C_24  and  C_30
REMARK   10  A    between atoms: C_30  and  N_32
REMARK                            x       y       z     vdW  Elec       q    Type
REMARK                         _______ _______ _______ _____ _____    ______ ____
ROOT
ATOM      1  C   UNL     1      34.419 -16.556 -22.188  0.00  0.00    +0.053 C 
ATOM      2  C   UNL     1      34.338 -16.097 -23.487  0.00  0.00    +0.005 C 
ATOM      3  C   UNL     1      34.237 -15.725 -21.102  0.00  0.00    +0.005 C 
ATOM      4  C   UNL     1      33.877 -13.887 -22.628  0.00  0.00    +0.042 C 
ATOM      5  C   UNL     1      34.065 -14.748 -23.710  0.00  0.00    +0.008 C 
ATOM      6  C   UNL     1      33.963 -14.376 -21.324  0.00  0.00    +0.008 C 
ENDROOT
BRANCH   1   9
ATOM      7  O   UNL     1      35.503 -18.574 -22.686  0.00  0.00    -0.270 OA
ATOM      8  N   UNL     1      34.056 -18.575 -20.873  0.00  0.00    -0.293 N 
ATOM      9  C   UNL     1      34.708 -17.994 -21.951  0.00  0.00    +0.246 C 
ATOM     10  H   UNL     1      33.435 -18.025 -20.342  0.00  0.00    +0.150 HD
BRANCH   8  11
ATOM     11  C   UNL     1      34.251 -19.953 -20.500  0.00  0.00    +0.178 C 
BRANCH  11  14
ATOM     12  O   UNL     1      31.842 -20.234 -20.489  0.00  0.00    -0.271 OA
ATOM     13  N   UNL     1      33.088 -21.225 -18.818  0.00  0.00    -0.196 N 
ATOM     14  C   UNL     1      32.925 -20.483 -19.963  0.00  0.00    +0.265 C 
ATOM     15  H   UNL     1      33.976 -21.400 -18.430  0.00  0.00    +0.182 HD
BRANCH  13  16
ATOM     16  O   UNL     1      31.912 -21.717 -18.238  0.00  0.00    -0.295 OA
ATOM     17  H   UNL     1      31.765 -22.631 -18.528  0.00  0.00    +0.241 HD
ENDBRANCH  13  16
ENDBRANCH  11  14
BRANCH  11  18
ATOM     18  C   UNL     1      35.380 -20.138 -19.478  0.00  0.00    +0.137 C 
ATOM     19  C   UNL     1      35.990 -21.534 -19.528  0.00  0.00    +0.034 C 
BRANCH  18  20
ATOM     20  O   UNL     1      36.406 -19.175 -19.721  0.00  0.00    -0.382 OA
ATOM     21  H   UNL     1      36.669 -19.211 -20.653  0.00  0.00    +0.210 HD
ENDBRANCH  18  20
ENDBRANCH  11  18
ENDBRANCH   8  11
ENDBRANCH   1   9
BRANCH   4  23
ATOM     22  C   UNL     1      33.367 -11.340 -23.048  0.00  0.00    -0.060 C 
ATOM     23  C   UNL     1      33.600 -12.504 -22.856  0.00  0.00    -0.060 C 
BRANCH  22  29
ATOM     24  C   UNL     1      32.551  -7.255 -23.719  0.00  0.00    -0.043 C 
ATOM     25  C   UNL     1      33.866  -7.720 -23.762  0.00  0.00    -0.006 C 
ATOM     26  C   UNL     1      31.507  -8.141 -23.454  0.00  0.00    -0.006 C 
ATOM     27  C   UNL     1      34.135  -9.071 -23.542  0.00  0.00    +0.008 C 
ATOM     28  C   UNL     1      31.777  -9.491 -23.233  0.00  0.00    +0.008 C 
ATOM     29  C   UNL     1      33.090  -9.955 -23.276  0.00  0.00    +0.042 C 
BRANCH  24  30
ATOM     30  C   UNL     1      32.264  -5.812 -23.958  0.00  0.00    -0.050 C 
BRANCH  30  32
ATOM     31  O   UNL     1      30.348  -4.880 -20.342  0.00  0.00    -0.358 OA
ATOM     32  N   UNL     1      31.869  -5.113 -22.736  0.00  0.00    +0.393 N 
ATOM     33  C   UNL     1      30.438  -4.782 -22.765  0.00  0.00    -0.044 C 
ATOM     34  C   UNL     1      32.175  -5.924 -21.549  0.00  0.00    -0.044 C 
ATOM     35  C   UNL     1      30.047  -4.064 -21.476  0.00  0.00    +0.119 C 
ATOM     36  C   UNL     1      31.743  -5.181 -20.289  0.00  0.00    +0.119 C 
ATOM     37  H   UNL     1      32.404  -4.246 -22.685  0.00  0.00    -0.079 HD
ENDBRANCH  30  32
ENDBRANCH  24  30
ENDBRANCH  22  29
ENDBRANCH   4  23
TORSDOF 10
ENDMDL
MODEL 7
REMARK VINA RESULT:     -10.7      5.565     15.267
REMARK  Name = 11546620
REMARK  10 active torsions:
REMARK  status: ('A' for Active; 'I' for Inactive)
REMARK    1  A    between atoms: C_1  and  C_9
REMARK    2  A    between atoms: C_4  and  C_23
REMARK    3  A    between atoms: N_8  and  C_11
REMARK    4  A    between atoms: C_11  and  C_14
REMARK    5  A    between atoms: C_11  and  C_18
REMARK    6  A    between atoms: N_13  and  O_16
REMARK    7  A    between atoms: C_18  and  O_20
REMARK    8  A    between atoms: C_22  and  C_29
REMARK    9  A    between atoms: C_24  and  C_30
REMARK   10  A    between atoms: C_30  and  N_32
REMARK                            x       y       z     vdW  Elec       q    Type
REMARK                         _______ _______ _______ _____ _____    ______ ____
ROOT
ATOM      1  C   UNL     1      32.101  -8.160 -23.100  0.00  0.00    +0.053 C 
ATOM      2  C   UNL     1      33.357  -8.546 -23.519  0.00  0.00    +0.005 C 
ATOM      3  C   UNL     1      31.209  -9.047 -22.535  0.00  0.00    +0.005 C 
ATOM      4  C   UNL     1      32.853 -10.796 -22.799  0.00  0.00    +0.042 C 
ATOM      5  C   UNL     1      33.738  -9.880 -23.368  0.00  0.00    +0.008 C 
ATOM      6  C   UNL     1      31.588 -10.380 -22.383  0.00  0.00    +0.008 C 
ENDROOT
BRANCH   1   9
ATOM      7  O   UNL     1      30.522  -6.474 -23.503  0.00  0.00    -0.270 OA
ATOM      8  N   UNL     1      32.703  -5.798 -23.092  0.00  0.00    -0.293 N 
ATOM      9  C   UNL     1      31.696  -6.739 -23.260  0.00  0.00    +0.246 C 
ATOM     10  H   UNL     1      33.616  -6.111 -22.899  0.00  0.00    +0.150 HD
BRANCH   8  11
ATOM     11  C   UNL     1      32.463  -4.381 -23.191  0.00  0.00    +0.178 C 
BRANCH  11  14
ATOM     12  O   UNL     1      30.214  -3.510 -22.938  0.00  0.00    -0.271 OA
ATOM     13  N   UNL     1      31.258  -4.453 -21.108  0.00  0.00    -0.196 N 
ATOM     14  C   UNL     1      31.181  -4.070 -22.426  0.00  0.00    +0.265 C 
ATOM     15  H   UNL     1      32.053  -4.900 -20.738  0.00  0.00    +0.182 HD
BRANCH  13  16
ATOM     16  O   UNL     1      30.132  -4.167 -20.324  0.00  0.00    -0.295 OA
ATOM     17  H   UNL     1      30.264  -4.517 -19.429  0.00  0.00    +0.241 HD
ENDBRANCH  13  16
ENDBRANCH  11  14
BRANCH  11  18
ATOM     18  C   UNL     1      32.378  -3.893 -24.643  0.00  0.00    +0.137 C 
ATOM     19  C   UNL     1      33.649  -4.184 -25.432  0.00  0.00    +0.034 C 
BRANCH  18  20
ATOM     20  O   UNL     1      31.274  -4.523 -25.293  0.00  0.00    -0.382 OA
ATOM     21  H   UNL     1      30.445  -4.139 -24.969  0.00  0.00    +0.210 HD
ENDBRANCH  18  20
ENDBRANCH  11  18
ENDBRANCH   8  11
ENDBRANCH   1   9
BRANCH   4  23
ATOM     22  C   UNL     1      33.569 -13.313 -22.519  0.00  0.00    -0.060 C 
ATOM     23  C   UNL     1      33.242 -12.163 -22.647  0.00  0.00    -0.060 C 
BRANCH  22  29
ATOM     24  C   UNL     1      34.716 -17.349 -22.072  0.00  0.00    -0.043 C 
ATOM     25  C   UNL     1      34.506 -16.821 -23.346  0.00  0.00    -0.006 C 
ATOM     26  C   UNL     1      34.548 -16.542 -20.946  0.00  0.00    -0.006 C 
ATOM     27  C   UNL     1      34.128 -15.487 -23.494  0.00  0.00    +0.008 C 
ATOM     28  C   UNL     1      34.169 -15.208 -21.094  0.00  0.00    +0.008 C 
ATOM     29  C   UNL     1      33.959 -14.682 -22.367  0.00  0.00    +0.042 C 
BRANCH  24  30
ATOM     30  C   UNL     1      35.123 -18.775 -21.915  0.00  0.00    -0.050 C 
BRANCH  30  32
ATOM     31  O   UNL     1      33.653 -21.548 -19.128  0.00  0.00    -0.358 OA
ATOM     32  N   UNL     1      34.621 -19.363 -20.674  0.00  0.00    +0.393 N 
ATOM     33  C   UNL     1      33.265 -19.897 -20.864  0.00  0.00    -0.044 C 
ATOM     34  C   UNL     1      35.518 -20.425 -20.199  0.00  0.00    -0.044 C 
ATOM     35  C   UNL     1      32.766 -20.515 -19.560  0.00  0.00    +0.119 C 
ATOM     36  C   UNL     1      34.967 -21.031 -18.912  0.00  0.00    +0.119 C 
ATOM     37  H   UNL     1      34.586 -18.625 -19.970  0.00  0.00    -0.079 HD
ENDBRANCH  30  32
ENDBRANCH  24  30
ENDBRANCH  22  29
ENDBRANCH   4  23
TORSDOF 10
ENDMDL
MODEL 8
REMARK VINA RESULT:     -10.6      6.048     10.512
REMARK  Name = 11546620
REMARK  10 active torsions:
REMARK  status: ('A' for Active; 'I' for Inactive)
REMARK    1  A    between atoms: C_1  and  C_9
REMARK    2  A    between atoms: C_4  and  C_23
REMARK    3  A    between atoms: N_8  and  C_11
REMARK    4  A    between atoms: C_11  and  C_14
REMARK    5  A    between atoms: C_11  and  C_18
REMARK    6  A    between atoms: N_13  and  O_16
REMARK    7  A    between atoms: C_18  and  O_20
REMARK    8  A    between atoms: C_22  and  C_29
REMARK    9  A    between atoms: C_24  and  C_30
REMARK   10  A    between atoms: C_30  and  N_32
REMARK                            x       y       z     vdW  Elec       q    Type
REMARK                         _______ _______ _______ _____ _____    ______ ____
ROOT
ATOM      1  C   UNL     1      33.843 -15.426 -22.749  0.00  0.00    +0.053 C 
ATOM      2  C   UNL     1      33.886 -14.796 -21.524  0.00  0.00    +0.005 C 
ATOM      3  C   UNL     1      33.374 -14.799 -23.884  0.00  0.00    +0.005 C 
ATOM      4  C   UNL     1      32.958 -12.822 -22.560  0.00  0.00    +0.042 C 
ATOM      5  C   UNL     1      33.438 -13.479 -21.427  0.00  0.00    +0.008 C 
ATOM      6  C   UNL     1      32.926 -13.481 -23.789  0.00  0.00    +0.008 C 
ENDROOT
BRANCH   1   9
ATOM      7  O   UNL     1      34.540 -17.309 -23.962  0.00  0.00    -0.270 OA
ATOM      8  N   UNL     1      34.515 -17.496 -21.650  0.00  0.00    -0.293 N 
ATOM      9  C   UNL     1      34.323 -16.829 -22.852  0.00  0.00    +0.246 C 
ATOM     10  H   UNL     1      34.312 -17.025 -20.810  0.00  0.00    +0.150 HD
BRANCH   8  11
ATOM     11  C   UNL     1      34.999 -18.851 -21.584  0.00  0.00    +0.178 C 
BRANCH  11  14
ATOM     12  O   UNL     1      34.583 -20.148 -19.577  0.00  0.00    -0.271 OA
ATOM     13  N   UNL     1      32.810 -19.641 -20.966  0.00  0.00    -0.196 N 
ATOM     14  C   UNL     1      34.130 -19.608 -20.584  0.00  0.00    +0.265 C 
ATOM     15  H   UNL     1      32.490 -19.194 -21.782  0.00  0.00    +0.182 HD
BRANCH  13  16
ATOM     16  O   UNL     1      31.948 -20.352 -20.120  0.00  0.00    -0.295 OA
ATOM     17  H   UNL     1      32.081 -20.061 -19.204  0.00  0.00    +0.241 HD
ENDBRANCH  13  16
ENDBRANCH  11  14
BRANCH  11  18
ATOM     18  C   UNL     1      36.483 -18.934 -21.206  0.00  0.00    +0.137 C 
ATOM     19  C   UNL     1      37.368 -18.104 -22.130  0.00  0.00    +0.034 C 
BRANCH  18  20
ATOM     20  O   UNL     1      36.660 -18.480 -19.864  0.00  0.00    -0.382 OA
ATOM     21  H   UNL     1      37.523 -18.775 -19.534  0.00  0.00    +0.210 HD
ENDBRANCH  18  20
ENDBRANCH  11  18
ENDBRANCH   8  11
ENDBRANCH   1   9
BRANCH   4  23
ATOM     22  C   UNL     1      32.109 -10.337 -22.377  0.00  0.00    -0.060 C 
ATOM     23  C   UNL     1      32.496 -11.472 -22.461  0.00  0.00    -0.060 C 
BRANCH  22  29
ATOM     24  C   UNL     1      30.749  -6.353 -22.089  0.00  0.00    -0.043 C 
ATOM     25  C   UNL     1      30.492  -7.096 -23.241  0.00  0.00    -0.006 C 
ATOM     26  C   UNL     1      31.454  -6.929 -21.031  0.00  0.00    -0.006 C 
ATOM     27  C   UNL     1      30.941  -8.413 -23.336  0.00  0.00    +0.008 C 
ATOM     28  C   UNL     1      31.903  -8.246 -21.127  0.00  0.00    +0.008 C 
ATOM     29  C   UNL     1      31.647  -8.986 -22.279  0.00  0.00    +0.042 C 
BRANCH  24  30
ATOM     30  C   UNL     1      30.266  -4.946 -21.986  0.00  0.00    -0.050 C 
BRANCH  30  32
ATOM     31  O   UNL     1      32.116  -2.041 -24.386  0.00  0.00    -0.358 OA
ATOM     32  N   UNL     1      30.649  -4.142 -23.145  0.00  0.00    +0.393 N 
ATOM     33  C   UNL     1      30.293  -2.731 -22.940  0.00  0.00    -0.044 C 
ATOM     34  C   UNL     1      32.089  -4.264 -23.413  0.00  0.00    -0.044 C 
ATOM     35  C   UNL     1      30.712  -1.909 -24.156  0.00  0.00    +0.119 C 
ATOM     36  C   UNL     1      32.466  -3.406 -24.617  0.00  0.00    +0.119 C 
ATOM     37  H   UNL     1      30.136  -4.494 -23.953  0.00  0.00    -0.079 HD
ENDBRANCH  30  32
ENDBRANCH  24  30
ENDBRANCH  22  29
ENDBRANCH   4  23
TORSDOF 10
ENDMDL
MODEL 9
REMARK VINA RESULT:     -10.6      5.485      9.425
REMARK  Name = 11546620
REMARK  10 active torsions:
REMARK  status: ('A' for Active; 'I' for Inactive)
REMARK    1  A    between atoms: C_1  and  C_9
REMARK    2  A    between atoms: C_4  and  C_23
REMARK    3  A    between atoms: N_8  and  C_11
REMARK    4  A    between atoms: C_11  and  C_14
REMARK    5  A    between atoms: C_11  and  C_18
REMARK    6  A    between atoms: N_13  and  O_16
REMARK    7  A    between atoms: C_18  and  O_20
REMARK    8  A    between atoms: C_22  and  C_29
REMARK    9  A    between atoms: C_24  and  C_30
REMARK   10  A    between atoms: C_30  and  N_32
REMARK                            x       y       z     vdW  Elec       q    Type
REMARK                         _______ _______ _______ _____ _____    ______ ____
ROOT
ATOM      1  C   UNL     1      34.386 -16.299 -22.116  0.00  0.00    +0.053 C 
ATOM      2  C   UNL     1      34.257 -15.817 -23.402  0.00  0.00    +0.005 C 
ATOM      3  C   UNL     1      34.182 -15.504 -21.008  0.00  0.00    +0.005 C 
ATOM      4  C   UNL     1      33.695 -13.655 -22.484  0.00  0.00    +0.042 C 
ATOM      5  C   UNL     1      33.907 -14.480 -23.588  0.00  0.00    +0.008 C 
ATOM      6  C   UNL     1      33.832 -14.166 -21.193  0.00  0.00    +0.008 C 
ENDROOT
BRANCH   1   9
ATOM      7  O   UNL     1      35.641 -18.216 -22.613  0.00  0.00    -0.270 OA
ATOM      8  N   UNL     1      34.070 -18.397 -20.917  0.00  0.00    -0.293 N 
ATOM      9  C   UNL     1      34.757 -17.724 -21.917  0.00  0.00    +0.246 C 
ATOM     10  H   UNL     1      33.375 -17.915 -20.412  0.00  0.00    +0.150 HD
BRANCH   8  11
ATOM     11  C   UNL     1      34.332 -19.775 -20.588  0.00  0.00    +0.178 C 
BRANCH  11  14
ATOM     12  O   UNL     1      31.935 -20.145 -20.568  0.00  0.00    -0.271 OA
ATOM     13  N   UNL     1      33.239 -21.190 -18.976  0.00  0.00    -0.196 N 
ATOM     14  C   UNL     1      33.034 -20.386 -20.070  0.00  0.00    +0.265 C 
ATOM     15  H   UNL     1      34.137 -21.356 -18.609  0.00  0.00    +0.182 HD
BRANCH  13  16
ATOM     16  O   UNL     1      32.089 -21.761 -18.414  0.00  0.00    -0.295 OA
ATOM     17  H   UNL     1      31.301 -21.341 -18.793  0.00  0.00    +0.241 HD
ENDBRANCH  13  16
ENDBRANCH  11  14
BRANCH  11  18
ATOM     18  C   UNL     1      35.468 -19.937 -19.570  0.00  0.00    +0.137 C 
ATOM     19  C   UNL     1      36.057 -21.343 -19.570  0.00  0.00    +0.034 C 
BRANCH  18  20
ATOM     20  O   UNL     1      36.506 -19.001 -19.861  0.00  0.00    -0.382 OA
ATOM     21  H   UNL     1      37.103 -19.376 -20.526  0.00  0.00    +0.210 HD
ENDBRANCH  18  20
ENDBRANCH  11  18
ENDBRANCH   8  11
ENDBRANCH   1   9
BRANCH   4  23
ATOM     22  C   UNL     1      33.040 -11.130 -22.836  0.00  0.00    -0.060 C 
ATOM     23  C   UNL     1      33.340 -12.283 -22.675  0.00  0.00    -0.060 C 
BRANCH  22  29
ATOM     24  C   UNL     1      31.990  -7.082 -23.397  0.00  0.00    -0.043 C 
ATOM     25  C   UNL     1      33.323  -7.478 -23.506  0.00  0.00    -0.006 C 
ATOM     26  C   UNL     1      31.004  -8.025 -23.103  0.00  0.00    -0.006 C 
ATOM     27  C   UNL     1      33.670  -8.816 -23.322  0.00  0.00    +0.008 C 
ATOM     28  C   UNL     1      31.352  -9.363 -22.918  0.00  0.00    +0.008 C 
ATOM     29  C   UNL     1      32.684  -9.757 -23.027  0.00  0.00    +0.042 C 
BRANCH  24  30
ATOM     30  C   UNL     1      31.620  -5.652 -23.597  0.00  0.00    -0.050 C 
BRANCH  30  32
ATOM     31  O   UNL     1      32.690  -3.371 -26.954  0.00  0.00    -0.358 OA
ATOM     32  N   UNL     1      32.413  -5.013 -24.646  0.00  0.00    +0.393 N 
ATOM     33  C   UNL     1      31.990  -5.478 -25.974  0.00  0.00    -0.044 C 
ATOM     34  C   UNL     1      32.304  -3.550 -24.566  0.00  0.00    -0.044 C 
ATOM     35  C   UNL     1      32.823  -4.790 -27.052  0.00  0.00    +0.119 C 
ATOM     36  C   UNL     1      33.129  -2.908 -25.676  0.00  0.00    +0.119 C 
ATOM     37  H   UNL     1      33.388  -5.276 -24.503  0.00  0.00    -0.079 HD
ENDBRANCH  30  32
ENDBRANCH  24  30
ENDBRANCH  22  29
ENDBRANCH   4  23
TORSDOF 10
ENDMDL
