MODEL 1
REMARK VINA RESULT:     -12.4      0.000      0.000
REMARK  Name = 5326870
REMARK  3 active torsions:
REMARK  status: ('A' for Active; 'I' for Inactive)
REMARK    1  A    between atoms: N_2  and  C_7
REMARK    2  A    between atoms: C_3  and  C_19
REMARK    3  A    between atoms: C_16  and  N_23
REMARK                            x       y       z     vdW  Elec       q    Type
REMARK                         _______ _______ _______ _____ _____    ______ ____
ROOT
ATOM      1  O   UNL     1      34.228 -14.982 -20.362  0.00  0.00    -0.270 OA
ATOM      2  N   UNL     1      34.284 -16.582 -22.084  0.00  0.00    -0.280 N 
ATOM      3  C   UNL     1      34.064 -15.313 -21.533  0.00  0.00    +0.250 C 
ATOM      4  H   UNL     1      34.100 -16.671 -23.048  0.00  0.00    +0.155 HD
ENDROOT
BRANCH   2   7
ATOM      5  N   UNL     1      35.816 -21.205 -19.495  0.00  0.00    -0.312 N 
ATOM      6  C   UNL     1      34.261 -19.814 -20.287  0.00  0.00    +0.016 C 
ATOM      7  C   UNL     1      34.733 -17.735 -21.437  0.00  0.00    +0.051 C 
ATOM      8  C   UNL     1      35.638 -20.013 -20.160  0.00  0.00    +0.048 C 
ATOM      9  C   UNL     1      33.801 -18.653 -20.939  0.00  0.00    +0.016 C 
ATOM     10  C   UNL     1      36.101 -17.958 -21.295  0.00  0.00    +0.016 C 
ATOM     11  C   UNL     1      36.581 -19.103 -20.653  0.00  0.00    +0.016 C 
ATOM     12  C   UNL     1      33.621 -20.929 -19.677  0.00  0.00    +0.017 C 
ATOM     13  C   UNL     1      34.603 -21.765 -19.198  0.00  0.00    +0.062 C 
ATOM     14  H   UNL     1      36.689 -21.597 -19.265  0.00  0.00    +0.152 HD
ENDBRANCH   2   7
BRANCH   3  19
ATOM     15  F   UNL     1      33.075 -13.851 -26.033  0.00  0.00    -0.204 F 
ATOM     16  C   UNL     1      32.612 -12.127 -22.863  0.00  0.00    +0.050 C 
ATOM     17  C   UNL     1      33.092 -13.089 -21.975  0.00  0.00    +0.019 C 
ATOM     18  C   UNL     1      32.606 -12.383 -24.234  0.00  0.00    +0.044 C 
ATOM     19  C   UNL     1      33.555 -14.287 -22.478  0.00  0.00    +0.057 C 
ATOM     20  C   UNL     1      33.080 -13.604 -24.717  0.00  0.00    +0.142 C 
ATOM     21  C   UNL     1      33.560 -14.566 -23.829  0.00  0.00    +0.034 C 
BRANCH  16  23
ATOM     22  O   UNL     1      30.982  -8.463 -21.599  0.00  0.00    -0.350 OA
ATOM     23  N   UNL     1      32.137 -10.904 -22.380  0.00  0.00    -0.303 N 
ATOM     24  C   UNL     1      32.192  -9.737 -23.270  0.00  0.00    +0.123 C 
ATOM     25  C   UNL     1      31.058 -10.879 -21.386  0.00  0.00    +0.123 C 
ATOM     26  C   UNL     1      32.131  -8.457 -22.446  0.00  0.00    +0.164 C 
ATOM     27  C   UNL     1      31.056  -9.537 -20.661  0.00  0.00    +0.164 C 
ENDBRANCH  16  23
ENDBRANCH   3  19
TORSDOF 3
ENDMDL
MODEL 2
REMARK VINA RESULT:     -11.9      5.104     10.501
REMARK  Name = 5326870
REMARK  3 active torsions:
REMARK  status: ('A' for Active; 'I' for Inactive)
REMARK    1  A    between atoms: N_2  and  C_7
REMARK    2  A    between atoms: C_3  and  C_19
REMARK    3  A    between atoms: C_16  and  N_23
REMARK                            x       y       z     vdW  Elec       q    Type
REMARK                         _______ _______ _______ _____ _____    ______ ____
ROOT
ATOM      1  O   UNL     1      33.186 -21.213 -20.056  0.00  0.00    -0.270 OA
ATOM      2  N   UNL     1      34.932 -19.639 -20.030  0.00  0.00    -0.280 N 
ATOM      3  C   UNL     1      34.193 -20.727 -19.551  0.00  0.00    +0.250 C 
ATOM      4  H   UNL     1      35.717 -19.381 -19.495  0.00  0.00    +0.155 HD
ENDROOT
BRANCH   2   7
ATOM      5  N   UNL     1      34.026 -16.410 -24.410  0.00  0.00    -0.312 N 
ATOM      6  C   UNL     1      34.524 -16.713 -22.256  0.00  0.00    +0.016 C 
ATOM      7  C   UNL     1      34.692 -18.873 -21.174  0.00  0.00    +0.051 C 
ATOM      8  C   UNL     1      34.215 -17.375 -23.447  0.00  0.00    +0.048 C 
ATOM      9  C   UNL     1      34.768 -17.478 -21.098  0.00  0.00    +0.016 C 
ATOM     10  C   UNL     1      34.381 -19.508 -22.374  0.00  0.00    +0.016 C 
ATOM     11  C   UNL     1      34.136 -18.770 -23.536  0.00  0.00    +0.016 C 
ATOM     12  C   UNL     1      34.515 -15.319 -22.540  0.00  0.00    +0.017 C 
ATOM     13  C   UNL     1      34.205 -15.165 -23.872  0.00  0.00    +0.062 C 
ATOM     14  H   UNL     1      33.796 -16.590 -25.349  0.00  0.00    +0.152 HD
ENDBRANCH   2   7
BRANCH   3  19
ATOM     15  F   UNL     1      37.800 -21.751 -16.498  0.00  0.00    -0.204 F 
ATOM     16  C   UNL     1      34.244 -22.482 -16.241  0.00  0.00    +0.050 C 
ATOM     17  C   UNL     1      33.782 -21.926 -17.433  0.00  0.00    +0.019 C 
ATOM     18  C   UNL     1      35.602 -22.424 -15.925  0.00  0.00    +0.044 C 
ATOM     19  C   UNL     1      34.686 -21.323 -18.282  0.00  0.00    +0.057 C 
ATOM     20  C   UNL     1      36.496 -21.807 -16.801  0.00  0.00    +0.142 C 
ATOM     21  C   UNL     1      36.033 -21.251 -17.992  0.00  0.00    +0.034 C 
BRANCH  16  23
ATOM     22  O   UNL     1      31.531 -24.548 -13.781  0.00  0.00    -0.350 OA
ATOM     23  N   UNL     1      33.349 -23.100 -15.363  0.00  0.00    -0.303 N 
ATOM     24  C   UNL     1      31.956 -23.270 -15.798  0.00  0.00    +0.123 C 
ATOM     25  C   UNL     1      33.832 -24.108 -14.413  0.00  0.00    +0.123 C 
ATOM     26  C   UNL     1      31.058 -23.466 -14.583  0.00  0.00    +0.164 C 
ATOM     27  C   UNL     1      32.833 -24.261 -13.271  0.00  0.00    +0.164 C 
ENDBRANCH  16  23
ENDBRANCH   3  19
TORSDOF 3
ENDMDL
MODEL 3
REMARK VINA RESULT:     -11.7      2.757      4.918
REMARK  Name = 5326870
REMARK  3 active torsions:
REMARK  status: ('A' for Active; 'I' for Inactive)
REMARK    1  A    between atoms: N_2  and  C_7
REMARK    2  A    between atoms: C_3  and  C_19
REMARK    3  A    between atoms: C_16  and  N_23
REMARK                            x       y       z     vdW  Elec       q    Type
REMARK                         _______ _______ _______ _____ _____    ______ ____
ROOT
ATOM      1  O   UNL     1      36.400 -18.840 -20.078  0.00  0.00    -0.270 OA
ATOM      2  N   UNL     1      34.537 -20.268 -19.954  0.00  0.00    -0.280 N 
ATOM      3  C   UNL     1      35.334 -19.263 -20.515  0.00  0.00    +0.250 C 
ATOM      4  H   UNL     1      33.708 -20.484 -20.440  0.00  0.00    +0.155 HD
ENDROOT
BRANCH   2   7
ATOM      5  N   UNL     1      35.701 -23.079 -15.353  0.00  0.00    -0.312 N 
ATOM      6  C   UNL     1      36.263 -21.697 -17.011  0.00  0.00    +0.016 C 
ATOM      7  C   UNL     1      34.772 -21.003 -18.789  0.00  0.00    +0.051 C 
ATOM      8  C   UNL     1      35.219 -22.461 -16.484  0.00  0.00    +0.048 C 
ATOM      9  C   UNL     1      36.034 -20.953 -18.186  0.00  0.00    +0.016 C 
ATOM     10  C   UNL     1      33.748 -21.774 -18.243  0.00  0.00    +0.016 C 
ATOM     11  C   UNL     1      33.953 -22.519 -17.077  0.00  0.00    +0.016 C 
ATOM     12  C   UNL     1      37.386 -21.878 -16.155  0.00  0.00    +0.017 C 
ATOM     13  C   UNL     1      37.008 -22.734 -15.146  0.00  0.00    +0.062 C 
ATOM     14  H   UNL     1      35.180 -23.683 -14.776  0.00  0.00    +0.152 HD
ENDBRANCH   2   7
BRANCH   3  19
ATOM     15  F   UNL     1      33.814 -19.624 -25.090  0.00  0.00    -0.204 F 
ATOM     16  C   UNL     1      34.054 -16.704 -22.933  0.00  0.00    +0.050 C 
ATOM     17  C   UNL     1      34.558 -17.285 -21.770  0.00  0.00    +0.019 C 
ATOM     18  C   UNL     1      33.802 -17.493 -24.055  0.00  0.00    +0.044 C 
ATOM     19  C   UNL     1      34.799 -18.643 -21.754  0.00  0.00    +0.057 C 
ATOM     20  C   UNL     1      34.055 -18.866 -24.013  0.00  0.00    +0.142 C 
ATOM     21  C   UNL     1      34.559 -19.446 -22.850  0.00  0.00    +0.034 C 
BRANCH  16  23
ATOM     22  O   UNL     1      33.565 -12.530 -23.056  0.00  0.00    -0.350 OA
ATOM     23  N   UNL     1      33.800 -15.330 -22.975  0.00  0.00    -0.303 N 
ATOM     24  C   UNL     1      34.180 -14.518 -21.811  0.00  0.00    +0.123 C 
ATOM     25  C   UNL     1      33.814 -14.622 -24.260  0.00  0.00    +0.123 C 
ATOM     26  C   UNL     1      33.393 -13.213 -21.815  0.00  0.00    +0.164 C 
ATOM     27  C   UNL     1      33.047 -13.310 -24.134  0.00  0.00    +0.164 C 
ENDBRANCH  16  23
ENDBRANCH   3  19
TORSDOF 3
ENDMDL
MODEL 4
REMARK VINA RESULT:     -11.3      5.031     10.526
REMARK  Name = 5326870
REMARK  3 active torsions:
REMARK  status: ('A' for Active; 'I' for Inactive)
REMARK    1  A    between atoms: N_2  and  C_7
REMARK    2  A    between atoms: C_3  and  C_19
REMARK    3  A    between atoms: C_16  and  N_23
REMARK                            x       y       z     vdW  Elec       q    Type
REMARK                         _______ _______ _______ _____ _____    ______ ____
ROOT
ATOM      1  O   UNL     1      36.051 -20.717 -20.152  0.00  0.00    -0.270 OA
ATOM      2  N   UNL     1      33.957 -19.649 -20.211  0.00  0.00    -0.280 N 
ATOM      3  C   UNL     1      34.921 -20.533 -19.711  0.00  0.00    +0.250 C 
ATOM      4  H   UNL     1      33.098 -19.630 -19.731  0.00  0.00    +0.155 HD
ENDROOT
BRANCH   2   7
ATOM      5  N   UNL     1      34.403 -16.067 -24.381  0.00  0.00    -0.312 N 
ATOM      6  C   UNL     1      34.318 -16.556 -22.206  0.00  0.00    +0.016 C 
ATOM      7  C   UNL     1      34.065 -18.790 -21.308  0.00  0.00    +0.051 C 
ATOM      8  C   UNL     1      34.278 -17.107 -23.489  0.00  0.00    +0.048 C 
ATOM      9  C   UNL     1      34.211 -17.415 -21.095  0.00  0.00    +0.016 C 
ATOM     10  C   UNL     1      34.027 -19.314 -22.598  0.00  0.00    +0.016 C 
ATOM     11  C   UNL     1      34.134 -18.480 -23.716  0.00  0.00    +0.016 C 
ATOM     12  C   UNL     1      34.473 -15.150 -22.361  0.00  0.00    +0.017 C 
ATOM     13  C   UNL     1      34.521 -14.880 -23.710  0.00  0.00    +0.062 C 
ATOM     14  H   UNL     1      34.406 -16.162 -25.361  0.00  0.00    +0.152 HD
ENDBRANCH   2   7
BRANCH   3  19
ATOM     15  F   UNL     1      31.500 -22.872 -17.221  0.00  0.00    -0.204 F 
ATOM     16  C   UNL     1      35.038 -22.441 -16.489  0.00  0.00    +0.050 C 
ATOM     17  C   UNL     1      35.436 -21.681 -17.588  0.00  0.00    +0.019 C 
ATOM     18  C   UNL     1      33.708 -22.844 -16.364  0.00  0.00    +0.044 C 
ATOM     19  C   UNL     1      34.497 -21.341 -18.538  0.00  0.00    +0.057 C 
ATOM     20  C   UNL     1      32.777 -22.486 -17.340  0.00  0.00    +0.142 C 
ATOM     21  C   UNL     1      33.175 -21.727 -18.439  0.00  0.00    +0.034 C 
BRANCH  16  23
ATOM     22  O   UNL     1      37.890 -23.250 -13.507  0.00  0.00    -0.350 OA
ATOM     23  N   UNL     1      35.971 -22.800 -15.511  0.00  0.00    -0.303 N 
ATOM     24  C   UNL     1      37.385 -22.483 -15.751  0.00  0.00    +0.123 C 
ATOM     25  C   UNL     1      35.573 -22.841 -14.099  0.00  0.00    +0.123 C 
ATOM     26  C   UNL     1      38.266 -23.368 -14.878  0.00  0.00    +0.164 C 
ATOM     27  C   UNL     1      36.551 -23.707 -13.313  0.00  0.00    +0.164 C 
ENDBRANCH  16  23
ENDBRANCH   3  19
TORSDOF 3
ENDMDL
MODEL 5
REMARK VINA RESULT:     -11.3      3.017      4.756
REMARK  Name = 5326870
REMARK  3 active torsions:
REMARK  status: ('A' for Active; 'I' for Inactive)
REMARK    1  A    between atoms: N_2  and  C_7
REMARK    2  A    between atoms: C_3  and  C_19
REMARK    3  A    between atoms: C_16  and  N_23
REMARK                            x       y       z     vdW  Elec       q    Type
REMARK                         _______ _______ _______ _____ _____    ______ ____
ROOT
ATOM      1  O   UNL     1      31.251 -12.621 -22.833  0.00  0.00    -0.270 OA
ATOM      2  N   UNL     1      33.139 -12.931 -21.466  0.00  0.00    -0.280 N 
ATOM      3  C   UNL     1      31.999 -12.262 -21.929  0.00  0.00    +0.250 C 
ATOM      4  H   UNL     1      33.625 -12.496 -20.728  0.00  0.00    +0.155 HD
ENDROOT
BRANCH   2   7
ATOM      5  N   UNL     1      35.267 -17.773 -23.030  0.00  0.00    -0.312 N 
ATOM      6  C   UNL     1      34.604 -16.327 -21.466  0.00  0.00    +0.016 C 
ATOM      7  C   UNL     1      33.672 -14.138 -21.923  0.00  0.00    +0.051 C 
ATOM      8  C   UNL     1      34.723 -16.523 -22.844  0.00  0.00    +0.048 C 
ATOM      9  C   UNL     1      34.067 -15.111 -20.998  0.00  0.00    +0.016 C 
ATOM     10  C   UNL     1      33.802 -14.360 -23.292  0.00  0.00    +0.016 C 
ATOM     11  C   UNL     1      34.331 -15.559 -23.780  0.00  0.00    +0.016 C 
ATOM     12  C   UNL     1      35.095 -17.504 -20.834  0.00  0.00    +0.017 C 
ATOM     13  C   UNL     1      35.496 -18.373 -21.822  0.00  0.00    +0.062 C 
ATOM     14  H   UNL     1      35.464 -18.177 -23.906  0.00  0.00    +0.152 HD
ENDBRANCH   2   7
BRANCH   3  19
ATOM     15  F   UNL     1      31.336  -9.662 -17.907  0.00  0.00    -0.204 F 
ATOM     16  C   UNL     1      31.197  -8.641 -21.397  0.00  0.00    +0.050 C 
ATOM     17  C   UNL     1      31.476  -9.853 -22.029  0.00  0.00    +0.019 C 
ATOM     18  C   UNL     1      31.150  -8.576 -20.004  0.00  0.00    +0.044 C 
ATOM     19  C   UNL     1      31.701 -10.972 -21.255  0.00  0.00    +0.057 C 
ATOM     20  C   UNL     1      31.382  -9.723 -19.244  0.00  0.00    +0.142 C 
ATOM     21  C   UNL     1      31.660 -10.934 -19.877  0.00  0.00    +0.034 C 
BRANCH  16  23
ATOM     22  O   UNL     1      30.762  -5.111 -23.638  0.00  0.00    -0.350 OA
ATOM     23  N   UNL     1      30.965  -7.491 -22.158  0.00  0.00    -0.303 N 
ATOM     24  C   UNL     1      31.019  -6.189 -21.481  0.00  0.00    +0.123 C 
ATOM     25  C   UNL     1      31.323  -7.470 -23.580  0.00  0.00    +0.123 C 
ATOM     26  C   UNL     1      30.263  -5.151 -22.301  0.00  0.00    +0.164 C 
ATOM     27  C   UNL     1      30.552  -6.363 -24.290  0.00  0.00    +0.164 C 
ENDBRANCH  16  23
ENDBRANCH   3  19
TORSDOF 3
ENDMDL
MODEL 6
REMARK VINA RESULT:     -10.9      2.852      4.623
REMARK  Name = 5326870
REMARK  3 active torsions:
REMARK  status: ('A' for Active; 'I' for Inactive)
REMARK    1  A    between atoms: N_2  and  C_7
REMARK    2  A    between atoms: C_3  and  C_19
REMARK    3  A    between atoms: C_16  and  N_23
REMARK                            x       y       z     vdW  Elec       q    Type
REMARK                         _______ _______ _______ _____ _____    ______ ____
ROOT
ATOM      1  O   UNL     1      32.731 -12.228 -24.424  0.00  0.00    -0.270 OA
ATOM      2  N   UNL     1      33.081 -13.095 -22.267  0.00  0.00    -0.280 N 
ATOM      3  C   UNL     1      32.690 -12.129 -23.201  0.00  0.00    +0.250 C 
ATOM      4  H   UNL     1      32.979 -12.846 -21.320  0.00  0.00    +0.155 HD
ENDROOT
BRANCH   2   7
ATOM      5  N   UNL     1      35.167 -18.150 -22.992  0.00  0.00    -0.312 N 
ATOM      6  C   UNL     1      34.618 -16.412 -21.705  0.00  0.00    +0.016 C 
ATOM      7  C   UNL     1      33.597 -14.370 -22.512  0.00  0.00    +0.051 C 
ATOM      8  C   UNL     1      34.613 -16.889 -23.017  0.00  0.00    +0.048 C 
ATOM      9  C   UNL     1      34.099 -15.127 -21.449  0.00  0.00    +0.016 C 
ATOM     10  C   UNL     1      33.605 -14.871 -23.813  0.00  0.00    +0.016 C 
ATOM     11  C   UNL     1      34.114 -16.143 -24.090  0.00  0.00    +0.016 C 
ATOM     12  C   UNL     1      35.193 -17.429 -20.893  0.00  0.00    +0.017 C 
ATOM     13  C   UNL     1      35.521 -18.484 -21.713  0.00  0.00    +0.062 C 
ATOM     14  H   UNL     1      35.291 -18.726 -23.780  0.00  0.00    +0.152 HD
ENDBRANCH   2   7
BRANCH   3  19
ATOM     15  F   UNL     1      30.266  -9.685 -19.806  0.00  0.00    -0.204 F 
ATOM     16  C   UNL     1      32.059  -8.466 -22.729  0.00  0.00    +0.050 C 
ATOM     17  C   UNL     1      32.515  -9.668 -23.269  0.00  0.00    +0.019 C 
ATOM     18  C   UNL     1      31.299  -8.471 -21.559  0.00  0.00    +0.044 C 
ATOM     19  C   UNL     1      32.202 -10.848 -22.628  0.00  0.00    +0.057 C 
ATOM     20  C   UNL     1      30.996  -9.679 -20.929  0.00  0.00    +0.142 C 
ATOM     21  C   UNL     1      31.452 -10.881 -21.470  0.00  0.00    +0.034 C 
BRANCH  16  23
ATOM     22  O   UNL     1      32.758  -4.712 -24.489  0.00  0.00    -0.350 OA
ATOM     23  N   UNL     1      32.362  -7.256 -23.359  0.00  0.00    -0.303 N 
ATOM     24  C   UNL     1      31.384  -6.703 -24.306  0.00  0.00    +0.123 C 
ATOM     25  C   UNL     1      33.197  -6.263 -22.674  0.00  0.00    +0.123 C 
ATOM     26  C   UNL     1      32.074  -5.715 -25.240  0.00  0.00    +0.164 C 
ATOM     27  C   UNL     1      33.790  -5.297 -23.695  0.00  0.00    +0.164 C 
ENDBRANCH  16  23
ENDBRANCH   3  19
TORSDOF 3
ENDMDL
MODEL 7
REMARK VINA RESULT:     -10.8      6.916     12.118
REMARK  Name = 5326870
REMARK  3 active torsions:
REMARK  status: ('A' for Active; 'I' for Inactive)
REMARK    1  A    between atoms: N_2  and  C_7
REMARK    2  A    between atoms: C_3  and  C_19
REMARK    3  A    between atoms: C_16  and  N_23
REMARK                            x       y       z     vdW  Elec       q    Type
REMARK                         _______ _______ _______ _____ _____    ______ ____
ROOT
ATOM      1  O   UNL     1      31.604 -22.019 -17.764  0.00  0.00    -0.270 OA
ATOM      2  N   UNL     1      33.909 -21.628 -18.010  0.00  0.00    -0.280 N 
ATOM      3  C   UNL     1      32.767 -22.160 -17.399  0.00  0.00    +0.250 C 
ATOM      4  H   UNL     1      34.769 -21.843 -17.581  0.00  0.00    +0.155 HD
ENDROOT
BRANCH   2   7
ATOM      5  N   UNL     1      34.434 -18.447 -22.486  0.00  0.00    -0.312 N 
ATOM      6  C   UNL     1      35.275 -19.494 -20.704  0.00  0.00    +0.016 C 
ATOM      7  C   UNL     1      33.979 -20.828 -19.153  0.00  0.00    +0.051 C 
ATOM      8  C   UNL     1      34.100 -19.249 -21.418  0.00  0.00    +0.048 C 
ATOM      9  C   UNL     1      35.213 -20.300 -19.550  0.00  0.00    +0.016 C 
ATOM     10  C   UNL     1      32.822 -20.567 -19.883  0.00  0.00    +0.016 C 
ATOM     11  C   UNL     1      32.860 -19.771 -21.032  0.00  0.00    +0.016 C 
ATOM     12  C   UNL     1      36.324 -18.812 -21.382  0.00  0.00    +0.017 C 
ATOM     13  C   UNL     1      35.775 -18.177 -22.472  0.00  0.00    +0.062 C 
ATOM     14  H   UNL     1      33.799 -18.115 -23.161  0.00  0.00    +0.152 HD
ENDBRANCH   2   7
BRANCH   3  19
ATOM     15  F   UNL     1      31.184 -24.203 -13.313  0.00  0.00    -0.204 F 
ATOM     16  C   UNL     1      34.519 -24.169 -14.767  0.00  0.00    +0.050 C 
ATOM     17  C   UNL     1      34.288 -23.421 -15.921  0.00  0.00    +0.019 C 
ATOM     18  C   UNL     1      33.471 -24.433 -13.886  0.00  0.00    +0.044 C 
ATOM     19  C   UNL     1      33.014 -22.955 -16.169  0.00  0.00    +0.057 C 
ATOM     20  C   UNL     1      32.191 -23.950 -14.160  0.00  0.00    +0.142 C 
ATOM     21  C   UNL     1      31.960 -23.203 -15.313  0.00  0.00    +0.034 C 
BRANCH  16  23
ATOM     22  O   UNL     1      38.413 -25.654 -14.213  0.00  0.00    -0.350 OA
ATOM     23  N   UNL     1      35.801 -24.654 -14.492  0.00  0.00    -0.303 N 
ATOM     24  C   UNL     1      36.102 -26.052 -14.831  0.00  0.00    +0.123 C 
ATOM     25  C   UNL     1      36.951 -23.743 -14.525  0.00  0.00    +0.123 C 
ATOM     26  C   UNL     1      37.303 -26.530 -14.023  0.00  0.00    +0.164 C 
ATOM     27  C   UNL     1      38.108 -24.345 -13.734  0.00  0.00    +0.164 C 
ENDBRANCH  16  23
ENDBRANCH   3  19
TORSDOF 3
ENDMDL
MODEL 8
REMARK VINA RESULT:     -10.8      3.680      6.253
REMARK  Name = 5326870
REMARK  3 active torsions:
REMARK  status: ('A' for Active; 'I' for Inactive)
REMARK    1  A    between atoms: N_2  and  C_7
REMARK    2  A    between atoms: C_3  and  C_19
REMARK    3  A    between atoms: C_16  and  N_23
REMARK                            x       y       z     vdW  Elec       q    Type
REMARK                         _______ _______ _______ _____ _____    ______ ____
ROOT
ATOM      1  O   UNL     1      30.814 -11.400 -21.682  0.00  0.00    -0.270 OA
ATOM      2  N   UNL     1      32.795 -11.172 -22.928  0.00  0.00    -0.280 N 
ATOM      3  C   UNL     1      31.721 -10.719 -22.151  0.00  0.00    +0.250 C 
ATOM      4  H   UNL     1      33.434 -10.484 -23.223  0.00  0.00    +0.155 HD
ENDROOT
BRANCH   2   7
ATOM      5  N   UNL     1      33.977 -16.379 -24.308  0.00  0.00    -0.312 N 
ATOM      6  C   UNL     1      33.949 -14.684 -22.857  0.00  0.00    +0.016 C 
ATOM      7  C   UNL     1      33.070 -12.479 -23.335  0.00  0.00    +0.051 C 
ATOM      8  C   UNL     1      33.607 -15.062 -24.158  0.00  0.00    +0.048 C 
ATOM      9  C   UNL     1      33.674 -13.368 -22.439  0.00  0.00    +0.016 C 
ATOM     10  C   UNL     1      32.740 -12.882 -24.628  0.00  0.00    +0.016 C 
ATOM     11  C   UNL     1      33.003 -14.184 -25.064  0.00  0.00    +0.016 C 
ATOM     12  C   UNL     1      34.535 -15.821 -22.233  0.00  0.00    +0.017 C 
ATOM     13  C   UNL     1      34.539 -16.847 -23.151  0.00  0.00    +0.062 C 
ATOM     14  H   UNL     1      33.855 -16.908 -25.129  0.00  0.00    +0.152 HD
ENDBRANCH   2   7
BRANCH   3  19
ATOM     15  F   UNL     1      31.200  -6.958 -19.158  0.00  0.00    -0.204 F 
ATOM     16  C   UNL     1      31.851  -7.021 -22.737  0.00  0.00    +0.050 C 
ATOM     17  C   UNL     1      31.883  -8.396 -22.968  0.00  0.00    +0.019 C 
ATOM     18  C   UNL     1      31.620  -6.535 -21.451  0.00  0.00    +0.044 C 
ATOM     19  C   UNL     1      31.684  -9.254 -21.907  0.00  0.00    +0.057 C 
ATOM     20  C   UNL     1      31.422  -7.425 -20.394  0.00  0.00    +0.142 C 
ATOM     21  C   UNL     1      31.454  -8.799 -20.625  0.00  0.00    +0.034 C 
BRANCH  16  23
ATOM     22  O   UNL     1      32.178  -4.277 -25.906  0.00  0.00    -0.350 OA
ATOM     23  N   UNL     1      32.049  -6.129 -23.796  0.00  0.00    -0.303 N 
ATOM     24  C   UNL     1      31.388  -6.414 -25.076  0.00  0.00    +0.123 C 
ATOM     25  C   UNL     1      32.289  -4.708 -23.521  0.00  0.00    +0.123 C 
ATOM     26  C   UNL     1      32.101  -5.671 -26.200  0.00  0.00    +0.164 C 
ATOM     27  C   UNL     1      32.953  -4.054 -24.728  0.00  0.00    +0.164 C 
ENDBRANCH  16  23
ENDBRANCH   3  19
TORSDOF 3
ENDMDL
MODEL 9
REMARK VINA RESULT:     -10.7      6.251     11.902
REMARK  Name = 5326870
REMARK  3 active torsions:
REMARK  status: ('A' for Active; 'I' for Inactive)
REMARK    1  A    between atoms: N_2  and  C_7
REMARK    2  A    between atoms: C_3  and  C_19
REMARK    3  A    between atoms: C_16  and  N_23
REMARK                            x       y       z     vdW  Elec       q    Type
REMARK                         _______ _______ _______ _____ _____    ______ ____
ROOT
ATOM      1  O   UNL     1      36.800 -20.210 -17.321  0.00  0.00    -0.270 OA
ATOM      2  N   UNL     1      35.095 -20.925 -18.773  0.00  0.00    -0.280 N 
ATOM      3  C   UNL     1      35.867 -20.955 -17.605  0.00  0.00    +0.250 C 
ATOM      4  H   UNL     1      34.382 -21.601 -18.837  0.00  0.00    +0.155 HD
ENDROOT
BRANCH   2   7
ATOM      5  N   UNL     1      35.330 -17.560 -23.138  0.00  0.00    -0.312 N 
ATOM      6  C   UNL     1      34.298 -19.090 -21.884  0.00  0.00    +0.016 C 
ATOM      7  C   UNL     1      35.212 -20.054 -19.859  0.00  0.00    +0.051 C 
ATOM      8  C   UNL     1      35.460 -18.325 -22.000  0.00  0.00    +0.048 C 
ATOM      9  C   UNL     1      34.172 -19.971 -20.792  0.00  0.00    +0.016 C 
ATOM     10  C   UNL     1      36.362 -19.279 -20.000  0.00  0.00    +0.016 C 
ATOM     11  C   UNL     1      36.508 -18.398 -21.075  0.00  0.00    +0.016 C 
ATOM     12  C   UNL     1      33.466 -18.757 -22.990  0.00  0.00    +0.017 C 
ATOM     13  C   UNL     1      34.129 -17.815 -23.742  0.00  0.00    +0.062 C 
ATOM     14  H   UNL     1      36.003 -16.923 -23.468  0.00  0.00    +0.152 HD
ENDBRANCH   2   7
BRANCH   3  19
ATOM     15  F   UNL     1      32.580 -23.733 -15.402  0.00  0.00    -0.204 F 
ATOM     16  C   UNL     1      36.198 -23.647 -15.021  0.00  0.00    +0.050 C 
ATOM     17  C   UNL     1      36.527 -22.640 -15.928  0.00  0.00    +0.019 C 
ATOM     18  C   UNL     1      34.865 -24.017 -14.843  0.00  0.00    +0.044 C 
ATOM     19  C   UNL     1      35.517 -22.026 -16.637  0.00  0.00    +0.057 C 
ATOM     20  C   UNL     1      33.861 -23.379 -15.573  0.00  0.00    +0.142 C 
ATOM     21  C   UNL     1      34.190 -22.372 -16.480  0.00  0.00    +0.034 C 
BRANCH  16  23
ATOM     22  O   UNL     1      39.155 -25.804 -12.952  0.00  0.00    -0.350 OA
ATOM     23  N   UNL     1      37.203 -24.286 -14.289  0.00  0.00    -0.303 N 
ATOM     24  C   UNL     1      36.808 -25.320 -13.323  0.00  0.00    +0.123 C 
ATOM     25  C   UNL     1      38.538 -24.458 -14.874  0.00  0.00    +0.123 C 
ATOM     26  C   UNL     1      37.919 -25.518 -12.298  0.00  0.00    +0.164 C 
ATOM     27  C   UNL     1      39.558 -24.704 -13.767  0.00  0.00    +0.164 C 
ENDBRANCH  16  23
ENDBRANCH   3  19
TORSDOF 3
ENDMDL
