MODEL 1
REMARK VINA RESULT:     -13.0      0.000      0.000
REMARK  Name = 445460
REMARK  6 active torsions:
REMARK  status: ('A' for Active; 'I' for Inactive)
REMARK    1  A    between atoms: C_1  and  C_14
REMARK    2  A    between atoms: C_1  and  C_18
REMARK    3  A    between atoms: C_1  and  O_31
REMARK    4  A    between atoms: N_17  and  C_21
REMARK    5  A    between atoms: C_26  and  C_28
REMARK    6  A    between atoms: C_28  and  O_29
REMARK                            x       y       z     vdW  Elec       q    Type
REMARK                         _______ _______ _______ _____ _____    ______ ____
ROOT
ATOM      1  C   UNL     1      34.673 -21.415 -19.207  0.00  0.00    +0.210 C 
ENDROOT
BRANCH   1  14
ATOM      2  C   UNL     1      34.227 -23.616 -14.697  0.00  0.00    +0.019 C 
ATOM      3  C   UNL     1      31.201 -23.188 -14.848  0.00  0.00    +0.019 C 
ATOM      4  C   UNL     1      33.203 -24.347 -13.801  0.00  0.00    +0.004 C 
ATOM      5  C   UNL     1      31.966 -23.503 -13.544  0.00  0.00    +0.004 C 
ATOM      6  C   UNL     1      33.550 -22.950 -15.902  0.00  0.00    -0.027 C 
ATOM      7  C   UNL     1      32.149 -22.745 -15.968  0.00  0.00    -0.027 C 
ATOM      8  C   UNL     1      34.959 -22.529 -13.878  0.00  0.00    +0.004 C 
ATOM      9  C   UNL     1      35.265 -24.677 -15.131  0.00  0.00    +0.004 C 
ATOM     10  C   UNL     1      30.427 -24.439 -15.320  0.00  0.00    +0.004 C 
ATOM     11  C   UNL     1      30.172 -22.087 -14.495  0.00  0.00    +0.004 C 
ATOM     12  C   UNL     1      34.350 -22.490 -16.972  0.00  0.00    -0.006 C 
ATOM     13  C   UNL     1      31.611 -22.144 -17.129  0.00  0.00    -0.005 C 
ATOM     14  C   UNL     1      33.794 -21.882 -18.096  0.00  0.00    +0.013 C 
ATOM     15  C   UNL     1      32.421 -21.717 -18.177  0.00  0.00    -0.002 C 
ENDBRANCH   1  14
BRANCH   1  18
ATOM     16  O   UNL     1      32.783 -20.304 -20.220  0.00  0.00    -0.272 OA
ATOM     17  N   UNL     1      34.943 -19.454 -20.591  0.00  0.00    -0.280 N 
ATOM     18  C   UNL     1      34.002 -20.333 -20.063  0.00  0.00    +0.257 C 
ATOM     19  H   UNL     1      35.881 -19.632 -20.356  0.00  0.00    +0.155 HD
BRANCH  17  21
ATOM     20  F   UNL     1      34.420 -19.764 -23.300  0.00  0.00    -0.203 F 
ATOM     21  C   UNL     1      34.706 -18.336 -21.424  0.00  0.00    +0.078 C 
ATOM     22  C   UNL     1      34.451 -18.533 -22.771  0.00  0.00    +0.154 C 
ATOM     23  C   UNL     1      34.738 -17.065 -20.874  0.00  0.00    +0.017 C 
ATOM     24  C   UNL     1      34.220 -17.428 -23.590  0.00  0.00    +0.037 C 
ATOM     25  C   UNL     1      34.508 -15.960 -21.694  0.00  0.00    +0.008 C 
ATOM     26  C   UNL     1      34.249 -16.142 -23.052  0.00  0.00    +0.078 C 
BRANCH  26  28
ATOM     27  O   UNL     1      33.872 -13.825 -23.517  0.00  0.00    -0.245 OA
ATOM     28  C   UNL     1      34.007 -14.990 -23.907  0.00  0.00    +0.338 C 
BRANCH  28  29
ATOM     29  O   UNL     1      33.940 -15.325 -25.225  0.00  0.00    -0.477 OA
ATOM     30  H   UNL     1      33.474 -14.777 -25.825  0.00  0.00    +0.295 HD
ENDBRANCH  28  29
ENDBRANCH  26  28
ENDBRANCH  17  21
ENDBRANCH   1  18
BRANCH   1  31
ATOM     31  O   UNL     1      35.884 -20.888 -18.667  0.00  0.00    -0.372 OA
ATOM     32  H   UNL     1      35.959 -21.140 -17.734  0.00  0.00    +0.211 HD
ENDBRANCH   1  31
TORSDOF 6
ENDMDL
MODEL 2
REMARK VINA RESULT:     -11.5      1.935      2.805
REMARK  Name = 445460
REMARK  6 active torsions:
REMARK  status: ('A' for Active; 'I' for Inactive)
REMARK    1  A    between atoms: C_1  and  C_14
REMARK    2  A    between atoms: C_1  and  C_18
REMARK    3  A    between atoms: C_1  and  O_31
REMARK    4  A    between atoms: N_17  and  C_21
REMARK    5  A    between atoms: C_26  and  C_28
REMARK    6  A    between atoms: C_28  and  O_29
REMARK                            x       y       z     vdW  Elec       q    Type
REMARK                         _______ _______ _______ _____ _____    ______ ____
ROOT
ATOM      1  C   UNL     1      35.961 -19.548 -20.575  0.00  0.00    +0.210 C 
ENDROOT
BRANCH   1  14
ATOM      2  C   UNL     1      35.934 -22.072 -16.214  0.00  0.00    +0.019 C 
ATOM      3  C   UNL     1      33.045 -22.908 -16.780  0.00  0.00    +0.019 C 
ATOM      4  C   UNL     1      35.207 -23.224 -15.485  0.00  0.00    +0.004 C 
ATOM      5  C   UNL     1      33.710 -22.981 -15.387  0.00  0.00    +0.004 C 
ATOM      6  C   UNL     1      35.191 -21.652 -17.490  0.00  0.00    -0.027 C 
ATOM      7  C   UNL     1      33.850 -22.033 -17.747  0.00  0.00    -0.027 C 
ATOM      8  C   UNL     1      36.045 -20.847 -15.281  0.00  0.00    +0.004 C 
ATOM      9  C   UNL     1      37.362 -22.581 -16.520  0.00  0.00    +0.004 C 
ATOM     10  C   UNL     1      32.922 -24.327 -17.379  0.00  0.00    +0.004 C 
ATOM     11  C   UNL     1      31.618 -22.354 -16.552  0.00  0.00    +0.004 C 
ATOM     12  C   UNL     1      35.849 -20.826 -18.428  0.00  0.00    -0.006 C 
ATOM     13  C   UNL     1      33.254 -21.619 -18.960  0.00  0.00    -0.005 C 
ATOM     14  C   UNL     1      35.230 -20.416 -19.607  0.00  0.00    +0.013 C 
ATOM     15  C   UNL     1      33.932 -20.820 -19.876  0.00  0.00    -0.002 C 
ENDBRANCH   1  14
BRANCH   1  18
ATOM     16  O   UNL     1      34.095 -19.299 -22.087  0.00  0.00    -0.272 OA
ATOM     17  N   UNL     1      35.333 -17.397 -21.475  0.00  0.00    -0.280 N 
ATOM     18  C   UNL     1      35.008 -18.750 -21.475  0.00  0.00    +0.257 C 
ATOM     19  H   UNL     1      36.102 -17.135 -20.920  0.00  0.00    +0.155 HD
BRANCH  17  21
ATOM     20  F   UNL     1      34.280 -15.198 -20.147  0.00  0.00    -0.203 F 
ATOM     21  C   UNL     1      34.686 -16.355 -22.181  0.00  0.00    +0.078 C 
ATOM     22  C   UNL     1      34.173 -15.277 -21.481  0.00  0.00    +0.154 C 
ATOM     23  C   UNL     1      34.578 -16.439 -23.559  0.00  0.00    +0.017 C 
ATOM     24  C   UNL     1      33.534 -14.251 -22.179  0.00  0.00    +0.037 C 
ATOM     25  C   UNL     1      33.938 -15.415 -24.258  0.00  0.00    +0.008 C 
ATOM     26  C   UNL     1      33.417 -14.321 -23.566  0.00  0.00    +0.078 C 
BRANCH  26  28
ATOM     27  O   UNL     1      32.583 -12.100 -23.878  0.00  0.00    -0.245 OA
ATOM     28  C   UNL     1      32.751 -13.251 -24.294  0.00  0.00    +0.338 C 
BRANCH  28  29
ATOM     29  O   UNL     1      32.317 -13.648 -25.521  0.00  0.00    -0.477 OA
ATOM     30  H   UNL     1      32.823 -14.257 -26.023  0.00  0.00    +0.295 HD
ENDBRANCH  28  29
ENDBRANCH  26  28
ENDBRANCH  17  21
ENDBRANCH   1  18
BRANCH   1  31
ATOM     31  O   UNL     1      36.793 -18.634 -19.861  0.00  0.00    -0.372 OA
ATOM     32  H   UNL     1      36.812 -18.879 -18.923  0.00  0.00    +0.211 HD
ENDBRANCH   1  31
TORSDOF 6
ENDMDL
MODEL 3
REMARK VINA RESULT:     -11.4      7.241     13.992
REMARK  Name = 445460
REMARK  6 active torsions:
REMARK  status: ('A' for Active; 'I' for Inactive)
REMARK    1  A    between atoms: C_1  and  C_14
REMARK    2  A    between atoms: C_1  and  C_18
REMARK    3  A    between atoms: C_1  and  O_31
REMARK    4  A    between atoms: N_17  and  C_21
REMARK    5  A    between atoms: C_26  and  C_28
REMARK    6  A    between atoms: C_28  and  O_29
REMARK                            x       y       z     vdW  Elec       q    Type
REMARK                         _______ _______ _______ _____ _____    ______ ____
ROOT
ATOM      1  C   UNL     1      30.531  -9.930 -20.953  0.00  0.00    +0.210 C 
ENDROOT
BRANCH   1  14
ATOM      2  C   UNL     1      31.247  -5.078 -22.104  0.00  0.00    +0.019 C 
ATOM      3  C   UNL     1      32.856  -5.954 -24.556  0.00  0.00    +0.019 C 
ATOM      4  C   UNL     1      31.588  -4.151 -23.292  0.00  0.00    +0.004 C 
ATOM      5  C   UNL     1      32.902  -4.532 -23.952  0.00  0.00    +0.004 C 
ATOM      6  C   UNL     1      31.471  -6.554 -22.455  0.00  0.00    -0.027 C 
ATOM      7  C   UNL     1      32.223  -6.959 -23.587  0.00  0.00    -0.027 C 
ATOM      8  C   UNL     1      32.130  -4.719 -20.888  0.00  0.00    +0.004 C 
ATOM      9  C   UNL     1      29.773  -4.790 -21.734  0.00  0.00    +0.004 C 
ATOM     10  C   UNL     1      32.034  -5.942 -25.864  0.00  0.00    +0.004 C 
ATOM     11  C   UNL     1      34.316  -6.328 -24.904  0.00  0.00    +0.004 C 
ATOM     12  C   UNL     1      30.944  -7.551 -21.605  0.00  0.00    -0.006 C 
ATOM     13  C   UNL     1      32.358  -8.342 -23.845  0.00  0.00    -0.005 C 
ATOM     14  C   UNL     1      31.109  -8.909 -21.873  0.00  0.00    +0.013 C 
ATOM     15  C   UNL     1      31.811  -9.304 -23.000  0.00  0.00    -0.002 C 
ENDBRANCH   1  14
BRANCH   1  18
ATOM     16  O   UNL     1      32.155 -10.979 -19.507  0.00  0.00    -0.272 OA
ATOM     17  N   UNL     1      31.657 -11.973 -21.577  0.00  0.00    -0.280 N 
ATOM     18  C   UNL     1      31.549 -11.014 -20.575  0.00  0.00    +0.257 C 
ATOM     19  H   UNL     1      31.089 -11.840 -22.369  0.00  0.00    +0.155 HD
BRANCH  17  21
ATOM     20  F   UNL     1      32.849 -12.861 -23.921  0.00  0.00    -0.203 F 
ATOM     21  C   UNL     1      32.488 -13.118 -21.588  0.00  0.00    +0.078 C 
ATOM     22  C   UNL     1      33.062 -13.530 -22.779  0.00  0.00    +0.154 C 
ATOM     23  C   UNL     1      32.706 -13.806 -20.406  0.00  0.00    +0.017 C 
ATOM     24  C   UNL     1      33.880 -14.660 -22.788  0.00  0.00    +0.037 C 
ATOM     25  C   UNL     1      33.523 -14.937 -20.414  0.00  0.00    +0.008 C 
ATOM     26  C   UNL     1      34.110 -15.364 -21.606  0.00  0.00    +0.078 C 
BRANCH  26  28
ATOM     27  O   UNL     1      35.309 -17.183 -20.617  0.00  0.00    -0.245 OA
ATOM     28  C   UNL     1      34.964 -16.542 -21.615  0.00  0.00    +0.338 C 
BRANCH  28  29
ATOM     29  O   UNL     1      35.361 -16.886 -22.871  0.00  0.00    -0.477 OA
ATOM     30  H   UNL     1      35.389 -17.789 -23.122  0.00  0.00    +0.295 HD
ENDBRANCH  28  29
ENDBRANCH  26  28
ENDBRANCH  17  21
ENDBRANCH   1  18
BRANCH   1  31
ATOM     31  O   UNL     1      30.073  -9.293 -19.761  0.00  0.00    -0.372 OA
ATOM     32  H   UNL     1      30.667  -9.516 -19.027  0.00  0.00    +0.211 HD
ENDBRANCH   1  31
TORSDOF 6
ENDMDL
MODEL 4
REMARK VINA RESULT:     -11.4      1.883      2.501
REMARK  Name = 445460
REMARK  6 active torsions:
REMARK  status: ('A' for Active; 'I' for Inactive)
REMARK    1  A    between atoms: C_1  and  C_14
REMARK    2  A    between atoms: C_1  and  C_18
REMARK    3  A    between atoms: C_1  and  O_31
REMARK    4  A    between atoms: N_17  and  C_21
REMARK    5  A    between atoms: C_26  and  C_28
REMARK    6  A    between atoms: C_28  and  O_29
REMARK                            x       y       z     vdW  Elec       q    Type
REMARK                         _______ _______ _______ _____ _____    ______ ____
ROOT
ATOM      1  C   UNL     1      36.436 -21.279 -17.714  0.00  0.00    +0.210 C 
ENDROOT
BRANCH   1  14
ATOM      2  C   UNL     1      36.200 -23.527 -13.212  0.00  0.00    +0.019 C 
ATOM      3  C   UNL     1      33.153 -23.631 -13.485  0.00  0.00    +0.019 C 
ATOM      4  C   UNL     1      35.284 -24.426 -12.352  0.00  0.00    +0.004 C 
ATOM      5  C   UNL     1      33.910 -23.810 -12.149  0.00  0.00    +0.004 C 
ATOM      6  C   UNL     1      35.466 -22.988 -14.447  0.00  0.00    -0.027 C 
ATOM      7  C   UNL     1      34.055 -23.029 -14.569  0.00  0.00    -0.027 C 
ATOM      8  C   UNL     1      36.699 -22.330 -12.372  0.00  0.00    +0.004 C 
ATOM      9  C   UNL     1      37.423 -24.391 -13.598  0.00  0.00    +0.004 C 
ATOM     10  C   UNL     1      32.628 -24.997 -13.979  0.00  0.00    +0.004 C 
ATOM     11  C   UNL     1      31.936 -22.726 -13.179  0.00  0.00    +0.004 C 
ATOM     12  C   UNL     1      36.215 -22.395 -15.487  0.00  0.00    -0.006 C 
ATOM     13  C   UNL     1      33.467 -22.531 -15.754  0.00  0.00    -0.005 C 
ATOM     14  C   UNL     1      35.608 -21.892 -16.636  0.00  0.00    +0.013 C 
ATOM     15  C   UNL     1      34.232 -21.968 -16.773  0.00  0.00    -0.002 C 
ENDBRANCH   1  14
BRANCH   1  18
ATOM     16  O   UNL     1      34.966 -22.001 -19.490  0.00  0.00    -0.272 OA
ATOM     17  N   UNL     1      35.824 -19.813 -19.534  0.00  0.00    -0.280 N 
ATOM     18  C   UNL     1      35.648 -21.094 -19.018  0.00  0.00    +0.257 C 
ATOM     19  H   UNL     1      36.408 -19.214 -19.017  0.00  0.00    +0.155 HD
BRANCH  17  21
ATOM     20  F   UNL     1      37.257 -18.060 -21.141  0.00  0.00    -0.203 F 
ATOM     21  C   UNL     1      35.260 -19.274 -20.714  0.00  0.00    +0.078 C 
ATOM     22  C   UNL     1      36.007 -18.401 -21.487  0.00  0.00    +0.154 C 
ATOM     23  C   UNL     1      33.970 -19.629 -21.069  0.00  0.00    +0.017 C 
ATOM     24  C   UNL     1      35.449 -17.870 -22.650  0.00  0.00    +0.037 C 
ATOM     25  C   UNL     1      33.410 -19.097 -22.231  0.00  0.00    +0.008 C 
ATOM     26  C   UNL     1      34.150 -18.217 -23.021  0.00  0.00    +0.078 C 
BRANCH  26  28
ATOM     27  O   UNL     1      33.921 -16.614 -24.783  0.00  0.00    -0.245 OA
ATOM     28  C   UNL     1      33.568 -17.663 -24.234  0.00  0.00    +0.338 C 
BRANCH  28  29
ATOM     29  O   UNL     1      32.562 -18.436 -24.728  0.00  0.00    -0.477 OA
ATOM     30  H   UNL     1      32.378 -18.434 -25.647  0.00  0.00    +0.295 HD
ENDBRANCH  28  29
ENDBRANCH  26  28
ENDBRANCH  17  21
ENDBRANCH   1  18
BRANCH   1  31
ATOM     31  O   UNL     1      36.915 -20.006 -17.282  0.00  0.00    -0.372 OA
ATOM     32  H   UNL     1      36.514 -19.784 -16.427  0.00  0.00    +0.211 HD
ENDBRANCH   1  31
TORSDOF 6
ENDMDL
MODEL 5
REMARK VINA RESULT:     -11.1      1.358      1.596
REMARK  Name = 445460
REMARK  6 active torsions:
REMARK  status: ('A' for Active; 'I' for Inactive)
REMARK    1  A    between atoms: C_1  and  C_14
REMARK    2  A    between atoms: C_1  and  C_18
REMARK    3  A    between atoms: C_1  and  O_31
REMARK    4  A    between atoms: N_17  and  C_21
REMARK    5  A    between atoms: C_26  and  C_28
REMARK    6  A    between atoms: C_28  and  O_29
REMARK                            x       y       z     vdW  Elec       q    Type
REMARK                         _______ _______ _______ _____ _____    ______ ____
ROOT
ATOM      1  C   UNL     1      35.640 -21.783 -17.979  0.00  0.00    +0.210 C 
ENDROOT
BRANCH   1  14
ATOM      2  C   UNL     1      33.770 -23.963 -13.840  0.00  0.00    +0.019 C 
ATOM      3  C   UNL     1      30.951 -23.331 -14.848  0.00  0.00    +0.019 C 
ATOM      4  C   UNL     1      32.487 -24.627 -13.294  0.00  0.00    +0.004 C 
ATOM      5  C   UNL     1      31.285 -23.702 -13.385  0.00  0.00    +0.004 C 
ATOM      6  C   UNL     1      33.515 -23.249 -15.174  0.00  0.00    -0.027 C 
ATOM      7  C   UNL     1      32.209 -22.950 -15.636  0.00  0.00    -0.027 C 
ATOM      8  C   UNL     1      34.302 -22.930 -12.821  0.00  0.00    +0.004 C 
ATOM      9  C   UNL     1      34.820 -25.090 -13.981  0.00  0.00    +0.004 C 
ATOM     10  C   UNL     1      30.269 -24.526 -15.550  0.00  0.00    +0.004 C 
ATOM     11  C   UNL     1      29.936 -22.165 -14.781  0.00  0.00    +0.004 C 
ATOM     12  C   UNL     1      34.617 -22.840 -15.957  0.00  0.00    -0.006 C 
ATOM     13  C   UNL     1      32.068 -22.311 -16.889  0.00  0.00    -0.005 C 
ATOM     14  C   UNL     1      34.450 -22.193 -17.180  0.00  0.00    +0.013 C 
ATOM     15  C   UNL     1      33.172 -21.935 -17.650  0.00  0.00    -0.002 C 
ENDBRANCH   1  14
BRANCH   1  18
ATOM     16  O   UNL     1      34.965 -22.153 -20.268  0.00  0.00    -0.272 OA
ATOM     17  N   UNL     1      35.308 -19.952 -19.519  0.00  0.00    -0.280 N 
ATOM     18  C   UNL     1      35.261 -21.338 -19.398  0.00  0.00    +0.257 C 
ATOM     19  H   UNL     1      35.567 -19.454 -18.711  0.00  0.00    +0.155 HD
BRANCH  17  21
ATOM     20  F   UNL     1      32.876 -20.173 -20.841  0.00  0.00    -0.203 F 
ATOM     21  C   UNL     1      35.025 -19.177 -20.669  0.00  0.00    +0.078 C 
ATOM     22  C   UNL     1      33.801 -19.319 -21.300  0.00  0.00    +0.154 C 
ATOM     23  C   UNL     1      35.983 -18.294 -21.140  0.00  0.00    +0.017 C 
ATOM     24  C   UNL     1      33.526 -18.554 -22.434  0.00  0.00    +0.037 C 
ATOM     25  C   UNL     1      35.709 -17.530 -22.274  0.00  0.00    +0.008 C 
ATOM     26  C   UNL     1      34.479 -17.661 -22.921  0.00  0.00    +0.078 C 
BRANCH  26  28
ATOM     27  O   UNL     1      33.488 -17.221 -25.054  0.00  0.00    -0.245 OA
ATOM     28  C   UNL     1      34.191 -16.863 -24.103  0.00  0.00    +0.338 C 
BRANCH  28  29
ATOM     29  O   UNL     1      34.789 -15.641 -24.064  0.00  0.00    -0.477 OA
ATOM     30  H   UNL     1      35.403 -15.441 -23.385  0.00  0.00    +0.295 HD
ENDBRANCH  28  29
ENDBRANCH  26  28
ENDBRANCH  17  21
ENDBRANCH   1  18
BRANCH   1  31
ATOM     31  O   UNL     1      36.307 -20.705 -17.323  0.00  0.00    -0.372 OA
ATOM     32  H   UNL     1      36.234 -19.903 -17.862  0.00  0.00    +0.211 HD
ENDBRANCH   1  31
TORSDOF 6
ENDMDL
MODEL 6
REMARK VINA RESULT:     -11.0      5.455     11.521
REMARK  Name = 445460
REMARK  6 active torsions:
REMARK  status: ('A' for Active; 'I' for Inactive)
REMARK    1  A    between atoms: C_1  and  C_14
REMARK    2  A    between atoms: C_1  and  C_18
REMARK    3  A    between atoms: C_1  and  O_31
REMARK    4  A    between atoms: N_17  and  C_21
REMARK    5  A    between atoms: C_26  and  C_28
REMARK    6  A    between atoms: C_28  and  O_29
REMARK                            x       y       z     vdW  Elec       q    Type
REMARK                         _______ _______ _______ _____ _____    ______ ____
ROOT
ATOM      1  C   UNL     1      33.117 -12.778 -25.103  0.00  0.00    +0.210 C 
ENDROOT
BRANCH   1  14
ATOM      2  C   UNL     1      32.641  -8.229 -22.991  0.00  0.00    +0.019 C 
ATOM      3  C   UNL     1      31.210  -9.539 -20.624  0.00  0.00    +0.019 C 
ATOM      4  C   UNL     1      32.425  -7.544 -21.623  0.00  0.00    +0.004 C 
ATOM      5  C   UNL     1      31.157  -8.027 -20.939  0.00  0.00    +0.004 C 
ATOM      6  C   UNL     1      32.402  -9.742 -22.910  0.00  0.00    -0.027 C 
ATOM      7  C   UNL     1      31.732 -10.347 -21.817  0.00  0.00    -0.027 C 
ATOM      8  C   UNL     1      31.673  -7.631 -24.037  0.00  0.00    +0.004 C 
ATOM      9  C   UNL     1      34.089  -7.896 -23.423  0.00  0.00    +0.004 C 
ATOM     10  C   UNL     1      32.135  -9.791 -19.412  0.00  0.00    +0.004 C 
ATOM     11  C   UNL     1      29.772  -9.953 -20.231  0.00  0.00    +0.004 C 
ATOM     12  C   UNL     1      32.829 -10.564 -23.977  0.00  0.00    -0.006 C 
ATOM     13  C   UNL     1      31.578 -11.752 -21.817  0.00  0.00    -0.005 C 
ATOM     14  C   UNL     1      32.646 -11.945 -23.960  0.00  0.00    +0.013 C 
ATOM     15  C   UNL     1      32.026 -12.541 -22.873  0.00  0.00    -0.002 C 
ENDBRANCH   1  14
BRANCH   1  18
ATOM     16  O   UNL     1      32.958 -15.164 -25.440  0.00  0.00    -0.272 OA
ATOM     17  N   UNL     1      33.944 -14.351 -23.468  0.00  0.00    -0.280 N 
ATOM     18  C   UNL     1      33.321 -14.246 -24.708  0.00  0.00    +0.257 C 
ATOM     19  H   UNL     1      34.166 -13.504 -23.021  0.00  0.00    +0.155 HD
BRANCH  17  21
ATOM     20  F   UNL     1      34.024 -14.426 -20.693  0.00  0.00    -0.203 F 
ATOM     21  C   UNL     1      34.296 -15.534 -22.776  0.00  0.00    +0.078 C 
ATOM     22  C   UNL     1      34.326 -15.529 -21.392  0.00  0.00    +0.154 C 
ATOM     23  C   UNL     1      34.606 -16.673 -23.501  0.00  0.00    +0.017 C 
ATOM     24  C   UNL     1      34.674 -16.697 -20.713  0.00  0.00    +0.037 C 
ATOM     25  C   UNL     1      34.955 -17.841 -22.822  0.00  0.00    +0.008 C 
ATOM     26  C   UNL     1      34.990 -17.852 -21.428  0.00  0.00    +0.078 C 
BRANCH  26  28
ATOM     27  O   UNL     1      34.662 -20.094 -20.657  0.00  0.00    -0.245 OA
ATOM     28  C   UNL     1      35.352 -19.070 -20.719  0.00  0.00    +0.338 C 
BRANCH  28  29
ATOM     29  O   UNL     1      36.565 -18.976 -20.108  0.00  0.00    -0.477 OA
ATOM     30  H   UNL     1      36.737 -19.469 -19.330  0.00  0.00    +0.295 HD
ENDBRANCH  28  29
ENDBRANCH  26  28
ENDBRANCH  17  21
ENDBRANCH   1  18
BRANCH   1  31
ATOM     31  O   UNL     1      32.164 -12.716 -26.163  0.00  0.00    -0.372 OA
ATOM     32  H   UNL     1      31.434 -12.131 -25.907  0.00  0.00    +0.211 HD
ENDBRANCH   1  31
TORSDOF 6
ENDMDL
MODEL 7
REMARK VINA RESULT:     -11.0      6.410     12.947
REMARK  Name = 445460
REMARK  6 active torsions:
REMARK  status: ('A' for Active; 'I' for Inactive)
REMARK    1  A    between atoms: C_1  and  C_14
REMARK    2  A    between atoms: C_1  and  C_18
REMARK    3  A    between atoms: C_1  and  O_31
REMARK    4  A    between atoms: N_17  and  C_21
REMARK    5  A    between atoms: C_26  and  C_28
REMARK    6  A    between atoms: C_28  and  O_29
REMARK                            x       y       z     vdW  Elec       q    Type
REMARK                         _______ _______ _______ _____ _____    ______ ____
ROOT
ATOM      1  C   UNL     1      31.791 -11.608 -22.986  0.00  0.00    +0.210 C 
ENDROOT
BRANCH   1  14
ATOM      2  C   UNL     1      33.387  -6.887 -23.722  0.00  0.00    +0.019 C 
ATOM      3  C   UNL     1      32.022  -6.076 -21.105  0.00  0.00    +0.019 C 
ATOM      4  C   UNL     1      33.682  -5.575 -22.962  0.00  0.00    +0.004 C 
ATOM      5  C   UNL     1      32.469  -5.076 -22.195  0.00  0.00    +0.004 C 
ATOM      6  C   UNL     1      32.632  -7.892 -22.843  0.00  0.00    -0.027 C 
ATOM      7  C   UNL     1      31.993  -7.514 -21.635  0.00  0.00    -0.027 C 
ATOM      8  C   UNL     1      32.535  -6.588 -24.975  0.00  0.00    +0.004 C 
ATOM      9  C   UNL     1      34.755  -7.440 -24.186  0.00  0.00    +0.004 C 
ATOM     10  C   UNL     1      32.990  -6.011 -19.903  0.00  0.00    +0.004 C 
ATOM     11  C   UNL     1      30.626  -5.608 -20.629  0.00  0.00    +0.004 C 
ATOM     12  C   UNL     1      32.534  -9.237 -23.265  0.00  0.00    -0.006 C 
ATOM     13  C   UNL     1      31.340  -8.513 -20.878  0.00  0.00    -0.005 C 
ATOM     14  C   UNL     1      31.866 -10.198 -22.508  0.00  0.00    +0.013 C 
ATOM     15  C   UNL     1      31.275  -9.836 -21.308  0.00  0.00    -0.002 C 
ENDBRANCH   1  14
BRANCH   1  18
ATOM     16  O   UNL     1      33.984 -11.931 -22.028  0.00  0.00    -0.272 OA
ATOM     17  N   UNL     1      32.723 -13.811 -22.656  0.00  0.00    -0.280 N 
ATOM     18  C   UNL     1      32.974 -12.452 -22.495  0.00  0.00    +0.257 C 
ATOM     19  H   UNL     1      31.852 -14.049 -23.048  0.00  0.00    +0.155 HD
BRANCH  17  21
ATOM     20  F   UNL     1      33.173 -14.519 -20.009  0.00  0.00    -0.203 F 
ATOM     21  C   UNL     1      33.573 -14.891 -22.320  0.00  0.00    +0.078 C 
ATOM     22  C   UNL     1      33.773 -15.211 -20.988  0.00  0.00    +0.154 C 
ATOM     23  C   UNL     1      34.191 -15.605 -23.334  0.00  0.00    +0.017 C 
ATOM     24  C   UNL     1      34.613 -16.275 -20.660  0.00  0.00    +0.037 C 
ATOM     25  C   UNL     1      35.032 -16.669 -23.007  0.00  0.00    +0.008 C 
ATOM     26  C   UNL     1      35.243 -17.003 -21.669  0.00  0.00    +0.078 C 
BRANCH  26  28
ATOM     27  O   UNL     1      35.822 -19.055 -20.582  0.00  0.00    -0.245 OA
ATOM     28  C   UNL     1      36.118 -18.114 -21.326  0.00  0.00    +0.338 C 
BRANCH  28  29
ATOM     29  O   UNL     1      37.337 -18.019 -21.923  0.00  0.00    -0.477 OA
ATOM     30  H   UNL     1      37.664 -18.730 -22.438  0.00  0.00    +0.295 HD
ENDBRANCH  28  29
ENDBRANCH  26  28
ENDBRANCH  17  21
ENDBRANCH   1  18
BRANCH   1  31
ATOM     31  O   UNL     1      30.579 -12.204 -22.524  0.00  0.00    -0.372 OA
ATOM     32  H   UNL     1      30.737 -13.136 -22.311  0.00  0.00    +0.211 HD
ENDBRANCH   1  31
TORSDOF 6
ENDMDL
MODEL 8
REMARK VINA RESULT:     -10.6      2.602      9.640
REMARK  Name = 445460
REMARK  6 active torsions:
REMARK  status: ('A' for Active; 'I' for Inactive)
REMARK    1  A    between atoms: C_1  and  C_14
REMARK    2  A    between atoms: C_1  and  C_18
REMARK    3  A    between atoms: C_1  and  O_31
REMARK    4  A    between atoms: N_17  and  C_21
REMARK    5  A    between atoms: C_26  and  C_28
REMARK    6  A    between atoms: C_28  and  O_29
REMARK                            x       y       z     vdW  Elec       q    Type
REMARK                         _______ _______ _______ _____ _____    ______ ____
ROOT
ATOM      1  C   UNL     1      34.950 -17.579 -22.938  0.00  0.00    +0.210 C 
ENDROOT
BRANCH   1  14
ATOM      2  C   UNL     1      32.961 -13.541 -20.674  0.00  0.00    +0.019 C 
ATOM      3  C   UNL     1      32.734 -12.188 -23.410  0.00  0.00    +0.019 C 
ATOM      4  C   UNL     1      32.082 -12.303 -20.957  0.00  0.00    +0.004 C 
ATOM      5  C   UNL     1      32.660 -11.435 -22.062  0.00  0.00    +0.004 C 
ATOM      6  C   UNL     1      33.401 -14.231 -21.971  0.00  0.00    -0.027 C 
ATOM      7  C   UNL     1      33.303 -13.601 -23.237  0.00  0.00    -0.027 C 
ATOM      8  C   UNL     1      34.222 -13.120 -19.886  0.00  0.00    +0.004 C 
ATOM      9  C   UNL     1      32.119 -14.479 -19.778  0.00  0.00    +0.004 C 
ATOM     10  C   UNL     1      31.323 -12.294 -24.031  0.00  0.00    +0.004 C 
ATOM     11  C   UNL     1      33.612 -11.322 -24.345  0.00  0.00    +0.004 C 
ATOM     12  C   UNL     1      33.959 -15.528 -21.906  0.00  0.00    -0.006 C 
ATOM     13  C   UNL     1      33.711 -14.322 -24.382  0.00  0.00    -0.005 C 
ATOM     14  C   UNL     1      34.372 -16.209 -23.049  0.00  0.00    +0.013 C 
ATOM     15  C   UNL     1      34.240 -15.607 -24.290  0.00  0.00    -0.002 C 
ENDBRANCH   1  14
BRANCH   1  18
ATOM     16  O   UNL     1      35.306 -17.439 -20.553  0.00  0.00    -0.272 OA
ATOM     17  N   UNL     1      34.374 -19.397 -21.457  0.00  0.00    -0.280 N 
ATOM     18  C   UNL     1      34.906 -18.113 -21.500  0.00  0.00    +0.257 C 
ATOM     19  H   UNL     1      34.104 -19.784 -22.320  0.00  0.00    +0.155 HD
BRANCH  17  21
ATOM     20  F   UNL     1      31.821 -20.023 -20.562  0.00  0.00    -0.203 F 
ATOM     21  C   UNL     1      34.176 -20.211 -20.317  0.00  0.00    +0.078 C 
ATOM     22  C   UNL     1      32.887 -20.499 -19.902  0.00  0.00    +0.154 C 
ATOM     23  C   UNL     1      35.279 -20.701 -19.637  0.00  0.00    +0.017 C 
ATOM     24  C   UNL     1      32.694 -21.300 -18.777  0.00  0.00    +0.037 C 
ATOM     25  C   UNL     1      35.088 -21.502 -18.511  0.00  0.00    +0.008 C 
ATOM     26  C   UNL     1      33.795 -21.801 -18.081  0.00  0.00    +0.078 C 
BRANCH  26  28
ATOM     27  O   UNL     1      32.500 -23.032 -16.489  0.00  0.00    -0.245 OA
ATOM     28  C   UNL     1      33.594 -22.638 -16.908  0.00  0.00    +0.338 C 
BRANCH  28  29
ATOM     29  O   UNL     1      34.764 -22.961 -16.292  0.00  0.00    -0.477 OA
ATOM     30  H   UNL     1      34.754 -23.459 -15.499  0.00  0.00    +0.295 HD
ENDBRANCH  28  29
ENDBRANCH  26  28
ENDBRANCH  17  21
ENDBRANCH   1  18
BRANCH   1  31
ATOM     31  O   UNL     1      34.224 -18.472 -23.782  0.00  0.00    -0.372 OA
ATOM     32  H   UNL     1      33.430 -18.027 -24.116  0.00  0.00    +0.211 HD
ENDBRANCH   1  31
TORSDOF 6
ENDMDL
MODEL 9
REMARK VINA RESULT:     -10.6      7.746     14.603
REMARK  Name = 445460
REMARK  6 active torsions:
REMARK  status: ('A' for Active; 'I' for Inactive)
REMARK    1  A    between atoms: C_1  and  C_14
REMARK    2  A    between atoms: C_1  and  C_18
REMARK    3  A    between atoms: C_1  and  O_31
REMARK    4  A    between atoms: N_17  and  C_21
REMARK    5  A    between atoms: C_26  and  C_28
REMARK    6  A    between atoms: C_28  and  O_29
REMARK                            x       y       z     vdW  Elec       q    Type
REMARK                         _______ _______ _______ _____ _____    ______ ____
ROOT
ATOM      1  C   UNL     1      30.896  -9.705 -22.447  0.00  0.00    +0.210 C 
ENDROOT
BRANCH   1  14
ATOM      2  C   UNL     1      30.839  -4.709 -21.802  0.00  0.00    +0.019 C 
ATOM      3  C   UNL     1      32.386  -4.408 -24.425  0.00  0.00    +0.019 C 
ATOM      4  C   UNL     1      30.963  -3.384 -22.586  0.00  0.00    +0.004 C 
ATOM      5  C   UNL     1      32.271  -3.299 -23.355  0.00  0.00    +0.004 C 
ATOM      6  C   UNL     1      31.246  -5.915 -22.659  0.00  0.00    -0.027 C 
ATOM      7  C   UNL     1      31.969  -5.775 -23.870  0.00  0.00    -0.027 C 
ATOM      8  C   UNL     1      31.742  -4.665 -20.549  0.00  0.00    +0.004 C 
ATOM      9  C   UNL     1      29.367  -4.804 -21.336  0.00  0.00    +0.004 C 
ATOM     10  C   UNL     1      31.485  -4.068 -25.633  0.00  0.00    +0.004 C 
ATOM     11  C   UNL     1      33.858  -4.403 -24.902  0.00  0.00    +0.004 C 
ATOM     12  C   UNL     1      30.923  -7.216 -22.214  0.00  0.00    -0.006 C 
ATOM     13  C   UNL     1      32.281  -6.940 -24.606  0.00  0.00    -0.005 C 
ATOM     14  C   UNL     1      31.261  -8.350 -22.950  0.00  0.00    +0.013 C 
ATOM     15  C   UNL     1      31.934  -8.210 -24.152  0.00  0.00    -0.002 C 
ENDBRANCH   1  14
BRANCH   1  18
ATOM     16  O   UNL     1      33.185 -10.328 -22.900  0.00  0.00    -0.272 OA
ATOM     17  N   UNL     1      31.711 -11.942 -22.037  0.00  0.00    -0.280 N 
ATOM     18  C   UNL     1      32.079 -10.681 -22.497  0.00  0.00    +0.257 C 
ATOM     19  H   UNL     1      30.775 -12.043 -21.750  0.00  0.00    +0.155 HD
BRANCH  17  21
ATOM     20  F   UNL     1      32.076 -13.233 -19.607  0.00  0.00    -0.203 F 
ATOM     21  C   UNL     1      32.525 -13.094 -21.935  0.00  0.00    +0.078 C 
ATOM     22  C   UNL     1      32.683 -13.708 -20.704  0.00  0.00    +0.154 C 
ATOM     23  C   UNL     1      33.150 -13.583 -23.070  0.00  0.00    +0.017 C 
ATOM     24  C   UNL     1      33.487 -14.843 -20.605  0.00  0.00    +0.037 C 
ATOM     25  C   UNL     1      33.955 -14.718 -22.972  0.00  0.00    +0.008 C 
ATOM     26  C   UNL     1      34.124 -15.347 -21.739  0.00  0.00    +0.078 C 
BRANCH  26  28
ATOM     27  O   UNL     1      35.244 -17.120 -20.586  0.00  0.00    -0.245 OA
ATOM     28  C   UNL     1      34.962 -16.533 -21.636  0.00  0.00    +0.338 C 
BRANCH  28  29
ATOM     29  O   UNL     1      35.423 -16.951 -22.846  0.00  0.00    -0.477 OA
ATOM     30  H   UNL     1      35.611 -17.857 -22.988  0.00  0.00    +0.295 HD
ENDBRANCH  28  29
ENDBRANCH  26  28
ENDBRANCH  17  21
ENDBRANCH   1  18
BRANCH   1  31
ATOM     31  O   UNL     1      30.439  -9.607 -21.099  0.00  0.00    -0.372 OA
ATOM     32  H   UNL     1      29.585 -10.058 -21.014  0.00  0.00    +0.211 HD
ENDBRANCH   1  31
TORSDOF 6
ENDMDL
