MODEL 1
REMARK VINA RESULT:     -11.6      0.000      0.000
REMARK  Name = 135565554
REMARK  0 active torsions:
REMARK  status: ('A' for Active; 'I' for Inactive)
REMARK                            x       y       z     vdW  Elec       q    Type
REMARK                         _______ _______ _______ _____ _____    ______ ____
ROOT
ATOM      1  F   UNL     1      29.038 -23.877 -14.442  0.00  0.00    -0.204 F 
ATOM      2  O   UNL     1      31.967 -22.162 -18.055  0.00  0.00    -0.268 OA
ATOM      3  N   UNL     1      37.170 -23.765 -14.012  0.00  0.00    +0.397 N 
ATOM      4  N   UNL     1      33.627 -24.089 -12.828  0.00  0.00    -0.358 N 
ATOM      5  N   UNL     1      35.299 -22.278 -16.744  0.00  0.00    -0.185 NA
ATOM      6  N   UNL     1      34.134 -22.170 -17.421  0.00  0.00    -0.203 N 
ATOM      7  C   UNL     1      36.185 -23.861 -12.901  0.00  0.00    -0.007 C 
ATOM      8  C   UNL     1      36.493 -25.256 -12.352  0.00  0.00    -0.016 C 
ATOM      9  C   UNL     1      34.794 -23.735 -13.447  0.00  0.00    +0.017 A 
ATOM     10  C   UNL     1      37.306 -25.093 -14.625  0.00  0.00    -0.076 C 
ATOM     11  C   UNL     1      36.820 -26.090 -13.582  0.00  0.00    -0.024 C 
ATOM     12  C   UNL     1      36.922 -22.697 -14.995  0.00  0.00    -0.028 C 
ATOM     13  C   UNL     1      34.477 -23.219 -14.681  0.00  0.00    +0.024 A 
ATOM     14  C   UNL     1      36.442 -22.785 -11.840  0.00  0.00    -0.015 C 
ATOM     15  C   UNL     1      35.496 -22.733 -15.552  0.00  0.00    +0.056 C 
ATOM     16  C   UNL     1      33.096 -23.299 -14.852  0.00  0.00    +0.022 A 
ATOM     17  C   UNL     1      32.568 -23.840 -13.677  0.00  0.00    +0.059 A 
ATOM     18  C   UNL     1      32.259 -22.955 -15.908  0.00  0.00    +0.059 C 
ATOM     19  C   UNL     1      31.198 -24.049 -13.501  0.00  0.00    +0.047 C 
ATOM     20  C   UNL     1      32.793 -22.411 -17.169  0.00  0.00    +0.265 C 
ATOM     21  C   UNL     1      30.877 -23.161 -15.744  0.00  0.00    +0.034 C 
ATOM     22  C   UNL     1      30.360 -23.695 -14.560  0.00  0.00    +0.142 C 
ATOM     23  H   UNL     1      38.059 -23.474 -13.603  0.00  0.00    -0.078 HD
ATOM     24  H   UNL     1      33.555 -24.465 -11.921  0.00  0.00    +0.166 HD
ATOM     25  H   UNL     1      34.275 -21.830 -18.334  0.00  0.00    +0.178 HD
ENDROOT
TORSDOF 0
ENDMDL
MODEL 2
REMARK VINA RESULT:     -10.3      3.041      5.830
REMARK  Name = 135565554
REMARK  0 active torsions:
REMARK  status: ('A' for Active; 'I' for Inactive)
REMARK                            x       y       z     vdW  Elec       q    Type
REMARK                         _______ _______ _______ _____ _____    ______ ____
ROOT
ATOM      1  F   UNL     1      34.723 -21.259 -19.873  0.00  0.00    -0.204 F 
ATOM      2  O   UNL     1      36.253 -22.858 -15.439  0.00  0.00    -0.268 OA
ATOM      3  N   UNL     1      29.696 -23.815 -13.997  0.00  0.00    +0.397 N 
ATOM      4  N   UNL     1      30.757 -22.196 -17.208  0.00  0.00    -0.358 N 
ATOM      5  N   UNL     1      33.276 -23.435 -13.531  0.00  0.00    -0.185 NA
ATOM      6  N   UNL     1      34.504 -23.296 -14.081  0.00  0.00    -0.203 N 
ATOM      7  C   UNL     1      29.386 -22.959 -15.174  0.00  0.00    -0.007 C 
ATOM      8  C   UNL     1      28.424 -23.862 -15.950  0.00  0.00    -0.016 C 
ATOM      9  C   UNL     1      30.648 -22.657 -15.926  0.00  0.00    +0.017 A 
ATOM     10  C   UNL     1      29.749 -25.214 -14.443  0.00  0.00    -0.076 C 
ATOM     11  C   UNL     1      28.968 -25.268 -15.750  0.00  0.00    -0.024 C 
ATOM     12  C   UNL     1      30.875 -23.416 -13.210  0.00  0.00    -0.028 C 
ATOM     13  C   UNL     1      31.919 -22.793 -15.418  0.00  0.00    +0.024 A 
ATOM     14  C   UNL     1      28.695 -21.660 -14.745  0.00  0.00    -0.015 C 
ATOM     15  C   UNL     1      32.125 -23.233 -14.077  0.00  0.00    +0.056 C 
ATOM     16  C   UNL     1      32.832 -22.458 -16.415  0.00  0.00    +0.022 A 
ATOM     17  C   UNL     1      32.091 -22.074 -17.537  0.00  0.00    +0.059 A 
ATOM     18  C   UNL     1      34.222 -22.450 -16.452  0.00  0.00    +0.059 C 
ATOM     19  C   UNL     1      32.697 -21.661 -18.726  0.00  0.00    +0.047 C 
ATOM     20  C   UNL     1      35.025 -22.877 -15.294  0.00  0.00    +0.265 C 
ATOM     21  C   UNL     1      34.844 -22.035 -17.644  0.00  0.00    +0.034 C 
ATOM     22  C   UNL     1      34.093 -21.646 -18.756  0.00  0.00    +0.142 C 
ATOM     23  H   UNL     1      28.940 -23.688 -13.324  0.00  0.00    -0.078 HD
ATOM     24  H   UNL     1      30.001 -21.986 -17.804  0.00  0.00    +0.166 HD
ATOM     25  H   UNL     1      35.214 -23.561 -13.453  0.00  0.00    +0.178 HD
ENDROOT
TORSDOF 0
ENDMDL
MODEL 3
REMARK VINA RESULT:      -9.8      9.120     11.358
REMARK  Name = 135565554
REMARK  0 active torsions:
REMARK  status: ('A' for Active; 'I' for Inactive)
REMARK                            x       y       z     vdW  Elec       q    Type
REMARK                         _______ _______ _______ _____ _____    ______ ____
ROOT
ATOM      1  F   UNL     1      32.524 -11.413 -20.269  0.00  0.00    -0.204 F 
ATOM      2  O   UNL     1      32.297 -12.836 -25.012  0.00  0.00    -0.268 OA
ATOM      3  N   UNL     1      34.734 -18.800 -22.895  0.00  0.00    +0.397 N 
ATOM      4  N   UNL     1      34.396 -15.900 -20.542  0.00  0.00    -0.358 N 
ATOM      5  N   UNL     1      33.771 -16.099 -25.121  0.00  0.00    -0.185 NA
ATOM      6  N   UNL     1      33.173 -14.898 -25.289  0.00  0.00    -0.203 N 
ATOM      7  C   UNL     1      35.112 -18.115 -21.629  0.00  0.00    -0.007 C 
ATOM      8  C   UNL     1      34.457 -19.030 -20.591  0.00  0.00    -0.016 C 
ATOM      9  C   UNL     1      34.557 -16.722 -21.622  0.00  0.00    +0.017 A 
ATOM     10  C   UNL     1      33.383 -19.354 -22.735  0.00  0.00    -0.076 C 
ATOM     11  C   UNL     1      33.149 -19.468 -21.234  0.00  0.00    -0.024 C 
ATOM     12  C   UNL     1      34.889 -18.002 -24.123  0.00  0.00    -0.028 C 
ATOM     13  C   UNL     1      34.124 -16.042 -22.737  0.00  0.00    +0.024 A 
ATOM     14  C   UNL     1      36.633 -18.084 -21.451  0.00  0.00    -0.015 C 
ATOM     15  C   UNL     1      34.196 -16.639 -24.029  0.00  0.00    +0.056 C 
ATOM     16  C   UNL     1      33.643 -14.797 -22.335  0.00  0.00    +0.022 A 
ATOM     17  C   UNL     1      33.827 -14.713 -20.953  0.00  0.00    +0.059 A 
ATOM     18  C   UNL     1      33.069 -13.742 -23.036  0.00  0.00    +0.059 C 
ATOM     19  C   UNL     1      33.461 -13.581 -20.218  0.00  0.00    +0.047 C 
ATOM     20  C   UNL     1      32.837 -13.818 -24.489  0.00  0.00    +0.265 C 
ATOM     21  C   UNL     1      32.696 -12.597 -22.308  0.00  0.00    +0.034 C 
ATOM     22  C   UNL     1      32.893 -12.521 -20.927  0.00  0.00    +0.142 C 
ATOM     23  H   UNL     1      35.407 -19.551 -23.044  0.00  0.00    -0.078 HD
ATOM     24  H   UNL     1      34.647 -16.122 -19.615  0.00  0.00    +0.166 HD
ATOM     25  H   UNL     1      32.908 -14.752 -26.225  0.00  0.00    +0.178 HD
ENDROOT
TORSDOF 0
ENDMDL
MODEL 4
REMARK VINA RESULT:      -9.6      2.492      4.043
REMARK  Name = 135565554
REMARK  0 active torsions:
REMARK  status: ('A' for Active; 'I' for Inactive)
REMARK                            x       y       z     vdW  Elec       q    Type
REMARK                         _______ _______ _______ _____ _____    ______ ____
ROOT
ATOM      1  F   UNL     1      35.766 -20.530 -19.589  0.00  0.00    -0.204 F 
ATOM      2  O   UNL     1      31.463 -22.024 -17.635  0.00  0.00    -0.268 OA
ATOM      3  N   UNL     1      35.129 -24.367 -12.434  0.00  0.00    +0.397 N 
ATOM      4  N   UNL     1      36.783 -22.932 -15.477  0.00  0.00    -0.358 N 
ATOM      5  N   UNL     1      32.319 -23.847 -14.673  0.00  0.00    -0.185 NA
ATOM      6  N   UNL     1      31.792 -23.191 -15.731  0.00  0.00    -0.203 N 
ATOM      7  C   UNL     1      36.325 -24.229 -13.307  0.00  0.00    -0.007 C 
ATOM      8  C   UNL     1      37.247 -23.393 -12.416  0.00  0.00    -0.016 C 
ATOM      9  C   UNL     1      35.944 -23.533 -14.580  0.00  0.00    +0.017 A 
ATOM     10  C   UNL     1      34.958 -23.117 -11.682  0.00  0.00    -0.076 C 
ATOM     11  C   UNL     1      36.316 -22.428 -11.697  0.00  0.00    -0.024 C 
ATOM     12  C   UNL     1      33.895 -24.811 -13.106  0.00  0.00    -0.028 C 
ATOM     13  C   UNL     1      34.659 -23.402 -15.051  0.00  0.00    +0.024 A 
ATOM     14  C   UNL     1      36.948 -25.596 -13.611  0.00  0.00    -0.015 C 
ATOM     15  C   UNL     1      33.559 -23.960 -14.335  0.00  0.00    +0.056 C 
ATOM     16  C   UNL     1      34.695 -22.667 -16.234  0.00  0.00    +0.022 A 
ATOM     17  C   UNL     1      36.037 -22.383 -16.500  0.00  0.00    +0.059 A 
ATOM     18  C   UNL     1      33.696 -22.223 -17.094  0.00  0.00    +0.059 C 
ATOM     19  C   UNL     1      36.439 -21.663 -17.628  0.00  0.00    +0.047 C 
ATOM     20  C   UNL     1      32.272 -22.484 -16.821  0.00  0.00    +0.265 C 
ATOM     21  C   UNL     1      34.088 -21.496 -18.234  0.00  0.00    +0.034 C 
ATOM     22  C   UNL     1      35.434 -21.226 -18.494  0.00  0.00    +0.142 C 
ATOM     23  H   UNL     1      35.310 -25.141 -11.794  0.00  0.00    -0.078 HD
ATOM     24  H   UNL     1      37.764 -22.896 -15.404  0.00  0.00    +0.166 HD
ATOM     25  H   UNL     1      30.809 -23.226 -15.726  0.00  0.00    +0.178 HD
ENDROOT
TORSDOF 0
ENDMDL
MODEL 5
REMARK VINA RESULT:      -9.2      2.353      3.895
REMARK  Name = 135565554
REMARK  0 active torsions:
REMARK  status: ('A' for Active; 'I' for Inactive)
REMARK                            x       y       z     vdW  Elec       q    Type
REMARK                         _______ _______ _______ _____ _____    ______ ____
ROOT
ATOM      1  F   UNL     1      33.585 -20.574 -20.069  0.00  0.00    -0.204 F 
ATOM      2  O   UNL     1      29.957 -21.978 -16.997  0.00  0.00    -0.268 OA
ATOM      3  N   UNL     1      34.870 -24.346 -12.967  0.00  0.00    +0.397 N 
ATOM      4  N   UNL     1      35.651 -22.963 -16.363  0.00  0.00    -0.358 N 
ATOM      5  N   UNL     1      31.564 -23.794 -14.360  0.00  0.00    -0.185 NA
ATOM      6  N   UNL     1      30.777 -23.137 -15.242  0.00  0.00    -0.203 N 
ATOM      7  C   UNL     1      35.784 -24.235 -14.136  0.00  0.00    -0.007 C 
ATOM      8  C   UNL     1      36.927 -23.409 -13.540  0.00  0.00    -0.016 C 
ATOM      9  C   UNL     1      35.081 -23.542 -15.264  0.00  0.00    +0.017 A 
ATOM     10  C   UNL     1      34.930 -23.088 -12.212  0.00  0.00    -0.076 C 
ATOM     11  C   UNL     1      36.242 -22.422 -12.605  0.00  0.00    -0.024 C 
ATOM     12  C   UNL     1      33.494 -24.773 -13.271  0.00  0.00    -0.028 C 
ATOM     13  C   UNL     1      33.718 -23.392 -15.367  0.00  0.00    +0.024 A 
ATOM     14  C   UNL     1      36.280 -25.615 -14.582  0.00  0.00    -0.015 C 
ATOM     15  C   UNL     1      32.847 -23.926 -14.372  0.00  0.00    +0.056 C 
ATOM     16  C   UNL     1      33.439 -22.666 -16.524  0.00  0.00    +0.022 A 
ATOM     17  C   UNL     1      34.662 -22.408 -17.149  0.00  0.00    +0.059 A 
ATOM     18  C   UNL     1      32.251 -22.212 -17.084  0.00  0.00    +0.059 C 
ATOM     19  C   UNL     1      34.751 -21.703 -18.353  0.00  0.00    +0.047 C 
ATOM     20  C   UNL     1      30.952 -22.446 -16.430  0.00  0.00    +0.265 C 
ATOM     21  C   UNL     1      32.326 -21.501 -18.296  0.00  0.00    +0.034 C 
ATOM     22  C   UNL     1      33.554 -21.256 -18.916  0.00  0.00    +0.142 C 
ATOM     23  H   UNL     1      35.208 -25.118 -12.392  0.00  0.00    -0.078 HD
ATOM     24  H   UNL     1      36.615 -22.943 -16.561  0.00  0.00    +0.166 HD
ATOM     25  H   UNL     1      29.832 -23.154 -14.968  0.00  0.00    +0.178 HD
ENDROOT
TORSDOF 0
ENDMDL
MODEL 6
REMARK VINA RESULT:      -9.1     15.778     18.170
REMARK  Name = 135565554
REMARK  0 active torsions:
REMARK  status: ('A' for Active; 'I' for Inactive)
REMARK                            x       y       z     vdW  Elec       q    Type
REMARK                         _______ _______ _______ _____ _____    ______ ____
ROOT
ATOM      1  F   UNL     1      31.618 -12.776 -22.303  0.00  0.00    -0.204 F 
ATOM      2  O   UNL     1      31.005  -9.899 -18.313  0.00  0.00    -0.268 OA
ATOM      3  N   UNL     1      31.894  -4.638 -22.499  0.00  0.00    +0.397 N 
ATOM      4  N   UNL     1      32.310  -8.164 -23.705  0.00  0.00    -0.358 N 
ATOM      5  N   UNL     1      31.617  -6.549 -19.425  0.00  0.00    -0.185 NA
ATOM      6  N   UNL     1      31.337  -7.724 -18.817  0.00  0.00    -0.203 N 
ATOM      7  C   UNL     1      32.441  -5.608 -23.486  0.00  0.00    -0.007 C 
ATOM      8  C   UNL     1      31.587  -5.291 -24.716  0.00  0.00    -0.016 C 
ATOM      9  C   UNL     1      32.251  -7.006 -22.980  0.00  0.00    +0.017 A 
ATOM     10  C   UNL     1      30.449  -4.509 -22.729  0.00  0.00    -0.076 C 
ATOM     11  C   UNL     1      30.207  -4.980 -24.157  0.00  0.00    -0.024 C 
ATOM     12  C   UNL     1      32.234  -4.901 -21.090  0.00  0.00    -0.028 C 
ATOM     13  C   UNL     1      31.993  -7.341 -21.672  0.00  0.00    +0.024 A 
ATOM     14  C   UNL     1      33.924  -5.336 -23.763  0.00  0.00    -0.015 C 
ATOM     15  C   UNL     1      31.903  -6.335 -20.665  0.00  0.00    +0.056 C 
ATOM     16  C   UNL     1      31.841  -8.724 -21.591  0.00  0.00    +0.022 A 
ATOM     17  C   UNL     1      32.051  -9.235 -22.875  0.00  0.00    +0.059 A 
ATOM     18  C   UNL     1      31.542  -9.576 -20.533  0.00  0.00    +0.059 C 
ATOM     19  C   UNL     1      31.985 -10.602 -23.155  0.00  0.00    +0.047 C 
ATOM     20  C   UNL     1      31.287  -9.060 -19.177  0.00  0.00    +0.265 C 
ATOM     21  C   UNL     1      31.473 -10.956 -20.802  0.00  0.00    +0.034 C 
ATOM     22  C   UNL     1      31.694 -11.455 -22.088  0.00  0.00    +0.142 C 
ATOM     23  H   UNL     1      32.358  -3.744 -22.665  0.00  0.00    -0.078 HD
ATOM     24  H   UNL     1      32.505  -8.223 -24.669  0.00  0.00    +0.166 HD
ATOM     25  H   UNL     1      31.108  -7.595 -17.868  0.00  0.00    +0.178 HD
ENDROOT
TORSDOF 0
ENDMDL
