MODEL 1
REMARK VINA RESULT:     -12.9      0.000      0.000
REMARK  Name = 12148754
REMARK  5 active torsions:
REMARK  status: ('A' for Active; 'I' for Inactive)
REMARK    1  A    between atoms: N_3  and  C_20
REMARK    2  A    between atoms: C_6  and  C_12
REMARK    3  A    between atoms: C_19  and  N_25
REMARK    4  A    between atoms: C_26  and  C_32
REMARK    5  A    between atoms: C_32  and  O_33
REMARK                            x       y       z     vdW  Elec       q    Type
REMARK                         _______ _______ _______ _____ _____    ______ ____
ROOT
ATOM      1  O   UNL     1      31.190 -22.264 -17.848  0.00  0.00    -0.252 OA
ATOM      2  O   UNL     1      31.941 -20.851 -20.122  0.00  0.00    -0.270 OA
ATOM      3  N   UNL     1      32.950 -22.511 -16.306  0.00  0.00    -0.267 N 
ATOM      4  N   UNL     1      33.289 -21.371 -18.295  0.00  0.00    -0.236 N 
ATOM      5  C   UNL     1      32.355 -22.074 -17.506  0.00  0.00    +0.310 C 
ATOM      6  C   UNL     1      33.024 -20.809 -19.543  0.00  0.00    +0.254 C 
ATOM      7  H   UNL     1      33.899 -22.275 -16.188  0.00  0.00    +0.156 HD
ATOM      8  H   UNL     1      34.200 -21.270 -17.936  0.00  0.00    +0.159 HD
ENDROOT
BRANCH   6  12
ATOM      9 CL   UNL     1      35.844 -21.316 -18.420  0.00  0.00    -0.082 Cl
ATOM     10  F   UNL     1      34.610 -17.700 -22.858  0.00  0.00    -0.202 F 
ATOM     11  F   UNL     1      37.188 -18.015 -22.004  0.00  0.00    -0.202 F 
ATOM     12  C   UNL     1      34.155 -20.084 -20.175  0.00  0.00    +0.067 C 
ATOM     13  C   UNL     1      35.450 -20.258 -19.727  0.00  0.00    +0.064 C 
ATOM     14  C   UNL     1      33.851 -19.233 -21.221  0.00  0.00    +0.037 C 
ATOM     15  C   UNL     1      36.481 -19.555 -20.349  0.00  0.00    +0.043 C 
ATOM     16  C   UNL     1      34.882 -18.531 -21.843  0.00  0.00    +0.168 C 
ATOM     17  C   UNL     1      36.198 -18.691 -21.408  0.00  0.00    +0.168 C 
ENDBRANCH   6  12
BRANCH   3  20
ATOM     18  F   UNL     1      29.036 -24.055 -14.050  0.00  0.00    -0.204 F 
ATOM     19  C   UNL     1      33.182 -23.900 -14.323  0.00  0.00    +0.062 C 
ATOM     20  C   UNL     1      32.367 -23.235 -15.262  0.00  0.00    +0.067 C 
ATOM     21  C   UNL     1      32.549 -24.617 -13.289  0.00  0.00    +0.018 C 
ATOM     22  C   UNL     1      30.976 -23.288 -15.171  0.00  0.00    +0.046 C 
ATOM     23  C   UNL     1      31.158 -24.670 -13.197  0.00  0.00    +0.031 C 
ATOM     24  C   UNL     1      30.372 -24.005 -14.139  0.00  0.00    +0.141 C 
BRANCH  19  25
ATOM     25  N   UNL     1      34.580 -23.859 -14.395  0.00  0.00    -0.307 N 
ATOM     26  C   UNL     1      37.479 -23.839 -14.534  0.00  0.00    +0.102 C 
ATOM     27  C   UNL     1      36.658 -22.557 -14.644  0.00  0.00    +0.033 C 
ATOM     28  C   UNL     1      36.658 -25.060 -14.941  0.00  0.00    +0.033 C 
ATOM     29  C   UNL     1      35.289 -22.650 -13.966  0.00  0.00    +0.091 C 
ATOM     30  C   UNL     1      35.303 -25.126 -14.237  0.00  0.00    +0.091 C 
BRANCH  26  32
ATOM     31  O   UNL     1      38.036 -23.162 -12.280  0.00  0.00    -0.250 OA
ATOM     32  C   UNL     1      38.040 -24.016 -13.155  0.00  0.00    +0.313 C 
BRANCH  32  33
ATOM     33  O   UNL     1      38.558 -25.259 -13.004  0.00  0.00    -0.480 OA
ATOM     34  H   UNL     1      39.191 -25.426 -12.334  0.00  0.00    +0.295 HD
ENDBRANCH  32  33
ENDBRANCH  26  32
ENDBRANCH  19  25
ENDBRANCH   3  20
TORSDOF 5
ENDMDL
MODEL 2
REMARK VINA RESULT:     -12.2      1.395      1.752
REMARK  Name = 12148754
REMARK  5 active torsions:
REMARK  status: ('A' for Active; 'I' for Inactive)
REMARK    1  A    between atoms: N_3  and  C_20
REMARK    2  A    between atoms: C_6  and  C_12
REMARK    3  A    between atoms: C_19  and  N_25
REMARK    4  A    between atoms: C_26  and  C_32
REMARK    5  A    between atoms: C_32  and  O_33
REMARK                            x       y       z     vdW  Elec       q    Type
REMARK                         _______ _______ _______ _____ _____    ______ ____
ROOT
ATOM      1  O   UNL     1      33.280 -23.908 -17.829  0.00  0.00    -0.252 OA
ATOM      2  O   UNL     1      34.581 -22.742 -19.993  0.00  0.00    -0.270 OA
ATOM      3  N   UNL     1      32.265 -22.324 -16.415  0.00  0.00    -0.267 N 
ATOM      4  N   UNL     1      33.421 -21.637 -18.303  0.00  0.00    -0.236 N 
ATOM      5  C   UNL     1      33.009 -22.746 -17.535  0.00  0.00    +0.310 C 
ATOM      6  C   UNL     1      34.175 -21.706 -19.473  0.00  0.00    +0.254 C 
ATOM      7  H   UNL     1      32.140 -21.351 -16.326  0.00  0.00    +0.156 HD
ATOM      8  H   UNL     1      33.155 -20.744 -17.987  0.00  0.00    +0.159 HD
ENDROOT
BRANCH   6  12
ATOM      9 CL   UNL     1      31.783 -20.114 -20.576  0.00  0.00    -0.082 Cl
ATOM     10  F   UNL     1      37.374 -18.401 -20.891  0.00  0.00    -0.202 F 
ATOM     11  F   UNL     1      35.386 -16.839 -21.934  0.00  0.00    -0.202 F 
ATOM     12  C   UNL     1      34.461 -20.406 -20.132  0.00  0.00    +0.067 C 
ATOM     13  C   UNL     1      33.440 -19.634 -20.652  0.00  0.00    +0.064 C 
ATOM     14  C   UNL     1      35.784 -20.013 -20.201  0.00  0.00    +0.037 C 
ATOM     15  C   UNL     1      33.755 -18.421 -21.264  0.00  0.00    +0.043 C 
ATOM     16  C   UNL     1      36.098 -18.801 -20.812  0.00  0.00    +0.168 C 
ATOM     17  C   UNL     1      35.084 -18.003 -21.344  0.00  0.00    +0.168 C 
ENDBRANCH   6  12
BRANCH   3  20
ATOM     18  F   UNL     1      28.355 -24.112 -14.341  0.00  0.00    -0.204 F 
ATOM     19  C   UNL     1      32.496 -23.768 -14.473  0.00  0.00    +0.062 C 
ATOM     20  C   UNL     1      31.683 -23.108 -15.416  0.00  0.00    +0.067 C 
ATOM     21  C   UNL     1      31.864 -24.547 -13.483  0.00  0.00    +0.018 C 
ATOM     22  C   UNL     1      30.293 -23.224 -15.372  0.00  0.00    +0.046 C 
ATOM     23  C   UNL     1      30.474 -24.663 -13.439  0.00  0.00    +0.031 C 
ATOM     24  C   UNL     1      29.689 -24.001 -14.384  0.00  0.00    +0.141 C 
BRANCH  19  25
ATOM     25  N   UNL     1      33.893 -23.664 -14.497  0.00  0.00    -0.307 N 
ATOM     26  C   UNL     1      36.791 -23.512 -14.529  0.00  0.00    +0.102 C 
ATOM     27  C   UNL     1      35.917 -22.301 -14.842  0.00  0.00    +0.033 C 
ATOM     28  C   UNL     1      36.046 -24.818 -14.797  0.00  0.00    +0.033 C 
ATOM     29  C   UNL     1      34.525 -22.374 -14.209  0.00  0.00    +0.091 C 
ATOM     30  C   UNL     1      34.666 -24.860 -14.142  0.00  0.00    +0.091 C 
BRANCH  26  32
ATOM     31  O   UNL     1      37.281 -22.491 -12.392  0.00  0.00    -0.250 OA
ATOM     32  C   UNL     1      37.298 -23.474 -13.118  0.00  0.00    +0.313 C 
BRANCH  32  33
ATOM     33  O   UNL     1      37.785 -24.685 -12.752  0.00  0.00    -0.480 OA
ATOM     34  H   UNL     1      37.427 -25.129 -12.009  0.00  0.00    +0.295 HD
ENDBRANCH  32  33
ENDBRANCH  26  32
ENDBRANCH  19  25
ENDBRANCH   3  20
TORSDOF 5
ENDMDL
MODEL 3
REMARK VINA RESULT:     -10.9      2.809      4.902
REMARK  Name = 12148754
REMARK  5 active torsions:
REMARK  status: ('A' for Active; 'I' for Inactive)
REMARK    1  A    between atoms: N_3  and  C_20
REMARK    2  A    between atoms: C_6  and  C_12
REMARK    3  A    between atoms: C_19  and  N_25
REMARK    4  A    between atoms: C_26  and  C_32
REMARK    5  A    between atoms: C_32  and  O_33
REMARK                            x       y       z     vdW  Elec       q    Type
REMARK                         _______ _______ _______ _____ _____    ______ ____
ROOT
ATOM      1  O   UNL     1      34.510 -23.767 -16.802  0.00  0.00    -0.252 OA
ATOM      2  O   UNL     1      34.296 -22.850 -19.419  0.00  0.00    -0.270 OA
ATOM      3  N   UNL     1      35.057 -22.058 -15.280  0.00  0.00    -0.267 N 
ATOM      4  N   UNL     1      34.810 -21.582 -17.535  0.00  0.00    -0.236 N 
ATOM      5  C   UNL     1      34.767 -22.592 -16.552  0.00  0.00    +0.310 C 
ATOM      6  C   UNL     1      34.574 -21.775 -18.895  0.00  0.00    +0.254 C 
ATOM      7  H   UNL     1      35.243 -21.092 -15.254  0.00  0.00    +0.156 HD
ATOM      8  H   UNL     1      35.025 -20.669 -17.237  0.00  0.00    +0.159 HD
ENDROOT
BRANCH   6  12
ATOM      9 CL   UNL     1      31.914 -20.579 -19.878  0.00  0.00    -0.082 Cl
ATOM     10  F   UNL     1      37.213 -18.403 -21.094  0.00  0.00    -0.202 F 
ATOM     11  F   UNL     1      34.962 -17.191 -22.065  0.00  0.00    -0.202 F 
ATOM     12  C   UNL     1      34.640 -20.554 -19.739  0.00  0.00    +0.067 C 
ATOM     13  C   UNL     1      33.490 -19.959 -20.218  0.00  0.00    +0.064 C 
ATOM     14  C   UNL     1      35.896 -20.050 -20.019  0.00  0.00    +0.037 C 
ATOM     15  C   UNL     1      33.599 -18.815 -21.009  0.00  0.00    +0.043 C 
ATOM     16  C   UNL     1      36.006 -18.907 -20.809  0.00  0.00    +0.168 C 
ATOM     17  C   UNL     1      34.857 -18.288 -21.304  0.00  0.00    +0.168 C 
ENDBRANCH   6  12
BRANCH   3  20
ATOM     18  F   UNL     1      37.628 -23.736 -11.624  0.00  0.00    -0.204 F 
ATOM     19  C   UNL     1      33.932 -23.202 -13.453  0.00  0.00    +0.062 C 
ATOM     20  C   UNL     1      35.115 -22.724 -14.053  0.00  0.00    +0.067 C 
ATOM     21  C   UNL     1      34.040 -23.867 -12.216  0.00  0.00    +0.018 C 
ATOM     22  C   UNL     1      36.354 -22.903 -13.439  0.00  0.00    +0.046 C 
ATOM     23  C   UNL     1      35.280 -24.046 -11.601  0.00  0.00    +0.031 C 
ATOM     24  C   UNL     1      36.437 -23.564 -12.214  0.00  0.00    +0.141 C 
BRANCH  19  25
ATOM     25  N   UNL     1      32.677 -23.035 -14.052  0.00  0.00    -0.307 N 
ATOM     26  C   UNL     1      30.052 -22.670 -15.236  0.00  0.00    +0.102 C 
ATOM     27  C   UNL     1      31.240 -23.178 -16.050  0.00  0.00    +0.033 C 
ATOM     28  C   UNL     1      30.514 -21.861 -14.026  0.00  0.00    +0.033 C 
ATOM     29  C   UNL     1      32.309 -23.869 -15.200  0.00  0.00    +0.091 C 
ATOM     30  C   UNL     1      31.573 -22.586 -13.196  0.00  0.00    +0.091 C 
BRANCH  26  32
ATOM     31  O   UNL     1      29.334 -24.496 -13.822  0.00  0.00    -0.250 OA
ATOM     32  C   UNL     1      29.158 -23.795 -14.808  0.00  0.00    +0.313 C 
BRANCH  32  33
ATOM     33  O   UNL     1      28.120 -23.936 -15.668  0.00  0.00    -0.480 OA
ATOM     34  H   UNL     1      28.200 -23.640 -16.552  0.00  0.00    +0.295 HD
ENDBRANCH  32  33
ENDBRANCH  26  32
ENDBRANCH  19  25
ENDBRANCH   3  20
TORSDOF 5
ENDMDL
MODEL 4
REMARK VINA RESULT:     -10.4      2.665      4.862
REMARK  Name = 12148754
REMARK  5 active torsions:
REMARK  status: ('A' for Active; 'I' for Inactive)
REMARK    1  A    between atoms: N_3  and  C_20
REMARK    2  A    between atoms: C_6  and  C_12
REMARK    3  A    between atoms: C_19  and  N_25
REMARK    4  A    between atoms: C_26  and  C_32
REMARK    5  A    between atoms: C_32  and  O_33
REMARK                            x       y       z     vdW  Elec       q    Type
REMARK                         _______ _______ _______ _____ _____    ______ ____
ROOT
ATOM      1  O   UNL     1      34.004 -24.368 -15.877  0.00  0.00    -0.252 OA
ATOM      2  O   UNL     1      33.337 -23.706 -18.495  0.00  0.00    -0.270 OA
ATOM      3  N   UNL     1      34.934 -22.562 -14.690  0.00  0.00    -0.267 N 
ATOM      4  N   UNL     1      34.281 -22.298 -16.898  0.00  0.00    -0.236 N 
ATOM      5  C   UNL     1      34.372 -23.197 -15.816  0.00  0.00    +0.310 C 
ATOM      6  C   UNL     1      33.774 -22.608 -18.159  0.00  0.00    +0.254 C 
ATOM      7  H   UNL     1      35.177 -21.615 -14.810  0.00  0.00    +0.156 HD
ATOM      8  H   UNL     1      34.602 -21.379 -16.752  0.00  0.00    +0.159 HD
ENDROOT
BRANCH   6  12
ATOM      9 CL   UNL     1      36.444 -21.226 -18.818  0.00  0.00    -0.082 Cl
ATOM     10  F   UNL     1      31.262 -19.764 -21.120  0.00  0.00    -0.202 F 
ATOM     11  F   UNL     1      33.527 -18.410 -21.836  0.00  0.00    -0.202 F 
ATOM     12  C   UNL     1      33.745 -21.489 -19.135  0.00  0.00    +0.067 C 
ATOM     13  C   UNL     1      34.902 -20.819 -19.481  0.00  0.00    +0.064 C 
ATOM     14  C   UNL     1      32.516 -21.153 -19.671  0.00  0.00    +0.037 C 
ATOM     15  C   UNL     1      34.828 -19.772 -20.400  0.00  0.00    +0.043 C 
ATOM     16  C   UNL     1      32.442 -20.107 -20.589  0.00  0.00    +0.168 C 
ATOM     17  C   UNL     1      33.598 -19.416 -20.955  0.00  0.00    +0.168 C 
ENDBRANCH   6  12
BRANCH   3  20
ATOM     18  F   UNL     1      38.062 -23.830 -11.314  0.00  0.00    -0.204 F 
ATOM     19  C   UNL     1      34.124 -23.537 -12.615  0.00  0.00    +0.062 C 
ATOM     20  C   UNL     1      35.191 -23.102 -13.427  0.00  0.00    +0.067 C 
ATOM     21  C   UNL     1      34.432 -24.075 -11.351  0.00  0.00    +0.018 C 
ATOM     22  C   UNL     1      36.512 -23.200 -12.990  0.00  0.00    +0.046 C 
ATOM     23  C   UNL     1      35.753 -24.173 -10.913  0.00  0.00    +0.031 C 
ATOM     24  C   UNL     1      36.793 -23.735 -11.734  0.00  0.00    +0.141 C 
BRANCH  19  25
ATOM     25  N   UNL     1      32.790 -23.450 -13.035  0.00  0.00    -0.307 N 
ATOM     26  C   UNL     1      30.026 -23.336 -13.912  0.00  0.00    +0.102 C 
ATOM     27  C   UNL     1      30.821 -22.074 -13.586  0.00  0.00    +0.033 C 
ATOM     28  C   UNL     1      30.595 -24.553 -13.187  0.00  0.00    +0.033 C 
ATOM     29  C   UNL     1      32.333 -22.250 -13.742  0.00  0.00    +0.091 C 
ATOM     30  C   UNL     1      32.105 -24.703 -13.373  0.00  0.00    +0.091 C 
BRANCH  26  32
ATOM     31  O   UNL     1      30.464 -22.861 -16.242  0.00  0.00    -0.250 OA
ATOM     32  C   UNL     1      29.967 -23.582 -15.390  0.00  0.00    +0.313 C 
BRANCH  32  33
ATOM     33  O   UNL     1      29.282 -24.721 -15.659  0.00  0.00    -0.480 OA
ATOM     34  H   UNL     1      28.893 -24.846 -16.502  0.00  0.00    +0.295 HD
ENDBRANCH  32  33
ENDBRANCH  26  32
ENDBRANCH  19  25
ENDBRANCH   3  20
TORSDOF 5
ENDMDL
