MODEL 1
REMARK VINA RESULT:     -13.2      0.000      0.000
REMARK  Name = 11963557
REMARK  4 active torsions:
REMARK  status: ('A' for Active; 'I' for Inactive)
REMARK    1  A    between atoms: C_11  and  C_19
REMARK    2  A    between atoms: C_13  and  C_30
REMARK    3  A    between atoms: C_16  and  N_22
REMARK    4  A    between atoms: C_30  and  C_32
REMARK                            x       y       z     vdW  Elec       q    Type
REMARK                         _______ _______ _______ _____ _____    ______ ____
ROOT
ATOM      1  O   UNL     1      35.283 -21.784 -20.671  0.00  0.00    -0.270 OA
ATOM      2  O   UNL     1      33.920 -13.493 -20.373  0.00  0.00    -0.274 OA
ATOM      3  N   UNL     1      34.204 -15.312 -21.682  0.00  0.00    -0.233 N 
ATOM      4  N   UNL     1      34.878 -19.589 -19.948  0.00  0.00    -0.264 N 
ATOM      5  N   UNL     1      34.701 -18.495 -23.275  0.00  0.00    -0.273 N 
ATOM      6  N   UNL     1      34.863 -19.519 -22.370  0.00  0.00    -0.157 NA
ATOM      7  C   UNL     1      34.545 -17.477 -21.233  0.00  0.00    +0.067 A 
ATOM      8  C   UNL     1      34.522 -17.343 -22.600  0.00  0.00    +0.093 A 
ATOM      9  C   UNL     1      34.768 -18.895 -21.146  0.00  0.00    +0.157 A 
ATOM     10  C   UNL     1      34.357 -16.269 -20.637  0.00  0.00    +0.076 C 
ATOM     11  C   UNL     1      35.122 -20.956 -19.760  0.00  0.00    +0.251 C 
ATOM     12  C   UNL     1      34.318 -16.048 -22.878  0.00  0.00    +0.091 C 
ATOM     13  C   UNL     1      33.990 -13.944 -21.506  0.00  0.00    +0.238 C 
ATOM     14  H   UNL     1      34.772 -19.054 -19.128  0.00  0.00    +0.157 HD
ATOM     15  H   UNL     1      34.713 -18.589 -24.255  0.00  0.00    +0.189 HD
ENDROOT
BRANCH  11  19
ATOM     16  C   UNL     1      35.392 -22.260 -15.701  0.00  0.00    +0.048 C 
ATOM     17  C   UNL     1      34.248 -22.534 -16.477  0.00  0.00    +0.015 C 
ATOM     18  C   UNL     1      36.445 -21.541 -16.304  0.00  0.00    +0.015 C 
ATOM     19  C   UNL     1      35.214 -21.399 -18.379  0.00  0.00    +0.054 C 
ATOM     20  C   UNL     1      34.161 -22.108 -17.803  0.00  0.00    +0.006 C 
ATOM     21  C   UNL     1      36.356 -21.115 -17.630  0.00  0.00    +0.006 C 
BRANCH  16  22
ATOM     22  N   UNL     1      35.481 -22.687 -14.372  0.00  0.00    -0.312 N 
ATOM     23  N   UNL     1      35.732 -23.794 -11.751  0.00  0.00    +0.388 N 
ATOM     24  C   UNL     1      34.534 -23.710 -13.911  0.00  0.00    +0.068 C 
ATOM     25  C   UNL     1      36.778 -22.670 -13.688  0.00  0.00    +0.068 C 
ATOM     26  C   UNL     1      34.413 -23.680 -12.386  0.00  0.00    -0.056 C 
ATOM     27  C   UNL     1      36.585 -22.675 -12.170  0.00  0.00    -0.056 C 
ATOM     28  C   UNL     1      35.599 -23.819 -10.294  0.00  0.00    -0.101 C 
ATOM     29  H   UNL     1      36.166 -24.668 -12.046  0.00  0.00    -0.080 HD
ENDBRANCH  16  22
ENDBRANCH  11  19
BRANCH  13  30
ATOM     30  C   UNL     1      33.862 -13.143 -22.765  0.00  0.00    +0.119 C 
BRANCH  30  32
ATOM     31  S   UNL     1      33.029 -10.565 -23.293  0.00  0.00    -0.090 S 
ATOM     32  C   UNL     1      32.825 -12.083 -22.548  0.00  0.00    +0.016 C 
ATOM     33  C   UNL     1      31.686 -12.167 -21.799  0.00  0.00    +0.003 C 
ATOM     34  C   UNL     1      30.948 -10.948 -21.834  0.00  0.00    +0.007 C 
ATOM     35  C   UNL     1      31.566  -9.992 -22.611  0.00  0.00    +0.035 C 
ENDBRANCH  30  32
ENDBRANCH  13  30
TORSDOF 4
ENDMDL
MODEL 2
REMARK VINA RESULT:     -12.1      2.015      3.482
REMARK  Name = 11963557
REMARK  4 active torsions:
REMARK  status: ('A' for Active; 'I' for Inactive)
REMARK    1  A    between atoms: C_11  and  C_19
REMARK    2  A    between atoms: C_13  and  C_30
REMARK    3  A    between atoms: C_16  and  N_22
REMARK    4  A    between atoms: C_30  and  C_32
REMARK                            x       y       z     vdW  Elec       q    Type
REMARK                         _______ _______ _______ _____ _____    ______ ____
ROOT
ATOM      1  O   UNL     1      34.809 -19.067 -23.492  0.00  0.00    -0.270 OA
ATOM      2  O   UNL     1      32.095 -11.467 -21.134  0.00  0.00    -0.274 OA
ATOM      3  N   UNL     1      32.785 -12.779 -22.840  0.00  0.00    -0.233 N 
ATOM      4  N   UNL     1      33.991 -17.246 -22.259  0.00  0.00    -0.264 N 
ATOM      5  N   UNL     1      33.930 -15.274 -25.158  0.00  0.00    -0.273 N 
ATOM      6  N   UNL     1      34.177 -16.484 -24.551  0.00  0.00    -0.157 NA
ATOM      7  C   UNL     1      33.433 -14.917 -22.954  0.00  0.00    +0.067 A 
ATOM      8  C   UNL     1      33.508 -14.399 -24.225  0.00  0.00    +0.093 A 
ATOM      9  C   UNL     1      33.875 -16.257 -23.227  0.00  0.00    +0.157 A 
ATOM     10  C   UNL     1      32.999 -13.967 -22.083  0.00  0.00    +0.076 C 
ATOM     11  C   UNL     1      34.437 -18.565 -22.419  0.00  0.00    +0.251 C 
ATOM     12  C   UNL     1      33.121 -13.117 -24.165  0.00  0.00    +0.091 C 
ATOM     13  C   UNL     1      32.336 -11.559 -22.329  0.00  0.00    +0.238 C 
ATOM     14  H   UNL     1      33.728 -16.988 -21.346  0.00  0.00    +0.157 HD
ATOM     15  H   UNL     1      34.044 -15.080 -26.116  0.00  0.00    +0.189 HD
ENDROOT
BRANCH  11  19
ATOM     16  C   UNL     1      34.558 -20.935 -18.867  0.00  0.00    +0.048 C 
ATOM     17  C   UNL     1      33.332 -20.615 -19.485  0.00  0.00    +0.015 C 
ATOM     18  C   UNL     1      35.742 -20.448 -19.455  0.00  0.00    +0.015 C 
ATOM     19  C   UNL     1      34.478 -19.370 -21.210  0.00  0.00    +0.054 C 
ATOM     20  C   UNL     1      33.293 -19.841 -20.645  0.00  0.00    +0.006 C 
ATOM     21  C   UNL     1      35.702 -19.674 -20.615  0.00  0.00    +0.006 C 
BRANCH  16  22
ATOM     22  N   UNL     1      34.598 -21.711 -17.704  0.00  0.00    -0.312 N 
ATOM     23  N   UNL     1      34.744 -23.499 -15.481  0.00  0.00    +0.388 N 
ATOM     24  C   UNL     1      33.610 -22.788 -17.559  0.00  0.00    +0.068 C 
ATOM     25  C   UNL     1      35.875 -21.926 -17.017  0.00  0.00    +0.068 C 
ATOM     26  C   UNL     1      33.447 -23.172 -16.086  0.00  0.00    -0.056 C 
ATOM     27  C   UNL     1      35.639 -22.338 -15.561  0.00  0.00    -0.056 C 
ATOM     28  C   UNL     1      34.570 -23.917 -14.089  0.00  0.00    -0.101 C 
ATOM     29  H   UNL     1      35.162 -24.274 -15.995  0.00  0.00    -0.080 HD
ENDBRANCH  16  22
ENDBRANCH  11  19
BRANCH  13  30
ATOM     30  C   UNL     1      32.190 -10.454 -23.329  0.00  0.00    +0.119 C 
BRANCH  30  32
ATOM     31  S   UNL     1      33.119  -7.876 -22.999  0.00  0.00    -0.090 S 
ATOM     32  C   UNL     1      32.076  -9.157 -22.586  0.00  0.00    +0.016 C 
ATOM     33  C   UNL     1      31.212  -8.844 -21.576  0.00  0.00    +0.003 C 
ATOM     34  C   UNL     1      31.406  -7.507 -21.120  0.00  0.00    +0.007 C 
ATOM     35  C   UNL     1      32.413  -6.867 -21.809  0.00  0.00    +0.035 C 
ENDBRANCH  30  32
ENDBRANCH  13  30
TORSDOF 4
ENDMDL
MODEL 3
REMARK VINA RESULT:     -11.2      4.298     11.454
REMARK  Name = 11963557
REMARK  4 active torsions:
REMARK  status: ('A' for Active; 'I' for Inactive)
REMARK    1  A    between atoms: C_11  and  C_19
REMARK    2  A    between atoms: C_13  and  C_30
REMARK    3  A    between atoms: C_16  and  N_22
REMARK    4  A    between atoms: C_30  and  C_32
REMARK                            x       y       z     vdW  Elec       q    Type
REMARK                         _______ _______ _______ _____ _____    ______ ____
ROOT
ATOM      1  O   UNL     1      36.101 -18.023 -21.994  0.00  0.00    -0.270 OA
ATOM      2  O   UNL     1      30.463 -21.735 -16.981  0.00  0.00    -0.274 OA
ATOM      3  N   UNL     1      32.428 -21.929 -18.080  0.00  0.00    -0.233 N 
ATOM      4  N   UNL     1      34.250 -18.470 -20.621  0.00  0.00    -0.264 N 
ATOM      5  N   UNL     1      35.460 -21.701 -19.995  0.00  0.00    -0.273 N 
ATOM      6  N   UNL     1      35.611 -20.474 -20.600  0.00  0.00    -0.157 NA
ATOM      7  C   UNL     1      33.599 -20.527 -19.370  0.00  0.00    +0.067 A 
ATOM      8  C   UNL     1      34.305 -21.704 -19.302  0.00  0.00    +0.093 A 
ATOM      9  C   UNL     1      34.487 -19.777 -20.217  0.00  0.00    +0.157 A 
ATOM     10  C   UNL     1      32.454 -20.621 -18.644  0.00  0.00    +0.076 C 
ATOM     11  C   UNL     1      35.035 -17.670 -21.463  0.00  0.00    +0.251 C 
ATOM     12  C   UNL     1      33.609 -22.551 -18.530  0.00  0.00    +0.091 C 
ATOM     13  C   UNL     1      31.420 -22.442 -17.261  0.00  0.00    +0.238 C 
ATOM     14  H   UNL     1      33.429 -18.053 -20.274  0.00  0.00    +0.157 HD
ATOM     15  H   UNL     1      36.092 -22.453 -20.059  0.00  0.00    +0.189 HD
ENDROOT
BRANCH  11  19
ATOM     16  C   UNL     1      33.514 -13.758 -22.259  0.00  0.00    +0.048 C 
ATOM     17  C   UNL     1      33.895 -14.617 -23.310  0.00  0.00    +0.015 C 
ATOM     18  C   UNL     1      33.651 -14.228 -20.938  0.00  0.00    +0.015 C 
ATOM     19  C   UNL     1      34.518 -16.339 -21.734  0.00  0.00    +0.054 C 
ATOM     20  C   UNL     1      34.391 -15.894 -23.049  0.00  0.00    +0.006 C 
ATOM     21  C   UNL     1      34.148 -15.506 -20.678  0.00  0.00    +0.006 C 
BRANCH  16  22
ATOM     22  N   UNL     1      33.016 -12.477 -22.520  0.00  0.00    -0.312 N 
ATOM     23  N   UNL     1      31.886  -9.962 -23.264  0.00  0.00    +0.388 N 
ATOM     24  C   UNL     1      33.495 -11.781 -23.721  0.00  0.00    +0.068 C 
ATOM     25  C   UNL     1      31.666 -12.118 -22.075  0.00  0.00    +0.068 C 
ATOM     26  C   UNL     1      33.284 -10.272 -23.586  0.00  0.00    -0.056 C 
ATOM     27  C   UNL     1      31.514 -10.597 -21.994  0.00  0.00    -0.056 C 
ATOM     28  C   UNL     1      31.684  -8.514 -23.192  0.00  0.00    -0.101 C 
ATOM     29  H   UNL     1      31.288 -10.329 -24.004  0.00  0.00    -0.080 HD
ENDBRANCH  16  22
ENDBRANCH  11  19
BRANCH  13  30
ATOM     30  C   UNL     1      31.622 -23.850 -16.793  0.00  0.00    +0.119 C 
BRANCH  30  32
ATOM     31  S   UNL     1      31.665 -23.424 -14.066  0.00  0.00    -0.090 S 
ATOM     32  C   UNL     1      30.920 -24.016 -15.478  0.00  0.00    +0.016 C 
ATOM     33  C   UNL     1      29.711 -24.606 -15.243  0.00  0.00    +0.003 C 
ATOM     34  C   UNL     1      29.376 -24.573 -13.858  0.00  0.00    +0.007 C 
ATOM     35  C   UNL     1      30.352 -23.958 -13.105  0.00  0.00    +0.035 C 
ENDBRANCH  30  32
ENDBRANCH  13  30
TORSDOF 4
ENDMDL
MODEL 4
REMARK VINA RESULT:     -10.8      6.818     11.911
REMARK  Name = 11963557
REMARK  4 active torsions:
REMARK  status: ('A' for Active; 'I' for Inactive)
REMARK    1  A    between atoms: C_11  and  C_19
REMARK    2  A    between atoms: C_13  and  C_30
REMARK    3  A    between atoms: C_16  and  N_22
REMARK    4  A    between atoms: C_30  and  C_32
REMARK                            x       y       z     vdW  Elec       q    Type
REMARK                         _______ _______ _______ _____ _____    ______ ____
ROOT
ATOM      1  O   UNL     1      30.309  -9.282 -21.588  0.00  0.00    -0.270 OA
ATOM      2  O   UNL     1      35.204  -4.449 -26.423  0.00  0.00    -0.274 OA
ATOM      3  N   UNL     1      33.370  -4.558 -25.108  0.00  0.00    -0.233 N 
ATOM      4  N   UNL     1      32.032  -8.478 -22.964  0.00  0.00    -0.264 N 
ATOM      5  N   UNL     1      30.593  -5.280 -22.944  0.00  0.00    -0.273 N 
ATOM      6  N   UNL     1      30.575  -6.592 -22.528  0.00  0.00    -0.157 NA
ATOM      7  C   UNL     1      32.428  -6.216 -23.939  0.00  0.00    +0.067 A 
ATOM      8  C   UNL     1      31.658  -5.094 -23.748  0.00  0.00    +0.093 A 
ATOM      9  C   UNL     1      31.683  -7.145 -23.132  0.00  0.00    +0.157 A 
ATOM     10  C   UNL     1      33.476  -5.936 -24.758  0.00  0.00    +0.076 C 
ATOM     11  C   UNL     1      31.359  -9.462 -22.227  0.00  0.00    +0.251 C 
ATOM     12  C   UNL     1      32.217  -4.095 -24.445  0.00  0.00    +0.091 C 
ATOM     13  C   UNL     1      34.249  -3.861 -25.938  0.00  0.00    +0.238 C 
ATOM     14  H   UNL     1      32.854  -8.769 -23.420  0.00  0.00    +0.157 HD
ATOM     15  H   UNL     1      29.935  -4.591 -22.696  0.00  0.00    +0.189 HD
ENDROOT
BRANCH  11  19
ATOM     16  C   UNL     1      33.098 -13.363 -22.310  0.00  0.00    +0.048 C 
ATOM     17  C   UNL     1      33.419 -12.404 -23.292  0.00  0.00    +0.015 C 
ATOM     18  C   UNL     1      32.185 -12.996 -21.300  0.00  0.00    +0.015 C 
ATOM     19  C   UNL     1      31.950 -10.789 -22.255  0.00  0.00    +0.054 C 
ATOM     20  C   UNL     1      32.851 -11.130 -23.264  0.00  0.00    +0.006 C 
ATOM     21  C   UNL     1      31.617 -11.722 -21.274  0.00  0.00    +0.006 C 
BRANCH  16  22
ATOM     22  N   UNL     1      33.667 -14.640 -22.336  0.00  0.00    -0.312 N 
ATOM     23  N   UNL     1      35.058 -17.133 -22.441  0.00  0.00    +0.388 N 
ATOM     24  C   UNL     1      34.213 -15.127 -23.610  0.00  0.00    +0.068 C 
ATOM     25  C   UNL     1      34.300 -15.179 -21.128  0.00  0.00    +0.068 C 
ATOM     26  C   UNL     1      34.304 -16.654 -23.606  0.00  0.00    -0.056 C 
ATOM     27  C   UNL     1      34.391 -16.706 -21.205  0.00  0.00    -0.056 C 
ATOM     28  C   UNL     1      35.186 -18.590 -22.476  0.00  0.00    -0.101 C 
ATOM     29  H   UNL     1      35.994 -16.731 -22.465  0.00  0.00    -0.080 HD
ENDBRANCH  16  22
ENDBRANCH  11  19
BRANCH  13  30
ATOM     30  C   UNL     1      33.923  -2.415 -26.156  0.00  0.00    +0.119 C 
BRANCH  30  32
ATOM     31  S   UNL     1      34.254  -2.087 -28.876  0.00  0.00    -0.090 S 
ATOM     32  C   UNL     1      33.271  -2.275 -27.498  0.00  0.00    +0.016 C 
ATOM     33  C   UNL     1      31.935  -2.275 -27.785  0.00  0.00    +0.003 C 
ATOM     34  C   UNL     1      31.702  -2.117 -29.182  0.00  0.00    +0.007 C 
ATOM     35  C   UNL     1      32.878  -2.003 -29.892  0.00  0.00    +0.035 C 
ENDBRANCH  30  32
ENDBRANCH  13  30
TORSDOF 4
ENDMDL
MODEL 5
REMARK VINA RESULT:     -10.3      4.248     12.140
REMARK  Name = 11963557
REMARK  4 active torsions:
REMARK  status: ('A' for Active; 'I' for Inactive)
REMARK    1  A    between atoms: C_11  and  C_19
REMARK    2  A    between atoms: C_13  and  C_30
REMARK    3  A    between atoms: C_16  and  N_22
REMARK    4  A    between atoms: C_30  and  C_32
REMARK                            x       y       z     vdW  Elec       q    Type
REMARK                         _______ _______ _______ _____ _____    ______ ____
ROOT
ATOM      1  O   UNL     1      32.337 -14.074 -25.424  0.00  0.00    -0.270 OA
ATOM      2  O   UNL     1      36.223 -18.362 -19.323  0.00  0.00    -0.274 OA
ATOM      3  N   UNL     1      35.274 -18.437 -21.373  0.00  0.00    -0.233 N 
ATOM      4  N   UNL     1      33.465 -14.678 -23.456  0.00  0.00    -0.264 N 
ATOM      5  N   UNL     1      33.677 -17.998 -24.562  0.00  0.00    -0.273 N 
ATOM      6  N   UNL     1      33.286 -16.698 -24.782  0.00  0.00    -0.157 NA
ATOM      7  C   UNL     1      34.321 -16.885 -22.670  0.00  0.00    +0.067 A 
ATOM      8  C   UNL     1      34.263 -18.077 -23.351  0.00  0.00    +0.093 A 
ATOM      9  C   UNL     1      33.678 -16.038 -23.638  0.00  0.00    +0.157 A 
ATOM     10  C   UNL     1      34.926 -17.059 -21.465  0.00  0.00    +0.076 C 
ATOM     11  C   UNL     1      32.827 -13.779 -24.321  0.00  0.00    +0.251 C 
ATOM     12  C   UNL     1      34.833 -19.014 -22.580  0.00  0.00    +0.091 C 
ATOM     13  C   UNL     1      35.917 -19.043 -20.291  0.00  0.00    +0.238 C 
ATOM     14  H   UNL     1      33.803 -14.297 -22.613  0.00  0.00    +0.157 HD
ATOM     15  H   UNL     1      33.549 -18.749 -25.186  0.00  0.00    +0.189 HD
ENDROOT
BRANCH  11  19
ATOM     16  C   UNL     1      32.526  -9.750 -22.932  0.00  0.00    +0.048 C 
ATOM     17  C   UNL     1      33.481 -10.114 -23.903  0.00  0.00    +0.015 C 
ATOM     18  C   UNL     1      31.674 -10.756 -22.432  0.00  0.00    +0.015 C 
ATOM     19  C   UNL     1      32.725 -12.409 -23.848  0.00  0.00    +0.054 C 
ATOM     20  C   UNL     1      33.578 -11.430 -24.356  0.00  0.00    +0.006 C 
ATOM     21  C   UNL     1      31.773 -12.071 -22.885  0.00  0.00    +0.006 C 
BRANCH  16  22
ATOM     22  N   UNL     1      32.427  -8.431 -22.477  0.00  0.00    -0.312 N 
ATOM     23  N   UNL     1      32.378  -5.808 -21.348  0.00  0.00    +0.388 N 
ATOM     24  C   UNL     1      31.741  -8.191 -21.200  0.00  0.00    +0.068 C 
ATOM     25  C   UNL     1      33.468  -7.460 -22.830  0.00  0.00    +0.068 C 
ATOM     26  C   UNL     1      31.268  -6.739 -21.111  0.00  0.00    -0.056 C 
ATOM     27  C   UNL     1      32.939  -6.030 -22.686  0.00  0.00    -0.056 C 
ATOM     28  C   UNL     1      31.926  -4.423 -21.207  0.00  0.00    -0.101 C 
ATOM     29  H   UNL     1      33.105  -5.977 -20.654  0.00  0.00    -0.080 HD
ENDBRANCH  16  22
ENDBRANCH  11  19
BRANCH  13  30
ATOM     30  C   UNL     1      36.174 -20.511 -20.432  0.00  0.00    +0.119 C 
BRANCH  30  32
ATOM     31  S   UNL     1      36.009 -21.403 -17.825  0.00  0.00    -0.090 S 
ATOM     32  C   UNL     1      35.369 -21.234 -19.395  0.00  0.00    +0.016 C 
ATOM     33  C   UNL     1      34.137 -21.805 -19.539  0.00  0.00    +0.003 C 
ATOM     34  C   UNL     1      33.694 -22.403 -18.323  0.00  0.00    +0.007 C 
ATOM     35  C   UNL     1      34.616 -22.257 -17.310  0.00  0.00    +0.035 C 
ENDBRANCH  30  32
ENDBRANCH  13  30
TORSDOF 4
ENDMDL
