MODEL 1
REMARK VINA RESULT:     -11.6      0.000      0.000
REMARK  Name = 91469
REMARK  3 active torsions:
REMARK  status: ('A' for Active; 'I' for Inactive)
REMARK    1  A    between atoms: C_2  and  C_11
REMARK    2  A    between atoms: C_10  and  O_19
REMARK    3  A    between atoms: C_16  and  O_17
REMARK                            x       y       z     vdW  Elec       q    Type
REMARK                         _______ _______ _______ _____ _____    ______ ____
ROOT
ATOM      1  O   UNL     1      36.148 -19.783 -19.934  0.00  0.00    -0.475 OA
ATOM      2  C   UNL     1      34.625 -19.117 -21.739  0.00  0.00    +0.070 C 
ATOM      3  C   UNL     1      33.394 -19.556 -20.938  0.00  0.00    +0.038 C 
ATOM      4  C   UNL     1      35.719 -18.689 -20.755  0.00  0.00    +0.210 C 
ATOM      5  C   UNL     1      33.801 -20.449 -19.797  0.00  0.00    +0.012 C 
ATOM      6  C   UNL     1      35.132 -20.503 -19.360  0.00  0.00    +0.138 C 
ATOM      7  C   UNL     1      32.836 -21.225 -19.142  0.00  0.00    +0.002 C 
ATOM      8  C   UNL     1      35.494 -21.350 -18.309  0.00  0.00    +0.073 C 
ATOM      9  C   UNL     1      33.198 -22.058 -18.083  0.00  0.00    +0.036 C 
ATOM     10  C   UNL     1      34.526 -22.123 -17.670  0.00  0.00    +0.137 C 
ENDROOT
BRANCH   2  11
ATOM     11  C   UNL     1      34.286 -18.046 -22.756  0.00  0.00    -0.018 C 
ATOM     12  C   UNL     1      34.677 -16.726 -22.532  0.00  0.00    -0.001 C 
ATOM     13  C   UNL     1      33.585 -18.380 -23.913  0.00  0.00    -0.001 C 
ATOM     14  C   UNL     1      34.366 -15.740 -23.467  0.00  0.00    +0.036 C 
ATOM     15  C   UNL     1      33.273 -17.393 -24.848  0.00  0.00    +0.036 C 
ATOM     16  C   UNL     1      33.663 -16.073 -24.625  0.00  0.00    +0.134 C 
BRANCH  16  17
ATOM     17  O   UNL     1      33.358 -15.109 -25.538  0.00  0.00    -0.506 OA
ATOM     18  H   UNL     1      33.194 -15.344 -26.430  0.00  0.00    +0.292 HD
ENDBRANCH  16  17
ENDBRANCH   2  11
BRANCH  10  19
ATOM     19  O   UNL     1      34.881 -22.942 -16.641  0.00  0.00    -0.505 OA
ATOM     20  H   UNL     1      35.757 -23.269 -16.583  0.00  0.00    +0.292 HD
ENDBRANCH  10  19
TORSDOF 3
ENDMDL
MODEL 2
REMARK VINA RESULT:     -10.7      1.967      7.224
REMARK  Name = 91469
REMARK  3 active torsions:
REMARK  status: ('A' for Active; 'I' for Inactive)
REMARK    1  A    between atoms: C_2  and  C_11
REMARK    2  A    between atoms: C_10  and  O_19
REMARK    3  A    between atoms: C_16  and  O_17
REMARK                            x       y       z     vdW  Elec       q    Type
REMARK                         _______ _______ _______ _____ _____    ______ ____
ROOT
ATOM      1  O   UNL     1      34.380 -16.460 -23.691  0.00  0.00    -0.475 OA
ATOM      2  C   UNL     1      34.837 -17.569 -21.550  0.00  0.00    +0.070 C 
ATOM      3  C   UNL     1      34.205 -16.420 -20.756  0.00  0.00    +0.038 C 
ATOM      4  C   UNL     1      34.154 -17.647 -22.920  0.00  0.00    +0.210 C 
ATOM      5  C   UNL     1      34.066 -15.197 -21.622  0.00  0.00    +0.012 C 
ATOM      6  C   UNL     1      34.149 -15.287 -23.019  0.00  0.00    +0.138 C 
ATOM      7  C   UNL     1      33.826 -13.950 -21.032  0.00  0.00    +0.002 C 
ATOM      8  C   UNL     1      34.032 -14.138 -23.806  0.00  0.00    +0.073 C 
ATOM      9  C   UNL     1      33.695 -12.807 -21.821  0.00  0.00    +0.036 C 
ATOM     10  C   UNL     1      33.802 -12.901 -23.207  0.00  0.00    +0.137 C 
ENDROOT
BRANCH   2  11
ATOM     11  C   UNL     1      34.792 -18.877 -20.786  0.00  0.00    -0.018 C 
ATOM     12  C   UNL     1      33.575 -19.533 -20.603  0.00  0.00    -0.001 C 
ATOM     13  C   UNL     1      35.965 -19.422 -20.268  0.00  0.00    -0.001 C 
ATOM     14  C   UNL     1      33.533 -20.737 -19.901  0.00  0.00    +0.036 C 
ATOM     15  C   UNL     1      35.922 -20.626 -19.565  0.00  0.00    +0.036 C 
ATOM     16  C   UNL     1      34.706 -21.284 -19.381  0.00  0.00    +0.134 C 
BRANCH  16  17
ATOM     17  O   UNL     1      34.664 -22.458 -18.694  0.00  0.00    -0.506 OA
ATOM     18  H   UNL     1      35.461 -22.881 -18.440  0.00  0.00    +0.292 HD
ENDBRANCH  16  17
ENDBRANCH   2  11
BRANCH  10  19
ATOM     19  O   UNL     1      33.682 -11.784 -23.977  0.00  0.00    -0.505 OA
ATOM     20  H   UNL     1      34.211 -11.684 -24.743  0.00  0.00    +0.292 HD
ENDBRANCH  10  19
TORSDOF 3
ENDMDL
MODEL 3
REMARK VINA RESULT:     -10.6      1.312      7.101
REMARK  Name = 91469
REMARK  3 active torsions:
REMARK  status: ('A' for Active; 'I' for Inactive)
REMARK    1  A    between atoms: C_2  and  C_11
REMARK    2  A    between atoms: C_10  and  O_19
REMARK    3  A    between atoms: C_16  and  O_17
REMARK                            x       y       z     vdW  Elec       q    Type
REMARK                         _______ _______ _______ _____ _____    ______ ____
ROOT
ATOM      1  O   UNL     1      33.632 -18.706 -23.801  0.00  0.00    -0.475 OA
ATOM      2  C   UNL     1      34.703 -19.064 -21.623  0.00  0.00    +0.070 C 
ATOM      3  C   UNL     1      34.562 -17.584 -21.248  0.00  0.00    +0.038 C 
ATOM      4  C   UNL     1      33.558 -19.437 -22.571  0.00  0.00    +0.210 C 
ATOM      5  C   UNL     1      34.270 -16.758 -22.471  0.00  0.00    +0.012 C 
ATOM      6  C   UNL     1      33.818 -17.355 -23.656  0.00  0.00    +0.138 C 
ATOM      7  C   UNL     1      34.426 -15.366 -22.425  0.00  0.00    +0.002 C 
ATOM      8  C   UNL     1      33.566 -16.574 -24.787  0.00  0.00    +0.073 C 
ATOM      9  C   UNL     1      34.160 -14.587 -23.552  0.00  0.00    +0.036 C 
ATOM     10  C   UNL     1      33.734 -15.191 -24.732  0.00  0.00    +0.137 C 
ENDROOT
BRANCH   2  11
ATOM     11  C   UNL     1      34.778 -19.953 -20.398  0.00  0.00    -0.018 C 
ATOM     12  C   UNL     1      36.004 -20.173 -19.772  0.00  0.00    -0.001 C 
ATOM     13  C   UNL     1      33.622 -20.549 -19.899  0.00  0.00    -0.001 C 
ATOM     14  C   UNL     1      36.074 -20.991 -18.645  0.00  0.00    +0.036 C 
ATOM     15  C   UNL     1      33.691 -21.369 -18.772  0.00  0.00    +0.036 C 
ATOM     16  C   UNL     1      34.917 -21.589 -18.145  0.00  0.00    +0.134 C 
BRANCH  16  17
ATOM     17  O   UNL     1      34.985 -22.389 -17.045  0.00  0.00    -0.506 OA
ATOM     18  H   UNL     1      35.113 -22.009 -16.198  0.00  0.00    +0.292 HD
ENDBRANCH  16  17
ENDBRANCH   2  11
BRANCH  10  19
ATOM     19  O   UNL     1      33.480 -14.431 -25.833  0.00  0.00    -0.505 OA
ATOM     20  H   UNL     1      32.624 -14.077 -25.971  0.00  0.00    +0.292 HD
ENDBRANCH  10  19
TORSDOF 3
ENDMDL
MODEL 4
REMARK VINA RESULT:     -10.3      4.635      8.862
REMARK  Name = 91469
REMARK  3 active torsions:
REMARK  status: ('A' for Active; 'I' for Inactive)
REMARK    1  A    between atoms: C_2  and  C_11
REMARK    2  A    between atoms: C_10  and  O_19
REMARK    3  A    between atoms: C_16  and  O_17
REMARK                            x       y       z     vdW  Elec       q    Type
REMARK                         _______ _______ _______ _____ _____    ______ ____
ROOT
ATOM      1  O   UNL     1      33.146 -11.460 -23.764  0.00  0.00    -0.475 OA
ATOM      2  C   UNL     1      33.680 -13.406 -22.368  0.00  0.00    +0.070 C 
ATOM      3  C   UNL     1      32.538 -13.092 -21.395  0.00  0.00    +0.038 C 
ATOM      4  C   UNL     1      33.293 -12.886 -23.757  0.00  0.00    +0.210 C 
ATOM      5  C   UNL     1      32.060 -11.679 -21.585  0.00  0.00    +0.012 C 
ATOM      6  C   UNL     1      32.376 -10.958 -22.745  0.00  0.00    +0.138 C 
ATOM      7  C   UNL     1      31.265 -11.074 -20.602  0.00  0.00    +0.002 C 
ATOM      8  C   UNL     1      31.936  -9.640 -22.898  0.00  0.00    +0.073 C 
ATOM      9  C   UNL     1      30.814  -9.764 -20.764  0.00  0.00    +0.036 C 
ATOM     10  C   UNL     1      31.153  -9.047 -21.909  0.00  0.00    +0.137 C 
ENDROOT
BRANCH   2  11
ATOM     11  C   UNL     1      34.040 -14.878 -22.363  0.00  0.00    -0.018 C 
ATOM     12  C   UNL     1      34.087 -15.587 -23.563  0.00  0.00    -0.001 C 
ATOM     13  C   UNL     1      34.323 -15.522 -21.160  0.00  0.00    -0.001 C 
ATOM     14  C   UNL     1      34.418 -16.941 -23.559  0.00  0.00    +0.036 C 
ATOM     15  C   UNL     1      34.653 -16.877 -21.156  0.00  0.00    +0.036 C 
ATOM     16  C   UNL     1      34.701 -17.587 -22.356  0.00  0.00    +0.134 C 
BRANCH  16  17
ATOM     17  O   UNL     1      35.023 -18.910 -22.352  0.00  0.00    -0.506 OA
ATOM     18  H   UNL     1      34.546 -19.506 -21.809  0.00  0.00    +0.292 HD
ENDBRANCH  16  17
ENDBRANCH   2  11
BRANCH  10  19
ATOM     19  O   UNL     1      30.719  -7.765 -22.064  0.00  0.00    -0.505 OA
ATOM     20  H   UNL     1      29.803  -7.573 -22.031  0.00  0.00    +0.292 HD
ENDBRANCH  10  19
TORSDOF 3
ENDMDL
MODEL 5
REMARK VINA RESULT:     -10.3      3.260      5.845
REMARK  Name = 91469
REMARK  3 active torsions:
REMARK  status: ('A' for Active; 'I' for Inactive)
REMARK    1  A    between atoms: C_2  and  C_11
REMARK    2  A    between atoms: C_10  and  O_19
REMARK    3  A    between atoms: C_16  and  O_17
REMARK                            x       y       z     vdW  Elec       q    Type
REMARK                         _______ _______ _______ _____ _____    ______ ____
ROOT
ATOM      1  O   UNL     1      33.596 -23.507 -15.297  0.00  0.00    -0.475 OA
ATOM      2  C   UNL     1      33.093 -22.494 -17.475  0.00  0.00    +0.070 C 
ATOM      3  C   UNL     1      31.676 -22.112 -17.033  0.00  0.00    +0.038 C 
ATOM      4  C   UNL     1      34.001 -22.507 -16.240  0.00  0.00    +0.210 C 
ATOM      5  C   UNL     1      31.288 -22.875 -15.795  0.00  0.00    +0.012 C 
ATOM      6  C   UNL     1      32.256 -23.510 -15.004  0.00  0.00    +0.138 C 
ATOM      7  C   UNL     1      29.943 -22.936 -15.408  0.00  0.00    +0.002 C 
ATOM      8  C   UNL     1      31.875 -24.226 -13.866  0.00  0.00    +0.073 C 
ATOM      9  C   UNL     1      29.568 -23.640 -14.263  0.00  0.00    +0.036 C 
ATOM     10  C   UNL     1      30.533 -24.288 -13.496  0.00  0.00    +0.137 C 
ENDROOT
BRANCH   2  11
ATOM     11  C   UNL     1      33.604 -21.593 -18.581  0.00  0.00    -0.018 C 
ATOM     12  C   UNL     1      32.702 -20.855 -19.348  0.00  0.00    -0.001 C 
ATOM     13  C   UNL     1      34.971 -21.501 -18.830  0.00  0.00    -0.001 C 
ATOM     14  C   UNL     1      33.171 -20.025 -20.366  0.00  0.00    +0.036 C 
ATOM     15  C   UNL     1      35.440 -20.671 -19.849  0.00  0.00    +0.036 C 
ATOM     16  C   UNL     1      34.540 -19.933 -20.616  0.00  0.00    +0.134 C 
BRANCH  16  17
ATOM     17  O   UNL     1      34.997 -19.123 -21.611  0.00  0.00    -0.506 OA
ATOM     18  H   UNL     1      34.489 -18.385 -21.884  0.00  0.00    +0.292 HD
ENDBRANCH  16  17
ENDBRANCH   2  11
BRANCH  10  19
ATOM     19  O   UNL     1      30.166 -24.981 -12.383  0.00  0.00    -0.505 OA
ATOM     20  H   UNL     1      30.602 -25.781 -12.164  0.00  0.00    +0.292 HD
ENDBRANCH  10  19
TORSDOF 3
ENDMDL
MODEL 6
REMARK VINA RESULT:     -10.2      4.691      8.910
REMARK  Name = 91469
REMARK  3 active torsions:
REMARK  status: ('A' for Active; 'I' for Inactive)
REMARK    1  A    between atoms: C_2  and  C_11
REMARK    2  A    between atoms: C_10  and  O_19
REMARK    3  A    between atoms: C_16  and  O_17
REMARK                            x       y       z     vdW  Elec       q    Type
REMARK                         _______ _______ _______ _____ _____    ______ ____
ROOT
ATOM      1  O   UNL     1      33.341 -11.265 -23.745  0.00  0.00    -0.475 OA
ATOM      2  C   UNL     1      33.648 -13.295 -22.401  0.00  0.00    +0.070 C 
ATOM      3  C   UNL     1      32.356 -13.038 -21.616  0.00  0.00    +0.038 C 
ATOM      4  C   UNL     1      33.496 -12.688 -23.800  0.00  0.00    +0.210 C 
ATOM      5  C   UNL     1      31.905 -11.614 -21.798  0.00  0.00    +0.012 C 
ATOM      6  C   UNL     1      32.407 -10.824 -22.842  0.00  0.00    +0.138 C 
ATOM      7  C   UNL     1      30.952 -11.069 -20.928  0.00  0.00    +0.002 C 
ATOM      8  C   UNL     1      31.988  -9.499 -22.986  0.00  0.00    +0.073 C 
ATOM      9  C   UNL     1      30.525  -9.749 -21.084  0.00  0.00    +0.036 C 
ATOM     10  C   UNL     1      31.046  -8.965 -22.110  0.00  0.00    +0.137 C 
ENDROOT
BRANCH   2  11
ATOM     11  C   UNL     1      34.013 -14.765 -22.424  0.00  0.00    -0.018 C 
ATOM     12  C   UNL     1      34.308 -15.427 -21.233  0.00  0.00    -0.001 C 
ATOM     13  C   UNL     1      34.053 -15.454 -23.635  0.00  0.00    -0.001 C 
ATOM     14  C   UNL     1      34.643 -16.780 -21.253  0.00  0.00    +0.036 C 
ATOM     15  C   UNL     1      34.390 -16.807 -23.655  0.00  0.00    +0.036 C 
ATOM     16  C   UNL     1      34.684 -17.471 -22.464  0.00  0.00    +0.134 C 
BRANCH  16  17
ATOM     17  O   UNL     1      35.013 -18.792 -22.484  0.00  0.00    -0.506 OA
ATOM     18  H   UNL     1      35.783 -19.076 -22.937  0.00  0.00    +0.292 HD
ENDBRANCH  16  17
ENDBRANCH   2  11
BRANCH  10  19
ATOM     19  O   UNL     1      30.634  -7.675 -22.257  0.00  0.00    -0.505 OA
ATOM     20  H   UNL     1      30.050  -7.446 -22.953  0.00  0.00    +0.292 HD
ENDBRANCH  10  19
TORSDOF 3
ENDMDL
MODEL 7
REMARK VINA RESULT:     -10.0      4.865      7.407
REMARK  Name = 91469
REMARK  3 active torsions:
REMARK  status: ('A' for Active; 'I' for Inactive)
REMARK    1  A    between atoms: C_2  and  C_11
REMARK    2  A    between atoms: C_10  and  O_19
REMARK    3  A    between atoms: C_16  and  O_17
REMARK                            x       y       z     vdW  Elec       q    Type
REMARK                         _______ _______ _______ _____ _____    ______ ____
ROOT
ATOM      1  O   UNL     1      33.270 -14.188 -24.161  0.00  0.00    -0.475 OA
ATOM      2  C   UNL     1      32.334 -12.637 -22.505  0.00  0.00    +0.070 C 
ATOM      3  C   UNL     1      33.171 -13.250 -21.376  0.00  0.00    +0.038 C 
ATOM      4  C   UNL     1      33.098 -12.806 -23.823  0.00  0.00    +0.210 C 
ATOM      5  C   UNL     1      33.712 -14.592 -21.791  0.00  0.00    +0.012 C 
ATOM      6  C   UNL     1      33.740 -14.973 -23.140  0.00  0.00    +0.138 C 
ATOM      7  C   UNL     1      34.218 -15.468 -20.823  0.00  0.00    +0.002 C 
ATOM      8  C   UNL     1      34.231 -16.230 -23.506  0.00  0.00    +0.073 C 
ATOM      9  C   UNL     1      34.721 -16.716 -21.193  0.00  0.00    +0.036 C 
ATOM     10  C   UNL     1      34.725 -17.097 -22.533  0.00  0.00    +0.137 C 
ENDROOT
BRANCH   2  11
ATOM     11  C   UNL     1      31.958 -11.199 -22.213  0.00  0.00    -0.018 C 
ATOM     12  C   UNL     1      32.297 -10.194 -23.119  0.00  0.00    -0.001 C 
ATOM     13  C   UNL     1      31.273 -10.882 -21.042  0.00  0.00    -0.001 C 
ATOM     14  C   UNL     1      31.950  -8.870 -22.852  0.00  0.00    +0.036 C 
ATOM     15  C   UNL     1      30.927  -9.557 -20.774  0.00  0.00    +0.036 C 
ATOM     16  C   UNL     1      31.266  -8.551 -21.679  0.00  0.00    +0.134 C 
BRANCH  16  17
ATOM     17  O   UNL     1      30.929  -7.258 -21.418  0.00  0.00    -0.506 OA
ATOM     18  H   UNL     1      31.465  -6.560 -21.739  0.00  0.00    +0.292 HD
ENDBRANCH  16  17
ENDBRANCH   2  11
BRANCH  10  19
ATOM     19  O   UNL     1      35.210 -18.318 -22.893  0.00  0.00    -0.505 OA
ATOM     20  H   UNL     1      36.056 -18.388 -23.288  0.00  0.00    +0.292 HD
ENDBRANCH  10  19
TORSDOF 3
ENDMDL
MODEL 8
REMARK VINA RESULT:      -9.7      4.361      6.588
REMARK  Name = 91469
REMARK  3 active torsions:
REMARK  status: ('A' for Active; 'I' for Inactive)
REMARK    1  A    between atoms: C_2  and  C_11
REMARK    2  A    between atoms: C_10  and  O_19
REMARK    3  A    between atoms: C_16  and  O_17
REMARK                            x       y       z     vdW  Elec       q    Type
REMARK                         _______ _______ _______ _____ _____    ______ ____
ROOT
ATOM      1  O   UNL     1      34.187 -14.781 -20.529  0.00  0.00    -0.475 OA
ATOM      2  C   UNL     1      33.494 -13.012 -22.082  0.00  0.00    +0.070 C 
ATOM      3  C   UNL     1      33.220 -14.025 -23.201  0.00  0.00    +0.038 C 
ATOM      4  C   UNL     1      33.264 -13.703 -20.734  0.00  0.00    +0.210 C 
ATOM      5  C   UNL     1      33.872 -15.344 -22.886  0.00  0.00    +0.012 C 
ATOM      6  C   UNL     1      34.302 -15.646 -21.586  0.00  0.00    +0.138 C 
ATOM      7  C   UNL     1      34.035 -16.299 -23.898  0.00  0.00    +0.002 C 
ATOM      8  C   UNL     1      34.919 -16.871 -21.316  0.00  0.00    +0.073 C 
ATOM      9  C   UNL     1      34.638 -17.526 -23.621  0.00  0.00    +0.036 C 
ATOM     10  C   UNL     1      35.083 -17.810 -22.332  0.00  0.00    +0.137 C 
ENDROOT
BRANCH   2  11
ATOM     11  C   UNL     1      32.676 -11.748 -22.251  0.00  0.00    -0.018 C 
ATOM     12  C   UNL     1      31.558 -11.530 -21.447  0.00  0.00    -0.001 C 
ATOM     13  C   UNL     1      33.042 -10.804 -23.209  0.00  0.00    -0.001 C 
ATOM     14  C   UNL     1      30.805 -10.367 -21.601  0.00  0.00    +0.036 C 
ATOM     15  C   UNL     1      32.288  -9.641 -23.364  0.00  0.00    +0.036 C 
ATOM     16  C   UNL     1      31.170  -9.422 -22.560  0.00  0.00    +0.134 C 
BRANCH  16  17
ATOM     17  O   UNL     1      30.434  -8.286 -22.712  0.00  0.00    -0.506 OA
ATOM     18  H   UNL     1      29.699  -8.279 -23.293  0.00  0.00    +0.292 HD
ENDBRANCH  16  17
ENDBRANCH   2  11
BRANCH  10  19
ATOM     19  O   UNL     1      35.678 -19.005 -22.064  0.00  0.00    -0.505 OA
ATOM     20  H   UNL     1      36.374 -19.052 -21.438  0.00  0.00    +0.292 HD
ENDBRANCH  10  19
TORSDOF 3
ENDMDL
MODEL 9
REMARK VINA RESULT:      -9.6      2.469      4.434
REMARK  Name = 91469
REMARK  3 active torsions:
REMARK  status: ('A' for Active; 'I' for Inactive)
REMARK    1  A    between atoms: C_2  and  C_11
REMARK    2  A    between atoms: C_10  and  O_19
REMARK    3  A    between atoms: C_16  and  O_17
REMARK                            x       y       z     vdW  Elec       q    Type
REMARK                         _______ _______ _______ _____ _____    ______ ____
ROOT
ATOM      1  O   UNL     1      36.868 -22.065 -16.261  0.00  0.00    -0.475 OA
ATOM      2  C   UNL     1      35.388 -21.629 -18.168  0.00  0.00    +0.070 C 
ATOM      3  C   UNL     1      34.139 -21.974 -17.349  0.00  0.00    +0.038 C 
ATOM      4  C   UNL     1      36.456 -21.080 -17.217  0.00  0.00    +0.210 C 
ATOM      5  C   UNL     1      34.520 -22.721 -16.100  0.00  0.00    +0.012 C 
ATOM      6  C   UNL     1      35.840 -22.715 -15.628  0.00  0.00    +0.138 C 
ATOM      7  C   UNL     1      33.541 -23.416 -15.378  0.00  0.00    +0.002 C 
ATOM      8  C   UNL     1      36.178 -23.426 -14.474  0.00  0.00    +0.073 C 
ATOM      9  C   UNL     1      33.879 -24.114 -14.218  0.00  0.00    +0.036 C 
ATOM     10  C   UNL     1      35.197 -24.122 -13.769  0.00  0.00    +0.137 C 
ENDROOT
BRANCH   2  11
ATOM     11  C   UNL     1      35.071 -20.690 -19.315  0.00  0.00    -0.018 C 
ATOM     12  C   UNL     1      36.089 -19.934 -19.896  0.00  0.00    -0.001 C 
ATOM     13  C   UNL     1      33.765 -20.583 -19.787  0.00  0.00    -0.001 C 
ATOM     14  C   UNL     1      35.798 -19.071 -20.952  0.00  0.00    +0.036 C 
ATOM     15  C   UNL     1      33.474 -19.718 -20.843  0.00  0.00    +0.036 C 
ATOM     16  C   UNL     1      34.491 -18.962 -21.425  0.00  0.00    +0.134 C 
BRANCH  16  17
ATOM     17  O   UNL     1      34.207 -18.118 -22.455  0.00  0.00    -0.506 OA
ATOM     18  H   UNL     1      34.483 -18.331 -23.324  0.00  0.00    +0.292 HD
ENDBRANCH  16  17
ENDBRANCH   2  11
BRANCH  10  19
ATOM     19  O   UNL     1      35.528 -24.809 -12.641  0.00  0.00    -0.505 OA
ATOM     20  H   UNL     1      35.994 -24.379 -11.950  0.00  0.00    +0.292 HD
ENDBRANCH  10  19
TORSDOF 3
ENDMDL
