MODEL 1
REMARK VINA RESULT:     -11.8      0.000      0.000
REMARK  Name = 25195461
REMARK  5 active torsions:
REMARK  status: ('A' for Active; 'I' for Inactive)
REMARK    1  A    between atoms: N_1  and  C_10
REMARK    2  A    between atoms: C_2  and  C_19
REMARK    3  A    between atoms: N_9  and  C_15
REMARK    4  A    between atoms: C_15  and  C_16
REMARK    5  A    between atoms: C_16  and  C_17
REMARK                            x       y       z     vdW  Elec       q    Type
REMARK                         _______ _______ _______ _____ _____    ______ ____
ROOT
ATOM      1  N   UNL     1      34.682 -17.959 -21.925  0.00  0.00    -0.307 N 
ATOM      2  C   UNL     1      35.096 -20.276 -20.257  0.00  0.00    +0.026 C 
ATOM      3  C   UNL     1      36.053 -19.070 -20.226  0.00  0.00    +0.026 C 
ATOM      4  C   UNL     1      33.688 -19.826 -20.689  0.00  0.00    +0.026 C 
ATOM      5  C   UNL     1      36.051 -18.331 -21.565  0.00  0.00    +0.091 C 
ATOM      6  C   UNL     1      33.735 -19.071 -22.018  0.00  0.00    +0.091 C 
ENDROOT
BRANCH   1  10
ATOM      7 CL   UNL     1      33.897 -17.316 -24.813  0.00  0.00    -0.076 Cl
ATOM      8  O   UNL     1      33.260 -14.455 -24.839  0.00  0.00    -0.269 OA
ATOM      9  N   UNL     1      33.654 -13.972 -22.594  0.00  0.00    -0.253 N 
ATOM     10  C   UNL     1      34.331 -16.677 -22.229  0.00  0.00    +0.064 C 
ATOM     11  C   UNL     1      33.964 -16.250 -23.453  0.00  0.00    +0.125 C 
ATOM     12  C   UNL     1      34.361 -15.713 -21.144  0.00  0.00    +0.032 C 
ATOM     13  C   UNL     1      33.591 -14.817 -23.710  0.00  0.00    +0.265 C 
ATOM     14  C   UNL     1      34.033 -14.434 -21.350  0.00  0.00    +0.069 C 
BRANCH   9  15
ATOM     15  C   UNL     1      33.307 -12.564 -22.753  0.00  0.00    +0.099 C 
BRANCH  15  16
ATOM     16  C   UNL     1      31.858 -12.276 -22.375  0.00  0.00    +0.022 C 
BRANCH  16  17
ATOM     17  C   UNL     1      31.680 -12.026 -20.876  0.00  0.00    +0.002 C 
ATOM     18  C   UNL     1      31.207 -10.607 -20.601  0.00  0.00    +0.000 C 
ENDBRANCH  16  17
ENDBRANCH  15  16
ENDBRANCH   9  15
ENDBRANCH   1  10
BRANCH   2  19
ATOM     19  C   UNL     1      35.075 -21.021 -18.936  0.00  0.00    -0.022 C 
ATOM     20  C   UNL     1      33.926 -21.704 -18.539  0.00  0.00    -0.004 C 
ATOM     21  C   UNL     1      36.206 -21.023 -18.118  0.00  0.00    -0.004 C 
ATOM     22  C   UNL     1      33.908 -22.390 -17.324  0.00  0.00    -0.000 C 
ATOM     23  C   UNL     1      36.187 -21.709 -16.904  0.00  0.00    -0.000 C 
ATOM     24  C   UNL     1      35.038 -22.393 -16.507  0.00  0.00    -0.000 C 
ENDBRANCH   2  19
TORSDOF 5
ENDMDL
MODEL 2
REMARK VINA RESULT:     -11.6      2.963      8.500
REMARK  Name = 25195461
REMARK  5 active torsions:
REMARK  status: ('A' for Active; 'I' for Inactive)
REMARK    1  A    between atoms: N_1  and  C_10
REMARK    2  A    between atoms: C_2  and  C_19
REMARK    3  A    between atoms: N_9  and  C_15
REMARK    4  A    between atoms: C_15  and  C_16
REMARK    5  A    between atoms: C_16  and  C_17
REMARK                            x       y       z     vdW  Elec       q    Type
REMARK                         _______ _______ _______ _____ _____    ______ ____
ROOT
ATOM      1  N   UNL     1      34.931 -19.367 -21.147  0.00  0.00    -0.307 N 
ATOM      2  C   UNL     1      34.769 -17.067 -22.880  0.00  0.00    +0.026 C 
ATOM      3  C   UNL     1      33.822 -18.271 -23.036  0.00  0.00    +0.026 C 
ATOM      4  C   UNL     1      35.249 -16.954 -21.420  0.00  0.00    +0.026 C 
ATOM      5  C   UNL     1      34.476 -19.556 -22.526  0.00  0.00    +0.091 C 
ATOM      6  C   UNL     1      35.873 -18.266 -20.944  0.00  0.00    +0.091 C 
ENDROOT
BRANCH   1  10
ATOM      7 CL   UNL     1      31.947 -19.898 -20.719  0.00  0.00    -0.076 Cl
ATOM      8  O   UNL     1      31.793 -21.745 -18.448  0.00  0.00    -0.269 OA
ATOM      9  N   UNL     1      34.068 -21.966 -18.001  0.00  0.00    -0.253 N 
ATOM     10  C   UNL     1      34.563 -20.207 -20.138  0.00  0.00    +0.064 C 
ATOM     11  C   UNL     1      33.291 -20.532 -19.834  0.00  0.00    +0.125 C 
ATOM     12  C   UNL     1      35.631 -20.785 -19.342  0.00  0.00    +0.032 C 
ATOM     13  C   UNL     1      32.964 -21.467 -18.703  0.00  0.00    +0.265 C 
ATOM     14  C   UNL     1      35.362 -21.618 -18.332  0.00  0.00    +0.069 C 
BRANCH   9  15
ATOM     15  C   UNL     1      33.843 -22.882 -16.888  0.00  0.00    +0.099 C 
BRANCH  15  16
ATOM     16  C   UNL     1      34.502 -22.403 -15.599  0.00  0.00    +0.022 C 
BRANCH  16  17
ATOM     17  C   UNL     1      35.622 -23.335 -15.130  0.00  0.00    +0.002 C 
ATOM     18  C   UNL     1      36.982 -22.659 -15.220  0.00  0.00    +0.000 C 
ENDBRANCH  16  17
ENDBRANCH  15  16
ENDBRANCH   9  15
ENDBRANCH   1  10
BRANCH   2  19
ATOM     19  C   UNL     1      34.139 -15.778 -23.373  0.00  0.00    -0.022 C 
ATOM     20  C   UNL     1      34.079 -14.666 -22.534  0.00  0.00    -0.004 C 
ATOM     21  C   UNL     1      33.621 -15.705 -24.666  0.00  0.00    -0.004 C 
ATOM     22  C   UNL     1      33.500 -13.480 -22.988  0.00  0.00    -0.000 C 
ATOM     23  C   UNL     1      33.043 -14.520 -25.120  0.00  0.00    -0.000 C 
ATOM     24  C   UNL     1      32.982 -13.407 -24.281  0.00  0.00    -0.000 C 
ENDBRANCH   2  19
TORSDOF 5
ENDMDL
MODEL 3
REMARK VINA RESULT:     -11.2      2.647      9.475
REMARK  Name = 25195461
REMARK  5 active torsions:
REMARK  status: ('A' for Active; 'I' for Inactive)
REMARK    1  A    between atoms: N_1  and  C_10
REMARK    2  A    between atoms: C_2  and  C_19
REMARK    3  A    between atoms: N_9  and  C_15
REMARK    4  A    between atoms: C_15  and  C_16
REMARK    5  A    between atoms: C_16  and  C_17
REMARK                            x       y       z     vdW  Elec       q    Type
REMARK                         _______ _______ _______ _____ _____    ______ ____
ROOT
ATOM      1  N   UNL     1      32.660 -12.925 -23.219  0.00  0.00    -0.307 N 
ATOM      2  C   UNL     1      32.062 -10.121 -22.899  0.00  0.00    +0.026 C 
ATOM      3  C   UNL     1      31.573 -11.177 -21.891  0.00  0.00    +0.026 C 
ATOM      4  C   UNL     1      33.350 -10.604 -23.592  0.00  0.00    +0.026 C 
ATOM      5  C   UNL     1      31.411 -12.543 -22.559  0.00  0.00    +0.091 C 
ATOM      6  C   UNL     1      33.150 -11.982 -24.225  0.00  0.00    +0.091 C 
ENDROOT
BRANCH   1  10
ATOM      7 CL   UNL     1      33.490 -13.548 -20.339  0.00  0.00    -0.076 Cl
ATOM      8  O   UNL     1      34.756 -16.190 -20.437  0.00  0.00    -0.269 OA
ATOM      9  N   UNL     1      34.544 -16.613 -22.718  0.00  0.00    -0.253 N 
ATOM     10  C   UNL     1      33.283 -14.113 -22.969  0.00  0.00    +0.064 C 
ATOM     11  C   UNL     1      33.702 -14.518 -21.754  0.00  0.00    +0.125 C 
ATOM     12  C   UNL     1      33.502 -14.991 -24.103  0.00  0.00    +0.032 C 
ATOM     13  C   UNL     1      34.383 -15.845 -21.558  0.00  0.00    +0.265 C 
ATOM     14  C   UNL     1      34.105 -16.174 -23.951  0.00  0.00    +0.069 C 
BRANCH   9  15
ATOM     15  C   UNL     1      35.194 -17.915 -22.619  0.00  0.00    +0.099 C 
BRANCH  15  16
ATOM     16  C   UNL     1      34.220 -19.025 -22.242  0.00  0.00    +0.022 C 
BRANCH  16  17
ATOM     17  C   UNL     1      34.500 -19.608 -20.855  0.00  0.00    +0.002 C 
ATOM     18  C   UNL     1      33.224 -20.102 -20.191  0.00  0.00    +0.000 C 
ENDBRANCH  16  17
ENDBRANCH  15  16
ENDBRANCH   9  15
ENDBRANCH   1  10
BRANCH   2  19
ATOM     19  C   UNL     1      32.237  -8.758 -22.257  0.00  0.00    -0.022 C 
ATOM     20  C   UNL     1      31.560  -8.450 -21.078  0.00  0.00    -0.004 C 
ATOM     21  C   UNL     1      33.077  -7.813 -22.846  0.00  0.00    -0.004 C 
ATOM     22  C   UNL     1      31.721  -7.197 -20.487  0.00  0.00    -0.000 C 
ATOM     23  C   UNL     1      33.239  -6.560 -22.255  0.00  0.00    -0.000 C 
ATOM     24  C   UNL     1      32.562  -6.252 -21.075  0.00  0.00    -0.000 C 
ENDBRANCH   2  19
TORSDOF 5
ENDMDL
MODEL 4
REMARK VINA RESULT:     -10.8      2.381      9.481
REMARK  Name = 25195461
REMARK  5 active torsions:
REMARK  status: ('A' for Active; 'I' for Inactive)
REMARK    1  A    between atoms: N_1  and  C_10
REMARK    2  A    between atoms: C_2  and  C_19
REMARK    3  A    between atoms: N_9  and  C_15
REMARK    4  A    between atoms: C_15  and  C_16
REMARK    5  A    between atoms: C_16  and  C_17
REMARK                            x       y       z     vdW  Elec       q    Type
REMARK                         _______ _______ _______ _____ _____    ______ ____
ROOT
ATOM      1  N   UNL     1      32.295 -12.328 -22.932  0.00  0.00    -0.307 N 
ATOM      2  C   UNL     1      31.616  -9.632 -22.165  0.00  0.00    +0.026 C 
ATOM      3  C   UNL     1      31.323 -10.835 -21.251  0.00  0.00    +0.026 C 
ATOM      4  C   UNL     1      32.817  -9.939 -23.081  0.00  0.00    +0.026 C 
ATOM      5  C   UNL     1      31.133 -12.114 -22.069  0.00  0.00    +0.091 C 
ATOM      6  C   UNL     1      32.596 -11.237 -23.859  0.00  0.00    +0.091 C 
ENDROOT
BRANCH   1  10
ATOM      7 CL   UNL     1      32.760 -13.752 -25.602  0.00  0.00    -0.076 Cl
ATOM      8  O   UNL     1      34.308 -16.155 -24.955  0.00  0.00    -0.269 OA
ATOM      9  N   UNL     1      34.478 -15.872 -22.649  0.00  0.00    -0.253 N 
ATOM     10  C   UNL     1      33.002 -13.495 -22.927  0.00  0.00    +0.064 C 
ATOM     11  C   UNL     1      33.282 -14.227 -24.023  0.00  0.00    +0.125 C 
ATOM     12  C   UNL     1      33.478 -13.970 -21.641  0.00  0.00    +0.032 C 
ATOM     13  C   UNL     1      34.067 -15.506 -23.937  0.00  0.00    +0.265 C 
ATOM     14  C   UNL     1      34.177 -15.104 -21.542  0.00  0.00    +0.069 C 
BRANCH   9  15
ATOM     15  C   UNL     1      35.247 -17.099 -22.473  0.00  0.00    +0.099 C 
BRANCH  15  16
ATOM     16  C   UNL     1      35.061 -17.708 -21.088  0.00  0.00    +0.022 C 
BRANCH  16  17
ATOM     17  C   UNL     1      34.301 -19.036 -21.127  0.00  0.00    +0.002 C 
ATOM     18  C   UNL     1      34.978 -20.089 -20.263  0.00  0.00    +0.000 C 
ENDBRANCH  16  17
ENDBRANCH  15  16
ENDBRANCH   9  15
ENDBRANCH   1  10
BRANCH   2  19
ATOM     19  C   UNL     1      31.815  -8.352 -21.376  0.00  0.00    -0.022 C 
ATOM     20  C   UNL     1      31.424  -8.289 -20.039  0.00  0.00    -0.004 C 
ATOM     21  C   UNL     1      32.390  -7.237 -21.988  0.00  0.00    -0.004 C 
ATOM     22  C   UNL     1      31.608  -7.111 -19.313  0.00  0.00    -0.000 C 
ATOM     23  C   UNL     1      32.574  -6.061 -21.262  0.00  0.00    -0.000 C 
ATOM     24  C   UNL     1      32.183  -5.998 -19.924  0.00  0.00    -0.000 C 
ENDBRANCH   2  19
TORSDOF 5
ENDMDL
MODEL 5
REMARK VINA RESULT:     -10.8      4.336      9.440
REMARK  Name = 25195461
REMARK  5 active torsions:
REMARK  status: ('A' for Active; 'I' for Inactive)
REMARK    1  A    between atoms: N_1  and  C_10
REMARK    2  A    between atoms: C_2  and  C_19
REMARK    3  A    between atoms: N_9  and  C_15
REMARK    4  A    between atoms: C_15  and  C_16
REMARK    5  A    between atoms: C_16  and  C_17
REMARK                            x       y       z     vdW  Elec       q    Type
REMARK                         _______ _______ _______ _____ _____    ______ ____
ROOT
ATOM      1  N   UNL     1      34.925 -21.283 -18.974  0.00  0.00    -0.307 N 
ATOM      2  C   UNL     1      34.598 -19.460 -21.185  0.00  0.00    +0.026 C 
ATOM      3  C   UNL     1      33.460 -19.738 -20.185  0.00  0.00    +0.026 C 
ATOM      4  C   UNL     1      35.965 -19.684 -20.511  0.00  0.00    +0.026 C 
ATOM      5  C   UNL     1      33.596 -21.131 -19.570  0.00  0.00    +0.091 C 
ATOM      6  C   UNL     1      36.048 -21.078 -19.889  0.00  0.00    +0.091 C 
ENDROOT
BRANCH   1  10
ATOM      7 CL   UNL     1      32.587 -22.631 -17.528  0.00  0.00    -0.076 Cl
ATOM      8  O   UNL     1      33.559 -23.206 -14.823  0.00  0.00    -0.269 OA
ATOM      9  N   UNL     1      35.717 -22.352 -15.020  0.00  0.00    -0.253 N 
ATOM     10  C   UNL     1      35.102 -21.665 -17.676  0.00  0.00    +0.064 C 
ATOM     11  C   UNL     1      34.164 -22.266 -16.919  0.00  0.00    +0.125 C 
ATOM     12  C   UNL     1      36.399 -21.395 -17.083  0.00  0.00    +0.032 C 
ATOM     13  C   UNL     1      34.434 -22.657 -15.493  0.00  0.00    +0.265 C 
ATOM     14  C   UNL     1      36.660 -21.734 -15.817  0.00  0.00    +0.069 C 
BRANCH   9  15
ATOM     15  C   UNL     1      36.066 -22.697 -13.647  0.00  0.00    +0.099 C 
BRANCH  15  16
ATOM     16  C   UNL     1      37.061 -23.850 -13.571  0.00  0.00    +0.022 C 
BRANCH  16  17
ATOM     17  C   UNL     1      36.374 -25.216 -13.515  0.00  0.00    +0.002 C 
ATOM     18  C   UNL     1      36.470 -25.943 -14.847  0.00  0.00    +0.000 C 
ENDBRANCH  16  17
ENDBRANCH  15  16
ENDBRANCH   9  15
ENDBRANCH   1  10
BRANCH   2  19
ATOM     19  C   UNL     1      34.488 -18.079 -21.804  0.00  0.00    -0.022 C 
ATOM     20  C   UNL     1      34.280 -17.945 -23.176  0.00  0.00    -0.004 C 
ATOM     21  C   UNL     1      34.595 -16.944 -21.000  0.00  0.00    -0.004 C 
ATOM     22  C   UNL     1      34.178 -16.675 -23.746  0.00  0.00    -0.000 C 
ATOM     23  C   UNL     1      34.493 -15.674 -21.570  0.00  0.00    -0.000 C 
ATOM     24  C   UNL     1      34.284 -15.540 -22.943  0.00  0.00    -0.000 C 
ENDBRANCH   2  19
TORSDOF 5
ENDMDL
MODEL 6
REMARK VINA RESULT:     -10.6      4.473      9.280
REMARK  Name = 25195461
REMARK  5 active torsions:
REMARK  status: ('A' for Active; 'I' for Inactive)
REMARK    1  A    between atoms: N_1  and  C_10
REMARK    2  A    between atoms: C_2  and  C_19
REMARK    3  A    between atoms: N_9  and  C_15
REMARK    4  A    between atoms: C_15  and  C_16
REMARK    5  A    between atoms: C_16  and  C_17
REMARK                            x       y       z     vdW  Elec       q    Type
REMARK                         _______ _______ _______ _____ _____    ______ ____
ROOT
ATOM      1  N   UNL     1      34.281 -21.614 -18.868  0.00  0.00    -0.307 N 
ATOM      2  C   UNL     1      34.497 -19.750 -21.059  0.00  0.00    +0.026 C 
ATOM      3  C   UNL     1      33.135 -20.137 -20.451  0.00  0.00    +0.026 C 
ATOM      4  C   UNL     1      35.611 -19.900 -20.006  0.00  0.00    +0.026 C 
ATOM      5  C   UNL     1      33.186 -21.537 -19.836  0.00  0.00    +0.091 C 
ATOM      6  C   UNL     1      35.609 -21.304 -19.399  0.00  0.00    +0.091 C 
ENDROOT
BRANCH   1  10
ATOM      7 CL   UNL     1      36.628 -21.401 -16.914  0.00  0.00    -0.076 Cl
ATOM      8  O   UNL     1      35.618 -22.412 -14.355  0.00  0.00    -0.269 OA
ATOM      9  N   UNL     1      33.439 -22.927 -14.999  0.00  0.00    -0.253 N 
ATOM     10  C   UNL     1      34.089 -22.023 -17.581  0.00  0.00    +0.064 C 
ATOM     11  C   UNL     1      35.028 -21.987 -16.616  0.00  0.00    +0.125 C 
ATOM     12  C   UNL     1      32.772 -22.531 -17.242  0.00  0.00    +0.032 C 
ATOM     13  C   UNL     1      34.740 -22.456 -15.217  0.00  0.00    +0.265 C 
ATOM     14  C   UNL     1      32.495 -22.954 -16.006  0.00  0.00    +0.069 C 
BRANCH   9  15
ATOM     15  C   UNL     1      33.072 -23.402 -13.670  0.00  0.00    +0.099 C 
BRANCH  15  16
ATOM     16  C   UNL     1      31.577 -23.272 -13.398  0.00  0.00    +0.022 C 
BRANCH  16  17
ATOM     17  C   UNL     1      30.905 -24.625 -13.153  0.00  0.00    +0.002 C 
ATOM     18  C   UNL     1      29.859 -24.926 -14.214  0.00  0.00    +0.000 C 
ENDBRANCH  16  17
ENDBRANCH  15  16
ENDBRANCH   9  15
ENDBRANCH   1  10
BRANCH   2  19
ATOM     19  C   UNL     1      34.474 -18.362 -21.670  0.00  0.00    -0.022 C 
ATOM     20  C   UNL     1      34.676 -17.242 -20.864  0.00  0.00    -0.004 C 
ATOM     21  C   UNL     1      34.251 -18.206 -23.038  0.00  0.00    -0.004 C 
ATOM     22  C   UNL     1      34.656 -15.965 -21.426  0.00  0.00    -0.000 C 
ATOM     23  C   UNL     1      34.232 -16.929 -23.600  0.00  0.00    -0.000 C 
ATOM     24  C   UNL     1      34.434 -15.809 -22.794  0.00  0.00    -0.000 C 
ENDBRANCH   2  19
TORSDOF 5
ENDMDL
MODEL 7
REMARK VINA RESULT:     -10.5      4.456      9.544
REMARK  Name = 25195461
REMARK  5 active torsions:
REMARK  status: ('A' for Active; 'I' for Inactive)
REMARK    1  A    between atoms: N_1  and  C_10
REMARK    2  A    between atoms: C_2  and  C_19
REMARK    3  A    between atoms: N_9  and  C_15
REMARK    4  A    between atoms: C_15  and  C_16
REMARK    5  A    between atoms: C_16  and  C_17
REMARK                            x       y       z     vdW  Elec       q    Type
REMARK                         _______ _______ _______ _____ _____    ______ ____
ROOT
ATOM      1  N   UNL     1      34.882 -21.443 -18.790  0.00  0.00    -0.307 N 
ATOM      2  C   UNL     1      34.581 -19.685 -21.057  0.00  0.00    +0.026 C 
ATOM      3  C   UNL     1      33.433 -19.932 -20.061  0.00  0.00    +0.026 C 
ATOM      4  C   UNL     1      35.941 -19.892 -20.363  0.00  0.00    +0.026 C 
ATOM      5  C   UNL     1      33.560 -21.307 -19.404  0.00  0.00    +0.091 C 
ATOM      6  C   UNL     1      36.015 -21.268 -19.699  0.00  0.00    +0.091 C 
ENDROOT
BRANCH   1  10
ATOM      7 CL   UNL     1      32.536 -22.768 -17.336  0.00  0.00    -0.076 Cl
ATOM      8  O   UNL     1      33.478 -23.259 -14.604  0.00  0.00    -0.269 OA
ATOM      9  N   UNL     1      35.632 -22.395 -14.798  0.00  0.00    -0.253 N 
ATOM     10  C   UNL     1      35.046 -21.787 -17.480  0.00  0.00    +0.064 C 
ATOM     11  C   UNL     1      34.102 -22.374 -16.717  0.00  0.00    +0.125 C 
ATOM     12  C   UNL     1      36.333 -21.491 -16.878  0.00  0.00    +0.032 C 
ATOM     13  C   UNL     1      34.358 -22.723 -15.278  0.00  0.00    +0.265 C 
ATOM     14  C   UNL     1      36.581 -21.792 -15.600  0.00  0.00    +0.069 C 
BRANCH   9  15
ATOM     15  C   UNL     1      35.966 -22.698 -13.411  0.00  0.00    +0.099 C 
BRANCH  15  16
ATOM     16  C   UNL     1      36.688 -24.033 -13.265  0.00  0.00    +0.022 C 
BRANCH  16  17
ATOM     17  C   UNL     1      36.287 -24.783 -11.993  0.00  0.00    +0.002 C 
ATOM     18  C   UNL     1      35.994 -23.823 -10.851  0.00  0.00    +0.000 C 
ENDBRANCH  16  17
ENDBRANCH  15  16
ENDBRANCH   9  15
ENDBRANCH   1  10
BRANCH   2  19
ATOM     19  C   UNL     1      34.481 -18.324 -21.717  0.00  0.00    -0.022 C 
ATOM     20  C   UNL     1      34.673 -17.167 -20.962  0.00  0.00    -0.004 C 
ATOM     21  C   UNL     1      34.196 -18.228 -23.079  0.00  0.00    -0.004 C 
ATOM     22  C   UNL     1      34.581 -15.914 -21.570  0.00  0.00    -0.000 C 
ATOM     23  C   UNL     1      34.105 -16.975 -23.687  0.00  0.00    -0.000 C 
ATOM     24  C   UNL     1      34.297 -15.818 -22.932  0.00  0.00    -0.000 C 
ENDBRANCH   2  19
TORSDOF 5
ENDMDL
MODEL 8
REMARK VINA RESULT:     -10.3      3.139     10.157
REMARK  Name = 25195461
REMARK  5 active torsions:
REMARK  status: ('A' for Active; 'I' for Inactive)
REMARK    1  A    between atoms: N_1  and  C_10
REMARK    2  A    between atoms: C_2  and  C_19
REMARK    3  A    between atoms: N_9  and  C_15
REMARK    4  A    between atoms: C_15  and  C_16
REMARK    5  A    between atoms: C_16  and  C_17
REMARK                            x       y       z     vdW  Elec       q    Type
REMARK                         _______ _______ _______ _____ _____    ______ ____
ROOT
ATOM      1  N   UNL     1      32.083 -11.714 -22.712  0.00  0.00    -0.307 N 
ATOM      2  C   UNL     1      31.312  -8.960 -22.338  0.00  0.00    +0.026 C 
ATOM      3  C   UNL     1      30.844 -10.072 -21.382  0.00  0.00    +0.026 C 
ATOM      4  C   UNL     1      32.653  -9.348 -22.989  0.00  0.00    +0.026 C 
ATOM      5  C   UNL     1      30.787 -11.424 -22.096  0.00  0.00    +0.091 C 
ATOM      6  C   UNL     1      32.559 -10.715 -23.669  0.00  0.00    +0.091 C 
ENDROOT
BRANCH   1  10
ATOM      7 CL   UNL     1      32.462 -12.590 -19.804  0.00  0.00    -0.076 Cl
ATOM      8  O   UNL     1      33.967 -15.103 -19.927  0.00  0.00    -0.269 OA
ATOM      9  N   UNL     1      34.189 -15.284 -22.239  0.00  0.00    -0.253 N 
ATOM     10  C   UNL     1      32.761 -12.873 -22.470  0.00  0.00    +0.064 C 
ATOM     11  C   UNL     1      33.003 -13.379 -21.245  0.00  0.00    +0.125 C 
ATOM     12  C   UNL     1      33.253 -13.600 -23.626  0.00  0.00    +0.032 C 
ATOM     13  C   UNL     1      33.760 -14.664 -21.059  0.00  0.00    +0.265 C 
ATOM     14  C   UNL     1      33.928 -14.744 -23.483  0.00  0.00    +0.069 C 
BRANCH   9  15
ATOM     15  C   UNL     1      34.931 -16.536 -22.151  0.00  0.00    +0.099 C 
BRANCH  15  16
ATOM     16  C   UNL     1      34.448 -17.571 -23.162  0.00  0.00    +0.022 C 
BRANCH  16  17
ATOM     17  C   UNL     1      34.061 -18.898 -22.506  0.00  0.00    +0.002 C 
ATOM     18  C   UNL     1      34.560 -18.975 -21.072  0.00  0.00    +0.000 C 
ENDBRANCH  16  17
ENDBRANCH  15  16
ENDBRANCH   9  15
ENDBRANCH   1  10
BRANCH   2  19
ATOM     19  C   UNL     1      31.384  -7.610 -21.650  0.00  0.00    -0.022 C 
ATOM     20  C   UNL     1      32.114  -7.465 -20.471  0.00  0.00    -0.004 C 
ATOM     21  C   UNL     1      30.718  -6.512 -22.198  0.00  0.00    -0.004 C 
ATOM     22  C   UNL     1      32.180  -6.223 -19.839  0.00  0.00    -0.000 C 
ATOM     23  C   UNL     1      30.785  -5.270 -21.566  0.00  0.00    -0.000 C 
ATOM     24  C   UNL     1      31.516  -5.126 -20.386  0.00  0.00    -0.000 C 
ENDBRANCH   2  19
TORSDOF 5
ENDMDL
MODEL 9
REMARK VINA RESULT:     -10.1      4.390      9.596
REMARK  Name = 25195461
REMARK  5 active torsions:
REMARK  status: ('A' for Active; 'I' for Inactive)
REMARK    1  A    between atoms: N_1  and  C_10
REMARK    2  A    between atoms: C_2  and  C_19
REMARK    3  A    between atoms: N_9  and  C_15
REMARK    4  A    between atoms: C_15  and  C_16
REMARK    5  A    between atoms: C_16  and  C_17
REMARK                            x       y       z     vdW  Elec       q    Type
REMARK                         _______ _______ _______ _____ _____    ______ ____
ROOT
ATOM      1  N   UNL     1      34.484 -21.560 -18.789  0.00  0.00    -0.307 N 
ATOM      2  C   UNL     1      34.396 -19.745 -21.029  0.00  0.00    +0.026 C 
ATOM      3  C   UNL     1      33.183 -19.953 -20.103  0.00  0.00    +0.026 C 
ATOM      4  C   UNL     1      35.703 -20.033 -20.267  0.00  0.00    +0.026 C 
ATOM      5  C   UNL     1      33.206 -21.345 -19.471  0.00  0.00    +0.091 C 
ATOM      6  C   UNL     1      35.673 -21.424 -19.631  0.00  0.00    +0.091 C 
ENDROOT
BRANCH   1  10
ATOM      7 CL   UNL     1      36.900 -20.641 -17.149  0.00  0.00    -0.076 Cl
ATOM      8  O   UNL     1      36.496 -21.746 -14.464  0.00  0.00    -0.269 OA
ATOM      9  N   UNL     1      34.472 -22.843 -14.820  0.00  0.00    -0.253 N 
ATOM     10  C   UNL     1      34.556 -21.937 -17.480  0.00  0.00    +0.064 C 
ATOM     11  C   UNL     1      35.558 -21.607 -16.641  0.00  0.00    +0.125 C 
ATOM     12  C   UNL     1      33.469 -22.752 -16.969  0.00  0.00    +0.032 C 
ATOM     13  C   UNL     1      35.568 -22.062 -15.208  0.00  0.00    +0.265 C 
ATOM     14  C   UNL     1      33.459 -23.167 -15.699  0.00  0.00    +0.069 C 
BRANCH   9  15
ATOM     15  C   UNL     1      34.400 -23.327 -13.446  0.00  0.00    +0.099 C 
BRANCH  15  16
ATOM     16  C   UNL     1      35.181 -24.621 -13.243  0.00  0.00    +0.022 C 
BRANCH  16  17
ATOM     17  C   UNL     1      36.024 -24.605 -11.967  0.00  0.00    +0.002 C 
ATOM     18  C   UNL     1      37.347 -25.329 -12.166  0.00  0.00    +0.000 C 
ENDBRANCH  16  17
ENDBRANCH  15  16
ENDBRANCH   9  15
ENDBRANCH   1  10
BRANCH   2  19
ATOM     19  C   UNL     1      34.399 -18.367 -21.664  0.00  0.00    -0.022 C 
ATOM     20  C   UNL     1      34.188 -18.231 -23.035  0.00  0.00    -0.004 C 
ATOM     21  C   UNL     1      34.613 -17.236 -20.875  0.00  0.00    -0.004 C 
ATOM     22  C   UNL     1      34.191 -16.963 -23.619  0.00  0.00    -0.000 C 
ATOM     23  C   UNL     1      34.615 -15.969 -21.459  0.00  0.00    -0.000 C 
ATOM     24  C   UNL     1      34.403 -15.833 -22.830  0.00  0.00    -0.000 C 
ENDBRANCH   2  19
TORSDOF 5
ENDMDL
