MODEL 1
REMARK VINA RESULT:     -12.1      0.000      0.000
REMARK  Name = 24905142
REMARK  2 active torsions:
REMARK  status: ('A' for Active; 'I' for Inactive)
REMARK    1  A    between atoms: N_1  and  C_20
REMARK    2  A    between atoms: C_7  and  C_12
REMARK                            x       y       z     vdW  Elec       q    Type
REMARK                         _______ _______ _______ _____ _____    ______ ____
ROOT
ATOM      1  N   UNL     1      33.361 -22.267 -17.782  0.00  0.00    -0.200 N 
ATOM      2  N   UNL     1      34.536 -22.525 -17.177  0.00  0.00    -0.181 NA
ATOM      3  N   UNL     1      30.990 -22.259 -17.293  0.00  0.00    -0.232 NA
ATOM      4  N   UNL     1      30.542 -22.922 -14.989  0.00  0.00    -0.234 NA
ATOM      5  C   UNL     1      32.280 -22.440 -16.970  0.00  0.00    +0.137 C 
ATOM      6  C   UNL     1      32.784 -22.841 -15.745  0.00  0.00    +0.150 C 
ATOM      7  C   UNL     1      34.178 -22.874 -15.937  0.00  0.00    +0.091 C 
ATOM      8  C   UNL     1      31.863 -23.084 -14.732  0.00  0.00    +0.112 C 
ATOM      9  C   UNL     1      30.193 -22.525 -16.236  0.00  0.00    +0.252 C 
ATOM     10  N   UNL     1      32.276 -23.495 -13.452  0.00  0.00    -0.346 N 
ATOM     11  H   UNL     1      31.607 -23.663 -12.748  0.00  0.00    +0.143 HD
ATOM     12  H   UNL     1      33.234 -23.614 -13.258  0.00  0.00    +0.143 HD
ENDROOT
BRANCH   7  15
ATOM     13  N   UNL     1      37.010 -22.476 -13.542  0.00  0.00    -0.229 NA
ATOM     14  N   UNL     1      38.016 -24.256 -12.267  0.00  0.00    -0.297 N 
ATOM     15  C   UNL     1      35.183 -23.227 -14.977  0.00  0.00    +0.035 C 
ATOM     16  C   UNL     1      35.329 -24.548 -14.559  0.00  0.00    +0.006 C 
ATOM     17  C   UNL     1      36.029 -22.262 -14.449  0.00  0.00    +0.102 C 
ATOM     18  C   UNL     1      36.331 -24.831 -13.617  0.00  0.00    +0.033 C 
ATOM     19  C   UNL     1      37.109 -23.766 -13.170  0.00  0.00    +0.132 C 
ATOM     20  C   UNL     1      36.801 -25.992 -12.948  0.00  0.00    +0.019 C 
ATOM     21  C   UNL     1      37.837 -25.608 -12.124  0.00  0.00    +0.063 C 
ATOM     22  H   UNL     1      38.691 -23.719 -11.794  0.00  0.00    +0.154 HD
ENDBRANCH   7  15
BRANCH   1  23
ATOM     23  C   UNL     1      33.348 -21.832 -19.230  0.00  0.00    +0.098 C 
ATOM     24  C   UNL     1      34.745 -21.581 -19.836  0.00  0.00    +0.022 C 
ATOM     25  C   UNL     1      32.561 -20.527 -19.447  0.00  0.00    +0.022 C 
ATOM     26  C   UNL     1      34.767 -20.110 -20.234  0.00  0.00    +0.002 C 
ATOM     27  C   UNL     1      33.315 -19.800 -20.550  0.00  0.00    +0.002 C 
ENDBRANCH   1  23
TORSDOF 2
ENDMDL
MODEL 2
REMARK VINA RESULT:     -11.1      6.122      9.508
REMARK  Name = 24905142
REMARK  2 active torsions:
REMARK  status: ('A' for Active; 'I' for Inactive)
REMARK    1  A    between atoms: N_1  and  C_20
REMARK    2  A    between atoms: C_7  and  C_12
REMARK                            x       y       z     vdW  Elec       q    Type
REMARK                         _______ _______ _______ _____ _____    ______ ____
ROOT
ATOM      1  N   UNL     1      33.789 -14.379 -21.907  0.00  0.00    -0.200 N 
ATOM      2  N   UNL     1      34.202 -15.314 -21.031  0.00  0.00    -0.181 NA
ATOM      3  N   UNL     1      33.210 -14.165 -24.248  0.00  0.00    -0.232 NA
ATOM      4  N   UNL     1      33.429 -16.288 -25.429  0.00  0.00    -0.234 NA
ATOM      5  C   UNL     1      33.613 -14.858 -23.171  0.00  0.00    +0.137 C 
ATOM      6  C   UNL     1      33.933 -16.203 -23.118  0.00  0.00    +0.150 C 
ATOM      7  C   UNL     1      34.288 -16.422 -21.774  0.00  0.00    +0.091 C 
ATOM      8  C   UNL     1      33.830 -16.924 -24.303  0.00  0.00    +0.112 C 
ATOM      9  C   UNL     1      33.148 -14.966 -25.334  0.00  0.00    +0.252 C 
ATOM     10  N   UNL     1      34.133 -18.297 -24.351  0.00  0.00    -0.346 N 
ATOM     11  H   UNL     1      34.054 -18.790 -25.200  0.00  0.00    +0.143 HD
ATOM     12  H   UNL     1      34.424 -18.766 -23.536  0.00  0.00    +0.143 HD
ENDROOT
BRANCH   7  15
ATOM     13  N   UNL     1      36.563 -19.025 -20.371  0.00  0.00    -0.229 NA
ATOM     14  N   UNL     1      35.862 -21.144 -19.466  0.00  0.00    -0.297 N 
ATOM     15  C   UNL     1      34.708 -17.654 -21.171  0.00  0.00    +0.035 C 
ATOM     16  C   UNL     1      33.771 -18.622 -20.816  0.00  0.00    +0.006 C 
ATOM     17  C   UNL     1      36.051 -17.905 -20.932  0.00  0.00    +0.102 C 
ATOM     18  C   UNL     1      34.244 -19.807 -20.229  0.00  0.00    +0.033 C 
ATOM     19  C   UNL     1      35.618 -19.927 -20.046  0.00  0.00    +0.132 C 
ATOM     20  C   UNL     1      33.657 -21.003 -19.735  0.00  0.00    +0.019 C 
ATOM     21  C   UNL     1      34.677 -21.806 -19.272  0.00  0.00    +0.063 C 
ATOM     22  H   UNL     1      36.751 -21.490 -19.225  0.00  0.00    +0.154 HD
ENDBRANCH   7  15
BRANCH   1  23
ATOM     23  C   UNL     1      33.571 -12.959 -21.436  0.00  0.00    +0.098 C 
ATOM     24  C   UNL     1      32.374 -12.780 -20.478  0.00  0.00    +0.022 C 
ATOM     25  C   UNL     1      33.322 -11.982 -22.599  0.00  0.00    +0.022 C 
ATOM     26  C   UNL     1      31.412 -11.836 -21.190  0.00  0.00    +0.002 C 
ATOM     27  C   UNL     1      32.320 -10.978 -22.052  0.00  0.00    +0.002 C 
ENDBRANCH   1  23
TORSDOF 2
ENDMDL
MODEL 3
REMARK VINA RESULT:     -10.8      1.663      6.314
REMARK  Name = 24905142
REMARK  2 active torsions:
REMARK  status: ('A' for Active; 'I' for Inactive)
REMARK    1  A    between atoms: N_1  and  C_20
REMARK    2  A    between atoms: C_7  and  C_12
REMARK                            x       y       z     vdW  Elec       q    Type
REMARK                         _______ _______ _______ _____ _____    ______ ____
ROOT
ATOM      1  N   UNL     1      34.491 -23.922 -14.903  0.00  0.00    -0.200 N 
ATOM      2  N   UNL     1      34.827 -23.248 -16.019  0.00  0.00    -0.181 NA
ATOM      3  N   UNL     1      32.527 -24.487 -13.604  0.00  0.00    -0.232 NA
ATOM      4  N   UNL     1      30.497 -23.564 -14.589  0.00  0.00    -0.234 NA
ATOM      5  C   UNL     1      33.153 -23.905 -14.639  0.00  0.00    +0.137 C 
ATOM      6  C   UNL     1      32.573 -23.167 -15.655  0.00  0.00    +0.150 C 
ATOM      7  C   UNL     1      33.655 -22.790 -16.472  0.00  0.00    +0.091 C 
ATOM      8  C   UNL     1      31.193 -23.004 -15.608  0.00  0.00    +0.112 C 
ATOM      9  C   UNL     1      31.198 -24.261 -13.663  0.00  0.00    +0.252 C 
ATOM     10  N   UNL     1      30.510 -22.270 -16.595  0.00  0.00    -0.346 N 
ATOM     11  H   UNL     1      29.531 -22.166 -16.543  0.00  0.00    +0.143 HD
ATOM     12  H   UNL     1      31.009 -21.861 -17.339  0.00  0.00    +0.143 HD
ENDROOT
BRANCH   7  15
ATOM     13  N   UNL     1      32.242 -21.038 -19.448  0.00  0.00    -0.229 NA
ATOM     14  N   UNL     1      33.520 -19.792 -21.066  0.00  0.00    -0.297 N 
ATOM     15  C   UNL     1      33.611 -22.007 -17.673  0.00  0.00    +0.035 C 
ATOM     16  C   UNL     1      34.781 -21.482 -18.218  0.00  0.00    +0.006 C 
ATOM     17  C   UNL     1      32.406 -21.760 -18.315  0.00  0.00    +0.102 C 
ATOM     18  C   UNL     1      34.673 -20.724 -19.395  0.00  0.00    +0.033 C 
ATOM     19  C   UNL     1      33.401 -20.554 -19.933  0.00  0.00    +0.132 C 
ATOM     20  C   UNL     1      35.576 -20.034 -20.247  0.00  0.00    +0.019 C 
ATOM     21  C   UNL     1      34.838 -19.470 -21.266  0.00  0.00    +0.063 C 
ATOM     22  H   UNL     1      32.774 -19.518 -21.646  0.00  0.00    +0.154 HD
ENDBRANCH   7  15
BRANCH   1  23
ATOM     23  C   UNL     1      35.569 -24.600 -14.088  0.00  0.00    +0.098 C 
ATOM     24  C   UNL     1      36.771 -23.697 -13.739  0.00  0.00    +0.022 C 
ATOM     25  C   UNL     1      36.164 -25.827 -14.802  0.00  0.00    +0.022 C 
ATOM     26  C   UNL     1      37.983 -24.349 -14.393  0.00  0.00    +0.002 C 
ATOM     27  C   UNL     1      37.634 -25.827 -14.409  0.00  0.00    +0.002 C 
ENDBRANCH   1  23
TORSDOF 2
ENDMDL
MODEL 4
REMARK VINA RESULT:     -10.7      1.351      3.938
REMARK  Name = 24905142
REMARK  2 active torsions:
REMARK  status: ('A' for Active; 'I' for Inactive)
REMARK    1  A    between atoms: N_1  and  C_20
REMARK    2  A    between atoms: C_7  and  C_12
REMARK                            x       y       z     vdW  Elec       q    Type
REMARK                         _______ _______ _______ _____ _____    ______ ____
ROOT
ATOM      1  N   UNL     1      31.952 -22.988 -16.469  0.00  0.00    -0.200 N 
ATOM      2  N   UNL     1      32.778 -23.438 -15.506  0.00  0.00    -0.181 NA
ATOM      3  N   UNL     1      32.033 -21.744 -18.545  0.00  0.00    -0.232 NA
ATOM      4  N   UNL     1      34.309 -21.073 -19.107  0.00  0.00    -0.234 NA
ATOM      5  C   UNL     1      32.591 -22.305 -17.461  0.00  0.00    +0.137 C 
ATOM      6  C   UNL     1      33.933 -22.308 -17.123  0.00  0.00    +0.150 C 
ATOM      7  C   UNL     1      33.983 -23.020 -15.910  0.00  0.00    +0.091 C 
ATOM      8  C   UNL     1      34.805 -21.663 -17.992  0.00  0.00    +0.112 C 
ATOM      9  C   UNL     1      32.972 -21.150 -19.311  0.00  0.00    +0.252 C 
ATOM     10  N   UNL     1      36.187 -21.612 -17.736  0.00  0.00    -0.346 N 
ATOM     11  H   UNL     1      36.789 -21.149 -18.365  0.00  0.00    +0.143 HD
ATOM     12  H   UNL     1      36.555 -22.038 -16.928  0.00  0.00    +0.143 HD
ENDROOT
BRANCH   7  15
ATOM     13  N   UNL     1      36.869 -22.487 -13.607  0.00  0.00    -0.229 NA
ATOM     14  N   UNL     1      38.416 -24.191 -12.895  0.00  0.00    -0.297 N 
ATOM     15  C   UNL     1      35.142 -23.319 -15.119  0.00  0.00    +0.035 C 
ATOM     16  C   UNL     1      35.655 -24.614 -15.075  0.00  0.00    +0.006 C 
ATOM     17  C   UNL     1      35.775 -22.325 -14.385  0.00  0.00    +0.102 C 
ATOM     18  C   UNL     1      36.791 -24.842 -14.283  0.00  0.00    +0.033 C 
ATOM     19  C   UNL     1      37.324 -23.754 -13.598  0.00  0.00    +0.132 C 
ATOM     20  C   UNL     1      37.603 -25.964 -13.968  0.00  0.00    +0.019 C 
ATOM     21  C   UNL     1      38.593 -25.534 -13.111  0.00  0.00    +0.063 C 
ATOM     22  H   UNL     1      38.983 -23.629 -12.321  0.00  0.00    +0.154 HD
ENDBRANCH   7  15
BRANCH   1  23
ATOM     23  C   UNL     1      30.469 -23.267 -16.369  0.00  0.00    +0.098 C 
ATOM     24  C   UNL     1      29.605 -22.027 -16.055  0.00  0.00    +0.022 C 
ATOM     25  C   UNL     1      30.134 -24.296 -15.275  0.00  0.00    +0.022 C 
ATOM     26  C   UNL     1      28.930 -22.321 -14.720  0.00  0.00    +0.002 C 
ATOM     27  C   UNL     1      28.802 -23.833 -14.704  0.00  0.00    +0.002 C 
ENDBRANCH   1  23
TORSDOF 2
ENDMDL
MODEL 5
REMARK VINA RESULT:     -10.6      1.637      6.419
REMARK  Name = 24905142
REMARK  2 active torsions:
REMARK  status: ('A' for Active; 'I' for Inactive)
REMARK    1  A    between atoms: N_1  and  C_20
REMARK    2  A    between atoms: C_7  and  C_12
REMARK                            x       y       z     vdW  Elec       q    Type
REMARK                         _______ _______ _______ _____ _____    ______ ____
ROOT
ATOM      1  N   UNL     1      34.759 -23.591 -15.098  0.00  0.00    -0.200 N 
ATOM      2  N   UNL     1      35.305 -22.907 -16.121  0.00  0.00    -0.181 NA
ATOM      3  N   UNL     1      32.581 -24.165 -14.208  0.00  0.00    -0.232 NA
ATOM      4  N   UNL     1      30.780 -23.230 -15.559  0.00  0.00    -0.234 NA
ATOM      5  C   UNL     1      33.396 -23.575 -15.097  0.00  0.00    +0.137 C 
ATOM      6  C   UNL     1      33.022 -22.826 -16.199  0.00  0.00    +0.150 C 
ATOM      7  C   UNL     1      34.242 -22.443 -16.788  0.00  0.00    +0.091 C 
ATOM      8  C   UNL     1      31.659 -22.661 -16.419  0.00  0.00    +0.112 C 
ATOM      9  C   UNL     1      31.288 -23.937 -14.522  0.00  0.00    +0.252 C 
ATOM     10  N   UNL     1      31.180 -21.918 -17.512  0.00  0.00    -0.346 N 
ATOM     11  H   UNL     1      30.210 -21.813 -17.650  0.00  0.00    +0.143 HD
ATOM     12  H   UNL     1      31.813 -21.502 -18.141  0.00  0.00    +0.143 HD
ENDROOT
BRANCH   7  15
ATOM     13  N   UNL     1      36.006 -20.533 -19.463  0.00  0.00    -0.229 NA
ATOM     14  N   UNL     1      34.936 -19.406 -21.304  0.00  0.00    -0.297 N 
ATOM     15  C   UNL     1      34.432 -21.649 -17.967  0.00  0.00    +0.035 C 
ATOM     16  C   UNL     1      33.338 -21.238 -18.726  0.00  0.00    +0.006 C 
ATOM     17  C   UNL     1      35.705 -21.276 -18.373  0.00  0.00    +0.102 C 
ATOM     18  C   UNL     1      33.589 -20.463 -19.870  0.00  0.00    +0.033 C 
ATOM     19  C   UNL     1      34.916 -20.161 -20.161  0.00  0.00    +0.132 C 
ATOM     20  C   UNL     1      32.798 -19.860 -20.884  0.00  0.00    +0.019 C 
ATOM     21  C   UNL     1      33.654 -19.217 -21.752  0.00  0.00    +0.063 C 
ATOM     22  H   UNL     1      35.747 -19.053 -21.737  0.00  0.00    +0.154 HD
ENDBRANCH   7  15
BRANCH   1  23
ATOM     23  C   UNL     1      35.659 -24.278 -14.096  0.00  0.00    +0.098 C 
ATOM     24  C   UNL     1      36.911 -23.469 -13.699  0.00  0.00    +0.022 C 
ATOM     25  C   UNL     1      36.184 -25.633 -14.606  0.00  0.00    +0.022 C 
ATOM     26  C   UNL     1      38.105 -24.311 -14.136  0.00  0.00    +0.002 C 
ATOM     27  C   UNL     1      37.593 -25.737 -14.043  0.00  0.00    +0.002 C 
ENDBRANCH   1  23
TORSDOF 2
ENDMDL
MODEL 6
REMARK VINA RESULT:     -10.5      1.985      6.704
REMARK  Name = 24905142
REMARK  2 active torsions:
REMARK  status: ('A' for Active; 'I' for Inactive)
REMARK    1  A    between atoms: N_1  and  C_20
REMARK    2  A    between atoms: C_7  and  C_12
REMARK                            x       y       z     vdW  Elec       q    Type
REMARK                         _______ _______ _______ _____ _____    ______ ____
ROOT
ATOM      1  N   UNL     1      35.571 -22.693 -14.578  0.00  0.00    -0.200 N 
ATOM      2  N   UNL     1      34.364 -23.089 -14.134  0.00  0.00    -0.181 NA
ATOM      3  N   UNL     1      36.615 -21.849 -16.593  0.00  0.00    -0.232 NA
ATOM      4  N   UNL     1      35.013 -21.636 -18.419  0.00  0.00    -0.234 NA
ATOM      5  C   UNL     1      35.567 -22.294 -15.882  0.00  0.00    +0.137 C 
ATOM      6  C   UNL     1      34.264 -22.440 -16.322  0.00  0.00    +0.150 C 
ATOM      7  C   UNL     1      33.572 -22.933 -15.201  0.00  0.00    +0.091 C 
ATOM      8  C   UNL     1      34.000 -22.092 -17.642  0.00  0.00    +0.112 C 
ATOM      9  C   UNL     1      36.240 -21.544 -17.854  0.00  0.00    +0.252 C 
ATOM     10  N   UNL     1      32.707 -22.205 -18.183  0.00  0.00    -0.346 N 
ATOM     11  H   UNL     1      32.541 -21.953 -19.121  0.00  0.00    +0.143 HD
ATOM     12  H   UNL     1      31.966 -22.535 -17.625  0.00  0.00    +0.143 HD
ENDROOT
BRANCH   7  15
ATOM     13  N   UNL     1      30.474 -24.753 -14.195  0.00  0.00    -0.229 NA
ATOM     14  N   UNL     1      28.236 -24.168 -14.867  0.00  0.00    -0.297 N 
ATOM     15  C   UNL     1      32.179 -23.262 -15.108  0.00  0.00    +0.035 C 
ATOM     16  C   UNL     1      31.225 -22.496 -15.776  0.00  0.00    +0.006 C 
ATOM     17  C   UNL     1      31.756 -24.348 -14.355  0.00  0.00    +0.102 C 
ATOM     18  C   UNL     1      29.878 -22.869 -15.646  0.00  0.00    +0.033 C 
ATOM     19  C   UNL     1      29.593 -23.980 -14.859  0.00  0.00    +0.132 C 
ATOM     20  C   UNL     1      28.636 -22.383 -16.136  0.00  0.00    +0.019 C 
ATOM     21  C   UNL     1      27.644 -23.201 -15.640  0.00  0.00    +0.063 C 
ATOM     22  H   UNL     1      27.759 -24.884 -14.391  0.00  0.00    +0.154 HD
ENDBRANCH   7  15
BRANCH   1  23
ATOM     23  C   UNL     1      36.757 -22.724 -13.642  0.00  0.00    +0.098 C 
ATOM     24  C   UNL     1      37.713 -23.916 -13.858  0.00  0.00    +0.022 C 
ATOM     25  C   UNL     1      36.340 -22.789 -12.162  0.00  0.00    +0.022 C 
ATOM     26  C   UNL     1      37.689 -24.708 -12.556  0.00  0.00    +0.002 C 
ATOM     27  C   UNL     1      37.399 -23.657 -11.499  0.00  0.00    +0.002 C 
ENDBRANCH   1  23
TORSDOF 2
ENDMDL
MODEL 7
REMARK VINA RESULT:     -10.4      2.024      4.815
REMARK  Name = 24905142
REMARK  2 active torsions:
REMARK  status: ('A' for Active; 'I' for Inactive)
REMARK    1  A    between atoms: N_1  and  C_20
REMARK    2  A    between atoms: C_7  and  C_12
REMARK                            x       y       z     vdW  Elec       q    Type
REMARK                         _______ _______ _______ _____ _____    ______ ____
ROOT
ATOM      1  N   UNL     1      34.308 -21.943 -17.999  0.00  0.00    -0.200 N 
ATOM      2  N   UNL     1      33.164 -22.471 -17.525  0.00  0.00    -0.181 NA
ATOM      3  N   UNL     1      36.537 -21.376 -17.242  0.00  0.00    -0.232 NA
ATOM      4  N   UNL     1      36.852 -21.911 -14.884  0.00  0.00    -0.234 NA
ATOM      5  C   UNL     1      35.296 -21.856 -17.064  0.00  0.00    +0.137 C 
ATOM      6  C   UNL     1      34.760 -22.362 -15.893  0.00  0.00    +0.150 C 
ATOM      7  C   UNL     1      33.445 -22.723 -16.242  0.00  0.00    +0.091 C 
ATOM      8  C   UNL     1      35.586 -22.381 -14.775  0.00  0.00    +0.112 C 
ATOM      9  C   UNL     1      37.244 -21.444 -16.093  0.00  0.00    +0.252 C 
ATOM     10  N   UNL     1      35.133 -22.877 -13.540  0.00  0.00    -0.346 N 
ATOM     11  H   UNL     1      35.735 -22.881 -12.759  0.00  0.00    +0.143 HD
ATOM     12  H   UNL     1      34.215 -23.221 -13.453  0.00  0.00    +0.143 HD
ENDROOT
BRANCH   7  15
ATOM     13  N   UNL     1      31.918 -24.345 -13.249  0.00  0.00    -0.229 NA
ATOM     14  N   UNL     1      29.594 -24.936 -13.020  0.00  0.00    -0.297 N 
ATOM     15  C   UNL     1      32.444 -23.303 -15.394  0.00  0.00    +0.035 C 
ATOM     16  C   UNL     1      31.121 -23.397 -15.823  0.00  0.00    +0.006 C 
ATOM     17  C   UNL     1      32.773 -23.781 -14.134  0.00  0.00    +0.102 C 
ATOM     18  C   UNL     1      30.188 -23.974 -14.947  0.00  0.00    +0.033 C 
ATOM     19  C   UNL     1      30.655 -24.412 -13.711  0.00  0.00    +0.132 C 
ATOM     20  C   UNL     1      28.796 -24.252 -14.982  0.00  0.00    +0.019 C 
ATOM     21  C   UNL     1      28.458 -24.842 -13.784  0.00  0.00    +0.063 C 
ATOM     22  H   UNL     1      29.640 -25.318 -12.115  0.00  0.00    +0.154 HD
ENDBRANCH   7  15
BRANCH   1  23
ATOM     23  C   UNL     1      34.390 -21.519 -19.448  0.00  0.00    +0.098 C 
ATOM     24  C   UNL     1      35.744 -20.903 -19.859  0.00  0.00    +0.022 C 
ATOM     25  C   UNL     1      33.326 -20.469 -19.816  0.00  0.00    +0.022 C 
ATOM     26  C   UNL     1      35.433 -19.476 -20.298  0.00  0.00    +0.002 C 
ATOM     27  C   UNL     1      34.013 -19.561 -20.825  0.00  0.00    +0.002 C 
ENDBRANCH   1  23
TORSDOF 2
ENDMDL
MODEL 8
REMARK VINA RESULT:     -10.4     10.786     14.333
REMARK  Name = 24905142
REMARK  2 active torsions:
REMARK  status: ('A' for Active; 'I' for Inactive)
REMARK    1  A    between atoms: N_1  and  C_20
REMARK    2  A    between atoms: C_7  and  C_12
REMARK                            x       y       z     vdW  Elec       q    Type
REMARK                         _______ _______ _______ _____ _____    ______ ____
ROOT
ATOM      1  N   UNL     1      32.898  -8.954 -23.219  0.00  0.00    -0.200 N 
ATOM      2  N   UNL     1      33.335 -10.061 -23.849  0.00  0.00    -0.181 NA
ATOM      3  N   UNL     1      31.576  -8.321 -21.292  0.00  0.00    -0.232 NA
ATOM      4  N   UNL     1      30.754 -10.273 -20.082  0.00  0.00    -0.234 NA
ATOM      5  C   UNL     1      32.143  -9.217 -22.115  0.00  0.00    +0.137 C 
ATOM      6  C   UNL     1      32.081 -10.596 -22.015  0.00  0.00    +0.150 C 
ATOM      7  C   UNL     1      32.833 -11.058 -23.111  0.00  0.00    +0.091 C 
ATOM      8  C   UNL     1      31.355 -11.120 -20.951  0.00  0.00    +0.112 C 
ATOM      9  C   UNL     1      30.900  -8.944 -20.303  0.00  0.00    +0.252 C 
ATOM     10  N   UNL     1      31.233 -12.509 -20.764  0.00  0.00    -0.346 N 
ATOM     11  H   UNL     1      30.713 -12.860 -20.004  0.00  0.00    +0.143 HD
ATOM     12  H   UNL     1      31.667 -13.131 -21.392  0.00  0.00    +0.143 HD
ENDROOT
BRANCH   7  15
ATOM     13  N   UNL     1      32.908 -14.157 -25.186  0.00  0.00    -0.229 NA
ATOM     14  N   UNL     1      33.840 -16.269 -24.500  0.00  0.00    -0.297 N 
ATOM     15  C   UNL     1      33.093 -12.419 -23.481  0.00  0.00    +0.035 C 
ATOM     16  C   UNL     1      33.729 -13.284 -22.594  0.00  0.00    +0.006 C 
ATOM     17  C   UNL     1      32.716 -12.898 -24.728  0.00  0.00    +0.102 C 
ATOM     18  C   UNL     1      33.955 -14.605 -23.015  0.00  0.00    +0.033 C 
ATOM     19  C   UNL     1      33.525 -14.952 -24.292  0.00  0.00    +0.132 C 
ATOM     20  C   UNL     1      34.547 -15.766 -22.450  0.00  0.00    +0.019 C 
ATOM     21  C   UNL     1      34.462 -16.774 -23.386  0.00  0.00    +0.063 C 
ATOM     22  H   UNL     1      33.649 -16.775 -25.322  0.00  0.00    +0.154 HD
ENDBRANCH   7  15
BRANCH   1  23
ATOM     23  C   UNL     1      33.266  -7.592 -23.763  0.00  0.00    +0.098 C 
ATOM     24  C   UNL     1      34.006  -6.681 -22.762  0.00  0.00    +0.022 C 
ATOM     25  C   UNL     1      32.036  -6.790 -24.225  0.00  0.00    +0.022 C 
ATOM     26  C   UNL     1      33.107  -5.466 -22.564  0.00  0.00    +0.002 C 
ATOM     27  C   UNL     1      32.367  -5.345 -23.884  0.00  0.00    +0.002 C 
ENDBRANCH   1  23
TORSDOF 2
ENDMDL
MODEL 9
REMARK VINA RESULT:     -10.3      2.518      6.285
REMARK  Name = 24905142
REMARK  2 active torsions:
REMARK  status: ('A' for Active; 'I' for Inactive)
REMARK    1  A    between atoms: N_1  and  C_20
REMARK    2  A    between atoms: C_7  and  C_12
REMARK                            x       y       z     vdW  Elec       q    Type
REMARK                         _______ _______ _______ _____ _____    ______ ____
ROOT
ATOM      1  N   UNL     1      30.021 -23.040 -15.825  0.00  0.00    -0.200 N 
ATOM      2  N   UNL     1      30.517 -22.420 -16.912  0.00  0.00    -0.181 NA
ATOM      3  N   UNL     1      30.792 -24.149 -13.815  0.00  0.00    -0.232 NA
ATOM      4  N   UNL     1      33.226 -24.173 -13.675  0.00  0.00    -0.234 NA
ATOM      5  C   UNL     1      30.983 -23.496 -14.972  0.00  0.00    +0.137 C 
ATOM      6  C   UNL     1      32.194 -23.149 -15.543  0.00  0.00    +0.150 C 
ATOM      7  C   UNL     1      31.841 -22.489 -16.734  0.00  0.00    +0.091 C 
ATOM      8  C   UNL     1      33.345 -23.510 -14.851  0.00  0.00    +0.112 C 
ATOM      9  C   UNL     1      31.975 -24.447 -13.236  0.00  0.00    +0.252 C 
ATOM     10  N   UNL     1      34.624 -23.201 -15.348  0.00  0.00    -0.346 N 
ATOM     11  H   UNL     1      35.427 -23.467 -14.842  0.00  0.00    +0.143 HD
ATOM     12  H   UNL     1      34.718 -22.719 -16.201  0.00  0.00    +0.143 HD
ENDROOT
BRANCH   7  15
ATOM     13  N   UNL     1      35.003 -21.732 -18.563  0.00  0.00    -0.229 NA
ATOM     14  N   UNL     1      35.187 -20.299 -20.491  0.00  0.00    -0.297 N 
ATOM     15  C   UNL     1      32.722 -21.920 -17.713  0.00  0.00    +0.035 C 
ATOM     16  C   UNL     1      32.228 -21.069 -18.699  0.00  0.00    +0.006 C 
ATOM     17  C   UNL     1      34.079 -22.207 -17.696  0.00  0.00    +0.102 C 
ATOM     18  C   UNL     1      33.141 -20.544 -19.629  0.00  0.00    +0.033 C 
ATOM     19  C   UNL     1      34.476 -20.915 -19.495  0.00  0.00    +0.132 C 
ATOM     20  C   UNL     1      33.066 -19.675 -20.749  0.00  0.00    +0.019 C 
ATOM     21  C   UNL     1      34.339 -19.544 -21.260  0.00  0.00    +0.063 C 
ATOM     22  H   UNL     1      36.156 -20.386 -20.633  0.00  0.00    +0.154 HD
ENDBRANCH   7  15
BRANCH   1  23
ATOM     23  C   UNL     1      28.524 -23.169 -15.657  0.00  0.00    +0.098 C 
ATOM     24  C   UNL     1      27.749 -23.391 -16.973  0.00  0.00    +0.022 C 
ATOM     25  C   UNL     1      27.894 -21.924 -15.008  0.00  0.00    +0.022 C 
ATOM     26  C   UNL     1      26.818 -22.191 -17.113  0.00  0.00    +0.002 C 
ATOM     27  C   UNL     1      26.535 -21.785 -15.678  0.00  0.00    +0.002 C 
ENDBRANCH   1  23
TORSDOF 2
ENDMDL
