MODEL 1
REMARK VINA RESULT:     -11.6      0.000      0.000
REMARK  Name = 11653652
REMARK  5 active torsions:
REMARK  status: ('A' for Active; 'I' for Inactive)
REMARK    1  A    between atoms: N_1  and  C_19
REMARK    2  A    between atoms: C_4  and  C_7
REMARK    3  A    between atoms: C_5  and  C_27
REMARK    4  A    between atoms: N_6  and  C_13
REMARK    5  A    between atoms: N_6  and  O_16
REMARK                            x       y       z     vdW  Elec       q    Type
REMARK                         _______ _______ _______ _____ _____    ______ ____
ROOT
ATOM      1  N   UNL     1      33.298 -21.914 -18.110  0.00  0.00    -0.212 N 
ATOM      2  N   UNL     1      32.013 -22.220 -17.867  0.00  0.00    -0.178 NA
ATOM      3  C   UNL     1      34.144 -22.227 -17.087  0.00  0.00    +0.085 C 
ATOM      4  C   UNL     1      33.355 -22.774 -16.109  0.00  0.00    +0.032 C 
ATOM      5  C   UNL     1      32.054 -22.747 -16.639  0.00  0.00    +0.100 C 
ENDROOT
BRANCH   4   6
ATOM      6  C   UNL     1      33.866 -23.243 -14.850  0.00  0.00    -0.015 C 
ATOM      7  C   UNL     1      35.558 -24.365 -13.584  0.00  0.00    -0.016 C 
ATOM      8  C   UNL     1      36.829 -25.109 -13.315  0.00  0.00    -0.002 C 
ATOM      9  C   UNL     1      34.817 -24.125 -12.432  0.00  0.00    +0.016 C 
ATOM     10  C   UNL     1      36.821 -25.329 -11.793  0.00  0.00    +0.021 C 
ATOM     11  C   UNL     1      35.087 -23.923 -14.809  0.00  0.00    +0.053 C 
ATOM     12  C   UNL     1      35.543 -24.692 -11.315  0.00  0.00    +0.107 C 
ATOM     13  C   UNL     1      33.132 -23.010 -13.674  0.00  0.00    -0.004 C 
ATOM     14  C   UNL     1      33.608 -23.455 -12.441  0.00  0.00    +0.001 C 
BRANCH  12  15
ATOM     15  N   UNL     1      35.191 -24.681 -10.076  0.00  0.00    -0.135 NA
BRANCH  15  16
ATOM     16  O   UNL     1      35.961 -23.727  -9.406  0.00  0.00    -0.265 OA
ATOM     17  H   UNL     1      35.979 -22.842  -9.711  0.00  0.00    +0.247 HD
ENDBRANCH  15  16
ENDBRANCH  12  15
ENDBRANCH   4   6
BRANCH   1  19
ATOM     18  N   UNL     1      34.430 -19.049 -21.091  0.00  0.00    +0.384 N 
ATOM     19  C   UNL     1      33.669 -21.301 -19.390  0.00  0.00    +0.092 C 
ATOM     20  C   UNL     1      32.650 -20.252 -19.864  0.00  0.00    -0.002 C 
ATOM     21  C   UNL     1      35.086 -20.706 -19.374  0.00  0.00    -0.002 C 
ATOM     22  C   UNL     1      33.088 -19.624 -21.186  0.00  0.00    -0.080 C 
ATOM     23  C   UNL     1      35.422 -20.060 -20.718  0.00  0.00    -0.080 C 
ATOM     24  H   UNL     1      34.426 -18.314 -20.384  0.00  0.00    -0.085 HD
ATOM     25  H   UNL     1      34.684 -18.675 -22.004  0.00  0.00    -0.085 HD
ENDBRANCH   1  19
BRANCH   5  27
ATOM     26  N   UNL     1      28.499 -24.105 -14.791  0.00  0.00    -0.242 NA
ATOM     27  C   UNL     1      30.843 -23.209 -16.010  0.00  0.00    +0.022 C 
ATOM     28  C   UNL     1      30.816 -24.450 -15.389  0.00  0.00    +0.022 C 
ATOM     29  C   UNL     1      29.706 -22.413 -16.026  0.00  0.00    +0.022 C 
ATOM     30  C   UNL     1      29.628 -24.849 -14.798  0.00  0.00    +0.099 C 
ATOM     31  C   UNL     1      28.568 -22.903 -15.407  0.00  0.00    +0.099 C 
ENDBRANCH   5  27
TORSDOF 5
ENDMDL
MODEL 2
REMARK VINA RESULT:     -10.8      3.534      7.642
REMARK  Name = 11653652
REMARK  5 active torsions:
REMARK  status: ('A' for Active; 'I' for Inactive)
REMARK    1  A    between atoms: N_1  and  C_19
REMARK    2  A    between atoms: C_4  and  C_7
REMARK    3  A    between atoms: C_5  and  C_27
REMARK    4  A    between atoms: N_6  and  C_13
REMARK    5  A    between atoms: N_6  and  O_16
REMARK                            x       y       z     vdW  Elec       q    Type
REMARK                         _______ _______ _______ _____ _____    ______ ____
ROOT
ATOM      1  N   UNL     1      36.361 -23.201 -15.062  0.00  0.00    -0.212 N 
ATOM      2  N   UNL     1      35.084 -23.351 -14.671  0.00  0.00    -0.178 NA
ATOM      3  C   UNL     1      36.501 -22.533 -16.244  0.00  0.00    +0.085 C 
ATOM      4  C   UNL     1      35.228 -22.228 -16.650  0.00  0.00    +0.032 C 
ATOM      5  C   UNL     1      34.395 -22.753 -15.647  0.00  0.00    +0.100 C 
ENDROOT
BRANCH   4   6
ATOM      6  C   UNL     1      34.934 -21.517 -17.863  0.00  0.00    -0.015 C 
ATOM      7  C   UNL     1      35.615 -20.053 -19.630  0.00  0.00    -0.016 C 
ATOM      8  C   UNL     1      36.515 -19.162 -20.427  0.00  0.00    -0.002 C 
ATOM      9  C   UNL     1      34.343 -20.170 -20.180  0.00  0.00    +0.016 C 
ATOM     10  C   UNL     1      35.640 -18.699 -21.604  0.00  0.00    +0.021 C 
ATOM     11  C   UNL     1      35.923 -20.730 -18.461  0.00  0.00    +0.053 C 
ATOM     12  C   UNL     1      34.308 -19.365 -21.382  0.00  0.00    +0.107 C 
ATOM     13  C   UNL     1      33.654 -21.621 -18.435  0.00  0.00    -0.004 C 
ATOM     14  C   UNL     1      33.345 -20.940 -19.612  0.00  0.00    +0.001 C 
BRANCH  12  15
ATOM     15  N   UNL     1      33.308 -19.206 -22.180  0.00  0.00    -0.135 NA
BRANCH  15  16
ATOM     16  O   UNL     1      33.770 -18.598 -23.351  0.00  0.00    -0.265 OA
ATOM     17  H   UNL     1      33.175 -18.421 -24.052  0.00  0.00    +0.247 HD
ENDBRANCH  15  16
ENDBRANCH  12  15
ENDBRANCH   4   6
BRANCH   1  19
ATOM     18  N   UNL     1      39.274 -25.840 -13.354  0.00  0.00    +0.384 N 
ATOM     19  C   UNL     1      37.444 -23.737 -14.231  0.00  0.00    +0.092 C 
ATOM     20  C   UNL     1      36.986 -24.900 -13.337  0.00  0.00    -0.002 C 
ATOM     21  C   UNL     1      38.676 -24.144 -15.054  0.00  0.00    -0.002 C 
ATOM     22  C   UNL     1      38.149 -25.441 -12.508  0.00  0.00    -0.080 C 
ATOM     23  C   UNL     1      39.770 -24.716 -14.152  0.00  0.00    -0.080 C 
ATOM     24  H   UNL     1      38.969 -26.583 -13.983  0.00  0.00    -0.085 HD
ATOM     25  H   UNL     1      40.031 -26.162 -12.752  0.00  0.00    -0.085 HD
ENDBRANCH   1  19
BRANCH   5  27
ATOM     26  N   UNL     1      30.170 -22.605 -15.479  0.00  0.00    -0.242 NA
ATOM     27  C   UNL     1      32.956 -22.703 -15.590  0.00  0.00    +0.022 C 
ATOM     28  C   UNL     1      32.322 -22.332 -14.413  0.00  0.00    +0.022 C 
ATOM     29  C   UNL     1      32.207 -23.026 -16.713  0.00  0.00    +0.022 C 
ATOM     30  C   UNL     1      30.937 -22.299 -14.409  0.00  0.00    +0.099 C 
ATOM     31  C   UNL     1      30.827 -22.962 -16.606  0.00  0.00    +0.099 C 
ENDBRANCH   5  27
TORSDOF 5
ENDMDL
MODEL 3
REMARK VINA RESULT:     -10.7      2.705      5.487
REMARK  Name = 11653652
REMARK  5 active torsions:
REMARK  status: ('A' for Active; 'I' for Inactive)
REMARK    1  A    between atoms: N_1  and  C_19
REMARK    2  A    between atoms: C_4  and  C_7
REMARK    3  A    between atoms: C_5  and  C_27
REMARK    4  A    between atoms: N_6  and  C_13
REMARK    5  A    between atoms: N_6  and  O_16
REMARK                            x       y       z     vdW  Elec       q    Type
REMARK                         _______ _______ _______ _____ _____    ______ ____
ROOT
ATOM      1  N   UNL     1      34.862 -20.766 -19.326  0.00  0.00    -0.212 N 
ATOM      2  N   UNL     1      35.852 -20.977 -18.443  0.00  0.00    -0.178 NA
ATOM      3  C   UNL     1      33.651 -21.251 -18.924  0.00  0.00    +0.085 C 
ATOM      4  C   UNL     1      33.869 -21.817 -17.695  0.00  0.00    +0.032 C 
ATOM      5  C   UNL     1      35.239 -21.620 -17.446  0.00  0.00    +0.100 C 
ENDROOT
BRANCH   4   6
ATOM      6  C   UNL     1      32.836 -22.446 -16.920  0.00  0.00    -0.015 C 
ATOM      7  C   UNL     1      30.528 -22.676 -16.333  0.00  0.00    -0.016 C 
ATOM      8  C   UNL     1      29.054 -22.411 -16.357  0.00  0.00    -0.002 C 
ATOM      9  C   UNL     1      30.885 -23.667 -15.425  0.00  0.00    +0.016 C 
ATOM     10  C   UNL     1      28.480 -23.387 -15.317  0.00  0.00    +0.021 C 
ATOM     11  C   UNL     1      31.505 -22.055 -17.093  0.00  0.00    +0.053 C 
ATOM     12  C   UNL     1      29.675 -24.132 -14.781  0.00  0.00    +0.107 C 
ATOM     13  C   UNL     1      33.177 -23.450 -15.996  0.00  0.00    -0.004 C 
ATOM     14  C   UNL     1      32.191 -24.075 -15.232  0.00  0.00    +0.001 C 
BRANCH  12  15
ATOM     15  N   UNL     1      29.579 -25.044 -13.876  0.00  0.00    -0.135 NA
BRANCH  15  16
ATOM     16  O   UNL     1      28.248 -25.464 -13.811  0.00  0.00    -0.265 OA
ATOM     17  H   UNL     1      28.046 -26.378 -13.789  0.00  0.00    +0.247 HD
ENDBRANCH  15  16
ENDBRANCH  12  15
ENDBRANCH   4   6
BRANCH   1  19
ATOM     18  N   UNL     1      35.269 -17.700 -22.292  0.00  0.00    +0.384 N 
ATOM     19  C   UNL     1      35.145 -20.068 -20.584  0.00  0.00    +0.092 C 
ATOM     20  C   UNL     1      33.889 -19.446 -21.215  0.00  0.00    -0.002 C 
ATOM     21  C   UNL     1      36.253 -19.012 -20.440  0.00  0.00    -0.002 C 
ATOM     22  C   UNL     1      34.234 -18.711 -22.508  0.00  0.00    -0.080 C 
ATOM     23  C   UNL     1      36.500 -18.295 -21.767  0.00  0.00    -0.080 C 
ATOM     24  H   UNL     1      34.924 -17.009 -21.625  0.00  0.00    -0.085 HD
ATOM     25  H   UNL     1      35.483 -17.263 -23.188  0.00  0.00    -0.085 HD
ENDBRANCH   1  19
BRANCH   5  27
ATOM     26  N   UNL     1      37.426 -22.820 -14.029  0.00  0.00    -0.242 NA
ATOM     27  C   UNL     1      35.984 -22.029 -16.283  0.00  0.00    +0.022 C 
ATOM     28  C   UNL     1      35.370 -22.046 -15.038  0.00  0.00    +0.022 C 
ATOM     29  C   UNL     1      37.314 -22.405 -16.409  0.00  0.00    +0.022 C 
ATOM     30  C   UNL     1      36.129 -22.446 -13.950  0.00  0.00    +0.099 C 
ATOM     31  C   UNL     1      37.986 -22.790 -15.260  0.00  0.00    +0.099 C 
ENDBRANCH   5  27
TORSDOF 5
ENDMDL
MODEL 4
REMARK VINA RESULT:     -10.4      3.168      7.946
REMARK  Name = 11653652
REMARK  5 active torsions:
REMARK  status: ('A' for Active; 'I' for Inactive)
REMARK    1  A    between atoms: N_1  and  C_19
REMARK    2  A    between atoms: C_4  and  C_7
REMARK    3  A    between atoms: C_5  and  C_27
REMARK    4  A    between atoms: N_6  and  C_13
REMARK    5  A    between atoms: N_6  and  O_16
REMARK                            x       y       z     vdW  Elec       q    Type
REMARK                         _______ _______ _______ _____ _____    ______ ____
ROOT
ATOM      1  N   UNL     1      31.802 -23.252 -15.339  0.00  0.00    -0.212 N 
ATOM      2  N   UNL     1      32.964 -23.615 -14.771  0.00  0.00    -0.178 NA
ATOM      3  C   UNL     1      31.951 -22.522 -16.482  0.00  0.00    +0.085 C 
ATOM      4  C   UNL     1      33.304 -22.401 -16.670  0.00  0.00    +0.032 C 
ATOM      5  C   UNL     1      33.880 -23.091 -15.590  0.00  0.00    +0.100 C 
ENDROOT
BRANCH   4   6
ATOM      6  C   UNL     1      33.888 -21.695 -17.776  0.00  0.00    -0.015 C 
ATOM      7  C   UNL     1      33.647 -20.432 -19.795  0.00  0.00    -0.016 C 
ATOM      8  C   UNL     1      32.954 -19.738 -20.926  0.00  0.00    -0.002 C 
ATOM      9  C   UNL     1      35.033 -20.352 -19.879  0.00  0.00    +0.016 C 
ATOM     10  C   UNL     1      34.102 -19.177 -21.783  0.00  0.00    +0.021 C 
ATOM     11  C   UNL     1      33.059 -21.107 -18.738  0.00  0.00    +0.053 C 
ATOM     12  C   UNL     1      35.360 -19.598 -21.070  0.00  0.00    +0.107 C 
ATOM     13  C   UNL     1      35.287 -21.602 -17.879  0.00  0.00    -0.004 C 
ATOM     14  C   UNL     1      35.877 -20.922 -18.944  0.00  0.00    +0.001 C 
BRANCH  12  15
ATOM     15  N   UNL     1      36.537 -19.304 -21.503  0.00  0.00    -0.135 NA
BRANCH  15  16
ATOM     16  O   UNL     1      37.034 -18.241 -20.745  0.00  0.00    -0.265 OA
ATOM     17  H   UNL     1      37.515 -18.410 -19.960  0.00  0.00    +0.247 HD
ENDBRANCH  15  16
ENDBRANCH  12  15
ENDBRANCH   4   6
BRANCH   1  19
ATOM     18  N   UNL     1      28.517 -25.603 -13.908  0.00  0.00    +0.384 N 
ATOM     19  C   UNL     1      30.534 -23.650 -14.719  0.00  0.00    +0.092 C 
ATOM     20  C   UNL     1      29.555 -24.281 -15.723  0.00  0.00    -0.002 C 
ATOM     21  C   UNL     1      30.731 -24.573 -13.507  0.00  0.00    -0.002 C 
ATOM     22  C   UNL     1      28.259 -24.700 -15.031  0.00  0.00    -0.080 C 
ATOM     23  C   UNL     1      29.385 -24.980 -12.906  0.00  0.00    -0.080 C 
ATOM     24  H   UNL     1      28.970 -26.447 -14.259  0.00  0.00    -0.085 HD
ATOM     25  H   UNL     1      27.626 -25.825 -13.465  0.00  0.00    -0.085 HD
ENDBRANCH   1  19
BRANCH   5  27
ATOM     26  N   UNL     1      38.000 -23.609 -14.779  0.00  0.00    -0.242 NA
ATOM     27  C   UNL     1      35.283 -23.267 -15.314  0.00  0.00    +0.022 C 
ATOM     28  C   UNL     1      35.778 -24.530 -15.024  0.00  0.00    +0.022 C 
ATOM     29  C   UNL     1      36.137 -22.173 -15.338  0.00  0.00    +0.022 C 
ATOM     30  C   UNL     1      37.134 -24.648 -14.765  0.00  0.00    +0.099 C 
ATOM     31  C   UNL     1      37.476 -22.396 -15.066  0.00  0.00    +0.099 C 
ENDBRANCH   5  27
TORSDOF 5
ENDMDL
MODEL 5
REMARK VINA RESULT:     -10.4      3.327      7.319
REMARK  Name = 11653652
REMARK  5 active torsions:
REMARK  status: ('A' for Active; 'I' for Inactive)
REMARK    1  A    between atoms: N_1  and  C_19
REMARK    2  A    between atoms: C_4  and  C_7
REMARK    3  A    between atoms: C_5  and  C_27
REMARK    4  A    between atoms: N_6  and  C_13
REMARK    5  A    between atoms: N_6  and  O_16
REMARK                            x       y       z     vdW  Elec       q    Type
REMARK                         _______ _______ _______ _____ _____    ______ ____
ROOT
ATOM      1  N   UNL     1      34.793 -24.034 -14.612  0.00  0.00    -0.212 N 
ATOM      2  N   UNL     1      33.489 -23.944 -14.300  0.00  0.00    -0.178 NA
ATOM      3  C   UNL     1      35.132 -23.380 -15.761  0.00  0.00    +0.085 C 
ATOM      4  C   UNL     1      33.969 -22.826 -16.229  0.00  0.00    +0.032 C 
ATOM      5  C   UNL     1      32.990 -23.203 -15.294  0.00  0.00    +0.100 C 
ENDROOT
BRANCH   4   6
ATOM      6  C   UNL     1      33.893 -22.045 -17.432  0.00  0.00    -0.015 C 
ATOM      7  C   UNL     1      34.962 -20.763 -19.146  0.00  0.00    -0.016 C 
ATOM      8  C   UNL     1      36.076 -20.105 -19.900  0.00  0.00    -0.002 C 
ATOM      9  C   UNL     1      33.718 -20.557 -19.731  0.00  0.00    +0.016 C 
ATOM     10  C   UNL     1      35.376 -19.424 -21.088  0.00  0.00    +0.021 C 
ATOM     11  C   UNL     1      35.062 -21.514 -17.987  0.00  0.00    +0.053 C 
ATOM     12  C   UNL     1      33.915 -19.748 -20.915  0.00  0.00    +0.107 C 
ATOM     13  C   UNL     1      32.644 -21.825 -18.038  0.00  0.00    -0.004 C 
ATOM     14  C   UNL     1      32.546 -21.070 -19.207  0.00  0.00    +0.001 C 
BRANCH  12  15
ATOM     15  N   UNL     1      33.009 -19.338 -21.734  0.00  0.00    -0.135 NA
BRANCH  15  16
ATOM     16  O   UNL     1      33.641 -18.770 -22.844  0.00  0.00    -0.265 OA
ATOM     17  H   UNL     1      34.575 -18.793 -22.914  0.00  0.00    +0.247 HD
ENDBRANCH  15  16
ENDBRANCH  12  15
ENDBRANCH   4   6
BRANCH   1  19
ATOM     18  N   UNL     1      38.336 -25.671 -12.843  0.00  0.00    +0.384 N 
ATOM     19  C   UNL     1      35.699 -24.787 -13.739  0.00  0.00    +0.092 C 
ATOM     20  C   UNL     1      36.507 -25.851 -14.498  0.00  0.00    -0.002 C 
ATOM     21  C   UNL     1      36.635 -23.876 -12.930  0.00  0.00    -0.002 C 
ATOM     22  C   UNL     1      37.452 -26.594 -13.555  0.00  0.00    -0.080 C 
ATOM     23  C   UNL     1      37.576 -24.702 -12.051  0.00  0.00    -0.080 C 
ATOM     24  H   UNL     1      38.907 -25.168 -13.523  0.00  0.00    -0.085 HD
ATOM     25  H   UNL     1      38.921 -26.213 -12.208  0.00  0.00    -0.085 HD
ENDBRANCH   1  19
BRANCH   5  27
ATOM     26  N   UNL     1      28.869 -22.247 -15.365  0.00  0.00    -0.242 NA
ATOM     27  C   UNL     1      31.586 -22.877 -15.318  0.00  0.00    +0.022 C 
ATOM     28  C   UNL     1      31.018 -22.184 -14.259  0.00  0.00    +0.022 C 
ATOM     29  C   UNL     1      30.805 -23.258 -16.401  0.00  0.00    +0.022 C 
ATOM     30  C   UNL     1      29.665 -21.895 -14.329  0.00  0.00    +0.099 C 
ATOM     31  C   UNL     1      29.462 -22.921 -16.375  0.00  0.00    +0.099 C 
ENDBRANCH   5  27
TORSDOF 5
ENDMDL
MODEL 6
REMARK VINA RESULT:     -10.4      3.389      7.638
REMARK  Name = 11653652
REMARK  5 active torsions:
REMARK  status: ('A' for Active; 'I' for Inactive)
REMARK    1  A    between atoms: N_1  and  C_19
REMARK    2  A    between atoms: C_4  and  C_7
REMARK    3  A    between atoms: C_5  and  C_27
REMARK    4  A    between atoms: N_6  and  C_13
REMARK    5  A    between atoms: N_6  and  O_16
REMARK                            x       y       z     vdW  Elec       q    Type
REMARK                         _______ _______ _______ _____ _____    ______ ____
ROOT
ATOM      1  N   UNL     1      36.015 -23.302 -14.720  0.00  0.00    -0.212 N 
ATOM      2  N   UNL     1      34.715 -23.417 -14.402  0.00  0.00    -0.178 NA
ATOM      3  C   UNL     1      36.239 -22.663 -15.905  0.00  0.00    +0.085 C 
ATOM      4  C   UNL     1      34.999 -22.341 -16.392  0.00  0.00    +0.032 C 
ATOM      5  C   UNL     1      34.097 -22.827 -15.429  0.00  0.00    +0.100 C 
ENDROOT
BRANCH   4   6
ATOM      6  C   UNL     1      34.792 -21.650 -17.634  0.00  0.00    -0.015 C 
ATOM      7  C   UNL     1      33.318 -20.786 -19.310  0.00  0.00    -0.016 C 
ATOM      8  C   UNL     1      32.025 -20.472 -19.996  0.00  0.00    -0.002 C 
ATOM      9  C   UNL     1      34.428 -20.327 -20.011  0.00  0.00    +0.016 C 
ATOM     10  C   UNL     1      32.448 -19.727 -21.273  0.00  0.00    +0.021 C 
ATOM     11  C   UNL     1      33.491 -21.454 -18.109  0.00  0.00    +0.053 C 
ATOM     12  C   UNL     1      33.952 -19.676 -21.213  0.00  0.00    +0.107 C 
ATOM     13  C   UNL     1      35.901 -21.179 -18.358  0.00  0.00    -0.004 C 
ATOM     14  C   UNL     1      35.725 -20.505 -19.567  0.00  0.00    +0.001 C 
BRANCH  12  15
ATOM     15  N   UNL     1      34.667 -19.119 -22.128  0.00  0.00    -0.135 NA
BRANCH  15  16
ATOM     16  O   UNL     1      33.814 -18.644 -23.128  0.00  0.00    -0.265 OA
ATOM     17  H   UNL     1      33.068 -19.149 -23.385  0.00  0.00    +0.247 HD
ENDBRANCH  15  16
ENDBRANCH  12  15
ENDBRANCH   4   6
BRANCH   1  19
ATOM     18  N   UNL     1      38.851 -25.925 -12.864  0.00  0.00    +0.384 N 
ATOM     19  C   UNL     1      37.036 -23.842 -13.816  0.00  0.00    +0.092 C 
ATOM     20  C   UNL     1      36.539 -25.059 -13.019  0.00  0.00    -0.002 C 
ATOM     21  C   UNL     1      38.352 -24.172 -14.537  0.00  0.00    -0.002 C 
ATOM     22  C   UNL     1      37.640 -25.602 -12.109  0.00  0.00    -0.080 C 
ATOM     23  C   UNL     1      39.378 -24.751 -13.563  0.00  0.00    -0.080 C 
ATOM     24  H   UNL     1      38.631 -26.648 -13.550  0.00  0.00    -0.085 HD
ATOM     25  H   UNL     1      39.560 -26.251 -12.208  0.00  0.00    -0.085 HD
ENDBRANCH   1  19
BRANCH   5  27
ATOM     26  N   UNL     1      29.874 -22.589 -15.515  0.00  0.00    -0.242 NA
ATOM     27  C   UNL     1      32.659 -22.746 -15.458  0.00  0.00    +0.022 C 
ATOM     28  C   UNL     1      31.969 -23.089 -16.612  0.00  0.00    +0.022 C 
ATOM     29  C   UNL     1      31.966 -22.324 -14.332  0.00  0.00    +0.022 C 
ATOM     30  C   UNL     1      30.587 -22.994 -16.590  0.00  0.00    +0.099 C 
ATOM     31  C   UNL     1      30.585 -22.263 -14.411  0.00  0.00    +0.099 C 
ENDBRANCH   5  27
TORSDOF 5
ENDMDL
MODEL 7
REMARK VINA RESULT:      -9.6      3.665      8.257
REMARK  Name = 11653652
REMARK  5 active torsions:
REMARK  status: ('A' for Active; 'I' for Inactive)
REMARK    1  A    between atoms: N_1  and  C_19
REMARK    2  A    between atoms: C_4  and  C_7
REMARK    3  A    between atoms: C_5  and  C_27
REMARK    4  A    between atoms: N_6  and  C_13
REMARK    5  A    between atoms: N_6  and  O_16
REMARK                            x       y       z     vdW  Elec       q    Type
REMARK                         _______ _______ _______ _____ _____    ______ ____
ROOT
ATOM      1  N   UNL     1      31.891 -23.327 -16.155  0.00  0.00    -0.212 N 
ATOM      2  N   UNL     1      33.113 -23.350 -15.596  0.00  0.00    -0.178 NA
ATOM      3  C   UNL     1      31.821 -22.588 -17.299  0.00  0.00    +0.085 C 
ATOM      4  C   UNL     1      33.085 -22.095 -17.500  0.00  0.00    +0.032 C 
ATOM      5  C   UNL     1      33.839 -22.594 -16.424  0.00  0.00    +0.100 C 
ENDROOT
BRANCH   4   6
ATOM      6  C   UNL     1      33.440 -21.258 -18.612  0.00  0.00    -0.015 C 
ATOM      7  C   UNL     1      35.103 -20.167 -19.942  0.00  0.00    -0.016 C 
ATOM      8  C   UNL     1      36.468 -19.742 -20.388  0.00  0.00    -0.002 C 
ATOM      9  C   UNL     1      34.088 -19.655 -20.743  0.00  0.00    +0.016 C 
ATOM     10  C   UNL     1      36.203 -18.861 -21.621  0.00  0.00    +0.021 C 
ATOM     11  C   UNL     1      34.786 -20.978 -18.865  0.00  0.00    +0.053 C 
ATOM     12  C   UNL     1      34.705 -18.854 -21.779  0.00  0.00    +0.107 C 
ATOM     13  C   UNL     1      32.429 -20.730 -19.433  0.00  0.00    -0.004 C 
ATOM     14  C   UNL     1      32.749 -19.915 -20.519  0.00  0.00    +0.001 C 
BRANCH  12  15
ATOM     15  N   UNL     1      34.107 -18.209 -22.720  0.00  0.00    -0.135 NA
BRANCH  15  16
ATOM     16  O   UNL     1      34.902 -17.118 -23.082  0.00  0.00    -0.265 OA
ATOM     17  H   UNL     1      35.337 -17.111 -23.912  0.00  0.00    +0.247 HD
ENDBRANCH  15  16
ENDBRANCH  12  15
ENDBRANCH   4   6
BRANCH   1  19
ATOM     18  N   UNL     1      28.550 -24.329 -13.665  0.00  0.00    +0.384 N 
ATOM     19  C   UNL     1      30.789 -24.060 -15.523  0.00  0.00    +0.092 C 
ATOM     20  C   UNL     1      30.998 -24.262 -14.014  0.00  0.00    -0.002 C 
ATOM     21  C   UNL     1      29.418 -23.421 -15.796  0.00  0.00    -0.002 C 
ATOM     22  C   UNL     1      29.817 -25.008 -13.395  0.00  0.00    -0.080 C 
ATOM     23  C   UNL     1      28.303 -24.204 -15.103  0.00  0.00    -0.080 C 
ATOM     24  H   UNL     1      28.579 -23.397 -13.252  0.00  0.00    -0.085 HD
ATOM     25  H   UNL     1      27.797 -24.883 -13.259  0.00  0.00    -0.085 HD
ENDBRANCH   1  19
BRANCH   5  27
ATOM     26  N   UNL     1      37.947 -21.940 -15.649  0.00  0.00    -0.242 NA
ATOM     27  C   UNL     1      35.238 -22.371 -16.160  0.00  0.00    +0.022 C 
ATOM     28  C   UNL     1      35.969 -23.317 -15.456  0.00  0.00    +0.022 C 
ATOM     29  C   UNL     1      35.852 -21.211 -16.611  0.00  0.00    +0.022 C 
ATOM     30  C   UNL     1      37.311 -23.057 -15.228  0.00  0.00    +0.099 C 
ATOM     31  C   UNL     1      37.198 -21.044 -16.331  0.00  0.00    +0.099 C 
ENDBRANCH   5  27
TORSDOF 5
ENDMDL
MODEL 8
REMARK VINA RESULT:      -8.7     13.644     18.816
REMARK  Name = 11653652
REMARK  5 active torsions:
REMARK  status: ('A' for Active; 'I' for Inactive)
REMARK    1  A    between atoms: N_1  and  C_19
REMARK    2  A    between atoms: C_4  and  C_7
REMARK    3  A    between atoms: C_5  and  C_27
REMARK    4  A    between atoms: N_6  and  C_13
REMARK    5  A    between atoms: N_6  and  O_16
REMARK                            x       y       z     vdW  Elec       q    Type
REMARK                         _______ _______ _______ _____ _____    ______ ____
ROOT
ATOM      1  N   UNL     1      31.914  -9.979 -22.556  0.00  0.00    -0.212 N 
ATOM      2  N   UNL     1      31.402  -9.105 -21.674  0.00  0.00    -0.178 NA
ATOM      3  C   UNL     1      32.380  -9.401 -23.701  0.00  0.00    +0.085 C 
ATOM      4  C   UNL     1      32.154  -8.057 -23.554  0.00  0.00    +0.032 C 
ATOM      5  C   UNL     1      31.552  -7.929 -22.291  0.00  0.00    +0.100 C 
ENDROOT
BRANCH   4   6
ATOM      6  C   UNL     1      32.505  -7.083 -24.550  0.00  0.00    -0.015 C 
ATOM      7  C   UNL     1      34.055  -5.495 -25.448  0.00  0.00    -0.016 C 
ATOM      8  C   UNL     1      35.311  -4.687 -25.557  0.00  0.00    -0.002 C 
ATOM      9  C   UNL     1      33.148  -5.227 -26.467  0.00  0.00    +0.016 C 
ATOM     10  C   UNL     1      35.099  -3.832 -26.817  0.00  0.00    +0.021 C 
ATOM     11  C   UNL     1      33.741  -6.431 -24.476  0.00  0.00    +0.053 C 
ATOM     12  C   UNL     1      33.736  -4.221 -27.326  0.00  0.00    +0.107 C 
ATOM     13  C   UNL     1      31.602  -6.796 -25.588  0.00  0.00    -0.004 C 
ATOM     14  C   UNL     1      31.921  -5.855 -26.567  0.00  0.00    +0.001 C 
BRANCH  12  15
ATOM     15  N   UNL     1      33.212  -3.702 -28.383  0.00  0.00    -0.135 NA
BRANCH  15  16
ATOM     16  O   UNL     1      33.504  -4.526 -29.472  0.00  0.00    -0.265 OA
ATOM     17  H   UNL     1      33.117  -4.353 -30.307  0.00  0.00    +0.247 HD
ENDBRANCH  15  16
ENDBRANCH  12  15
ENDBRANCH   4   6
BRANCH   1  19
ATOM     18  N   UNL     1      33.056 -13.794 -20.971  0.00  0.00    +0.384 N 
ATOM     19  C   UNL     1      31.933 -11.410 -22.235  0.00  0.00    +0.092 C 
ATOM     20  C   UNL     1      33.169 -12.130 -22.797  0.00  0.00    -0.002 C 
ATOM     21  C   UNL     1      31.791 -11.681 -20.729  0.00  0.00    -0.002 C 
ATOM     22  C   UNL     1      33.159 -13.610 -22.419  0.00  0.00    -0.080 C 
ATOM     23  C   UNL     1      31.838 -13.181 -20.437  0.00  0.00    -0.080 C 
ATOM     24  H   UNL     1      33.866 -13.365 -20.523  0.00  0.00    -0.085 HD
ATOM     25  H   UNL     1      33.021 -14.794 -20.777  0.00  0.00    -0.085 HD
ENDBRANCH   1  19
BRANCH   5  27
ATOM     26  N   UNL     1      30.261  -4.366 -20.410  0.00  0.00    -0.242 NA
ATOM     27  C   UNL     1      31.112  -6.716 -21.650  0.00  0.00    +0.022 C 
ATOM     28  C   UNL     1      30.222  -5.873 -22.300  0.00  0.00    +0.022 C 
ATOM     29  C   UNL     1      31.581  -6.392 -20.385  0.00  0.00    +0.022 C 
ATOM     30  C   UNL     1      29.829  -4.719 -21.642  0.00  0.00    +0.099 C 
ATOM     31  C   UNL     1      31.128  -5.214 -19.812  0.00  0.00    +0.099 C 
ENDBRANCH   5  27
TORSDOF 5
ENDMDL
