MODEL 1
REMARK VINA RESULT:     -11.9      0.000      0.000
REMARK  Name = 10114365
REMARK  11 active torsions:
REMARK  status: ('A' for Active; 'I' for Inactive)
REMARK    1  A    between atoms: C_3  and  N_9
REMARK    2  A    between atoms: C_4  and  C_21
REMARK    3  A    between atoms: N_9  and  C_11
REMARK    4  A    between atoms: C_11  and  C_14
REMARK    5  A    between atoms: C_14  and  C_15
REMARK    6  A    between atoms: C_21  and  C_24
REMARK    7  A    between atoms: N_23  and  C_26
REMARK    8  A    between atoms: C_26  and  C_27
REMARK    9  A    between atoms: C_27  and  O_28
REMARK   10  A    between atoms: O_28  and  N_29
REMARK   11  A    between atoms: N_29  and  C_32
REMARK                            x       y       z     vdW  Elec       q    Type
REMARK                         _______ _______ _______ _____ _____    ______ ____
ROOT
ATOM      1 CL   UNL     1      32.293 -12.978 -25.833  0.00  0.00    -0.082 Cl
ATOM      2  F   UNL     1      34.471 -13.785 -21.297  0.00  0.00    -0.203 F 
ATOM      3  C   UNL     1      34.418 -15.594 -22.827  0.00  0.00    +0.072 C 
ATOM      4  C   UNL     1      33.467 -13.453 -23.419  0.00  0.00    +0.026 C 
ATOM      5  C   UNL     1      34.124 -14.271 -22.499  0.00  0.00    +0.150 C 
ATOM      6  C   UNL     1      34.057 -16.100 -24.076  0.00  0.00    +0.017 C 
ATOM      7  C   UNL     1      33.106 -13.959 -24.667  0.00  0.00    +0.056 C 
ATOM      8  C   UNL     1      33.400 -15.283 -24.997  0.00  0.00    +0.012 C 
ENDROOT
BRANCH   3   9
ATOM      9  N   UNL     1      35.081 -16.423 -21.899  0.00  0.00    -0.326 N 
ATOM     10  H   UNL     1      36.047 -16.293 -21.758  0.00  0.00    +0.147 HD
BRANCH   9  11
ATOM     11  C   UNL     1      34.412 -17.443 -21.153  0.00  0.00    +0.159 C 
BRANCH  11  14
ATOM     12  F   UNL     1      36.452 -18.607 -21.178  0.00  0.00    -0.198 F 
ATOM     13  F   UNL     1      34.973 -19.145 -22.670  0.00  0.00    -0.198 F 
ATOM     14  C   UNL     1      35.111 -18.787 -21.359  0.00  0.00    +0.300 C 
BRANCH  14  15
ATOM     15  C   UNL     1      34.550 -19.834 -20.426  0.00  0.00    +0.039 C 
ATOM     16  C   UNL     1      35.412 -20.632 -19.674  0.00  0.00    +0.001 C 
ATOM     17  C   UNL     1      33.169 -20.002 -20.317  0.00  0.00    +0.001 C 
ATOM     18  C   UNL     1      34.894 -21.599 -18.812  0.00  0.00    -0.000 C 
ATOM     19  C   UNL     1      32.652 -20.970 -19.454  0.00  0.00    -0.000 C 
ATOM     20  C   UNL     1      33.514 -21.768 -18.703  0.00  0.00    -0.000 C 
ENDBRANCH  14  15
ENDBRANCH  11  14
ENDBRANCH   9  11
ENDBRANCH   3   9
BRANCH   4  21
ATOM     21  C   UNL     1      33.166 -12.031 -23.030  0.00  0.00    +0.114 C 
BRANCH  21  24
ATOM     22  O   UNL     1      31.520 -12.875 -21.466  0.00  0.00    -0.275 OA
ATOM     23  N   UNL     1      31.675 -10.584 -21.813  0.00  0.00    -0.302 N 
ATOM     24  C   UNL     1      32.039 -11.910 -22.021  0.00  0.00    +0.227 C 
ATOM     25  H   UNL     1      32.153  -9.880 -22.307  0.00  0.00    +0.150 HD
BRANCH  23  26
ATOM     26  C   UNL     1      30.627 -10.198 -20.906  0.00  0.00    +0.125 C 
BRANCH  26  27
ATOM     27  C   UNL     1      31.166  -9.933 -19.511  0.00  0.00    +0.197 C 
BRANCH  27  28
ATOM     28  O   UNL     1      31.255  -8.533 -19.299  0.00  0.00    -0.232 OA
BRANCH  28  29
ATOM     29  N   UNL     1      31.389  -7.911 -20.549  0.00  0.00    -0.096 NA
BRANCH  29  32
ATOM     30  N   UNL     1      33.060  -6.535 -21.573  0.00  0.00    -0.368 N 
ATOM     31  N   UNL     1      32.703  -6.424 -19.318  0.00  0.00    -0.368 N 
ATOM     32  C   UNL     1      32.334  -7.009 -20.505  0.00  0.00    +0.217 C 
ATOM     33  H   UNL     1      32.886  -6.879 -22.479  0.00  0.00    +0.159 HD
ATOM     34  H   UNL     1      33.754  -5.851 -21.432  0.00  0.00    +0.159 HD
ATOM     35  H   UNL     1      32.253  -6.683 -18.481  0.00  0.00    +0.159 HD
ATOM     36  H   UNL     1      33.417  -5.747 -19.304  0.00  0.00    +0.159 HD
ENDBRANCH  29  32
ENDBRANCH  28  29
ENDBRANCH  27  28
ENDBRANCH  26  27
ENDBRANCH  23  26
ENDBRANCH  21  24
ENDBRANCH   4  21
TORSDOF 11
ENDMDL
MODEL 2
REMARK VINA RESULT:     -11.6      1.997      2.591
REMARK  Name = 10114365
REMARK  11 active torsions:
REMARK  status: ('A' for Active; 'I' for Inactive)
REMARK    1  A    between atoms: C_3  and  N_9
REMARK    2  A    between atoms: C_4  and  C_21
REMARK    3  A    between atoms: N_9  and  C_11
REMARK    4  A    between atoms: C_11  and  C_14
REMARK    5  A    between atoms: C_14  and  C_15
REMARK    6  A    between atoms: C_21  and  C_24
REMARK    7  A    between atoms: N_23  and  C_26
REMARK    8  A    between atoms: C_26  and  C_27
REMARK    9  A    between atoms: C_27  and  O_28
REMARK   10  A    between atoms: O_28  and  N_29
REMARK   11  A    between atoms: N_29  and  C_32
REMARK                            x       y       z     vdW  Elec       q    Type
REMARK                         _______ _______ _______ _____ _____    ______ ____
ROOT
ATOM      1 CL   UNL     1      31.783 -11.964 -20.279  0.00  0.00    -0.082 Cl
ATOM      2  F   UNL     1      33.578 -14.440 -24.355  0.00  0.00    -0.203 F 
ATOM      3  C   UNL     1      34.153 -15.284 -22.216  0.00  0.00    +0.072 C 
ATOM      4  C   UNL     1      32.764 -13.319 -22.431  0.00  0.00    +0.026 C 
ATOM      5  C   UNL     1      33.499 -14.350 -23.018  0.00  0.00    +0.150 C 
ATOM      6  C   UNL     1      34.071 -15.190 -20.826  0.00  0.00    +0.017 C 
ATOM      7  C   UNL     1      32.683 -13.224 -21.042  0.00  0.00    +0.056 C 
ATOM      8  C   UNL     1      33.337 -14.160 -20.239  0.00  0.00    +0.012 C 
ENDROOT
BRANCH   3   9
ATOM      9  N   UNL     1      34.897 -16.327 -22.806  0.00  0.00    -0.326 N 
ATOM     10  H   UNL     1      35.689 -16.094 -23.343  0.00  0.00    +0.147 HD
BRANCH   9  11
ATOM     11  C   UNL     1      34.551 -17.707 -22.660  0.00  0.00    +0.159 C 
BRANCH  11  14
ATOM     12  F   UNL     1      36.222 -17.452 -21.030  0.00  0.00    -0.198 F 
ATOM     13  F   UNL     1      36.509 -18.995 -22.527  0.00  0.00    -0.198 F 
ATOM     14  C   UNL     1      35.557 -18.405 -21.746  0.00  0.00    +0.300 C 
BRANCH  14  15
ATOM     15  C   UNL     1      34.865 -19.404 -20.849  0.00  0.00    +0.039 C 
ATOM     16  C   UNL     1      33.472 -19.461 -20.812  0.00  0.00    +0.001 C 
ATOM     17  C   UNL     1      35.621 -20.270 -20.058  0.00  0.00    +0.001 C 
ATOM     18  C   UNL     1      32.833 -20.384 -19.983  0.00  0.00    -0.000 C 
ATOM     19  C   UNL     1      34.982 -21.194 -19.229  0.00  0.00    -0.000 C 
ATOM     20  C   UNL     1      33.589 -21.250 -19.191  0.00  0.00    -0.000 C 
ENDBRANCH  14  15
ENDBRANCH  11  14
ENDBRANCH   9  11
ENDBRANCH   3   9
BRANCH   4  21
ATOM     21  C   UNL     1      32.072 -12.328 -23.328  0.00  0.00    +0.114 C 
BRANCH  21  24
ATOM     22  O   UNL     1      33.992 -10.948 -23.853  0.00  0.00    -0.275 OA
ATOM     23  N   UNL     1      32.038  -9.930 -23.119  0.00  0.00    -0.302 N 
ATOM     24  C   UNL     1      32.826 -11.019 -23.473  0.00  0.00    +0.227 C 
ATOM     25  H   UNL     1      31.113 -10.092 -22.826  0.00  0.00    +0.150 HD
BRANCH  23  26
ATOM     26  C   UNL     1      32.519  -8.574 -23.162  0.00  0.00    +0.125 C 
BRANCH  26  27
ATOM     27  C   UNL     1      31.382  -7.576 -23.037  0.00  0.00    +0.197 C 
BRANCH  27  28
ATOM     28  O   UNL     1      31.422  -6.975 -21.752  0.00  0.00    -0.232 OA
BRANCH  28  29
ATOM     29  N   UNL     1      31.151  -7.969 -20.799  0.00  0.00    -0.096 NA
BRANCH  29  32
ATOM     30  N   UNL     1      32.608  -6.653 -19.427  0.00  0.00    -0.368 N 
ATOM     31  N   UNL     1      32.005  -8.760 -18.774  0.00  0.00    -0.368 N 
ATOM     32  C   UNL     1      31.886  -7.784 -19.734  0.00  0.00    +0.217 C 
ATOM     33  H   UNL     1      32.602  -5.883 -20.040  0.00  0.00    +0.159 HD
ATOM     34  H   UNL     1      33.131  -6.615 -18.594  0.00  0.00    +0.159 HD
ATOM     35  H   UNL     1      31.532  -9.616 -18.883  0.00  0.00    +0.159 HD
ATOM     36  H   UNL     1      32.561  -8.602 -17.979  0.00  0.00    +0.159 HD
ENDBRANCH  29  32
ENDBRANCH  28  29
ENDBRANCH  27  28
ENDBRANCH  26  27
ENDBRANCH  23  26
ENDBRANCH  21  24
ENDBRANCH   4  21
TORSDOF 11
ENDMDL
MODEL 3
REMARK VINA RESULT:     -11.4      7.503     12.160
REMARK  Name = 10114365
REMARK  11 active torsions:
REMARK  status: ('A' for Active; 'I' for Inactive)
REMARK    1  A    between atoms: C_3  and  N_9
REMARK    2  A    between atoms: C_4  and  C_21
REMARK    3  A    between atoms: N_9  and  C_11
REMARK    4  A    between atoms: C_11  and  C_14
REMARK    5  A    between atoms: C_14  and  C_15
REMARK    6  A    between atoms: C_21  and  C_24
REMARK    7  A    between atoms: N_23  and  C_26
REMARK    8  A    between atoms: C_26  and  C_27
REMARK    9  A    between atoms: C_27  and  O_28
REMARK   10  A    between atoms: O_28  and  N_29
REMARK   11  A    between atoms: N_29  and  C_32
REMARK                            x       y       z     vdW  Elec       q    Type
REMARK                         _______ _______ _______ _____ _____    ______ ____
ROOT
ATOM      1 CL   UNL     1      33.235 -23.522 -15.400  0.00  0.00    -0.082 Cl
ATOM      2  F   UNL     1      36.928 -20.587 -17.325  0.00  0.00    -0.203 F 
ATOM      3  C   UNL     1      35.097 -21.113 -18.735  0.00  0.00    +0.072 C 
ATOM      4  C   UNL     1      35.187 -21.950 -16.470  0.00  0.00    +0.026 C 
ATOM      5  C   UNL     1      35.753 -21.208 -17.508  0.00  0.00    +0.150 C 
ATOM      6  C   UNL     1      33.875 -21.759 -18.925  0.00  0.00    +0.017 C 
ATOM      7  C   UNL     1      33.966 -22.596 -16.660  0.00  0.00    +0.056 C 
ATOM      8  C   UNL     1      33.310 -22.501 -17.888  0.00  0.00    +0.012 C 
ENDROOT
BRANCH   3   9
ATOM      9  N   UNL     1      35.667 -20.364 -19.785  0.00  0.00    -0.326 N 
ATOM     10  H   UNL     1      36.645 -20.259 -19.811  0.00  0.00    +0.147 HD
BRANCH   9  11
ATOM     11  C   UNL     1      34.885 -19.752 -20.815  0.00  0.00    +0.159 C 
BRANCH  11  14
ATOM     12  F   UNL     1      36.853 -18.719 -21.573  0.00  0.00    -0.198 F 
ATOM     13  F   UNL     1      35.592 -17.596 -20.212  0.00  0.00    -0.198 F 
ATOM     14  C   UNL     1      35.547 -18.454 -21.274  0.00  0.00    +0.300 C 
BRANCH  14  15
ATOM     15  C   UNL     1      34.809 -17.859 -22.449  0.00  0.00    +0.039 C 
ATOM     16  C   UNL     1      34.111 -18.689 -23.327  0.00  0.00    +0.001 C 
ATOM     17  C   UNL     1      34.824 -16.479 -22.657  0.00  0.00    +0.001 C 
ATOM     18  C   UNL     1      33.429 -18.139 -24.413  0.00  0.00    -0.000 C 
ATOM     19  C   UNL     1      34.141 -15.930 -23.742  0.00  0.00    -0.000 C 
ATOM     20  C   UNL     1      33.445 -16.760 -24.621  0.00  0.00    -0.000 C 
ENDBRANCH  14  15
ENDBRANCH  11  14
ENDBRANCH   9  11
ENDBRANCH   3   9
BRANCH   4  21
ATOM     21  C   UNL     1      35.924 -22.030 -15.159  0.00  0.00    +0.114 C 
BRANCH  21  24
ATOM     22  O   UNL     1      38.154 -22.933 -15.435  0.00  0.00    -0.275 OA
ATOM     23  N   UNL     1      36.449 -24.339 -14.722  0.00  0.00    -0.302 N 
ATOM     24  C   UNL     1      36.979 -23.120 -15.129  0.00  0.00    +0.227 C 
ATOM     25  H   UNL     1      35.491 -24.386 -14.498  0.00  0.00    +0.150 HD
BRANCH  23  26
ATOM     26  C   UNL     1      37.240 -25.536 -14.614  0.00  0.00    +0.125 C 
BRANCH  26  27
ATOM     27  C   UNL     1      37.207 -26.100 -13.205  0.00  0.00    +0.197 C 
BRANCH  27  28
ATOM     28  O   UNL     1      36.409 -25.264 -12.381  0.00  0.00    -0.232 OA
BRANCH  28  29
ATOM     29  N   UNL     1      37.250 -24.649 -11.441  0.00  0.00    -0.096 NA
BRANCH  29  32
ATOM     30  N   UNL     1      35.882 -23.464  -9.873  0.00  0.00    -0.368 N 
ATOM     31  N   UNL     1      36.879 -22.350 -11.603  0.00  0.00    -0.368 N 
ATOM     32  C   UNL     1      36.692 -23.560 -10.981  0.00  0.00    +0.217 C 
ATOM     33  H   UNL     1      35.674 -24.267  -9.343  0.00  0.00    +0.159 HD
ATOM     34  H   UNL     1      35.510 -22.591  -9.610  0.00  0.00    +0.159 HD
ATOM     35  H   UNL     1      37.441 -22.292 -12.409  0.00  0.00    +0.159 HD
ATOM     36  H   UNL     1      36.451 -21.540 -11.241  0.00  0.00    +0.159 HD
ENDBRANCH  29  32
ENDBRANCH  28  29
ENDBRANCH  27  28
ENDBRANCH  26  27
ENDBRANCH  23  26
ENDBRANCH  21  24
ENDBRANCH   4  21
TORSDOF 11
ENDMDL
MODEL 4
REMARK VINA RESULT:     -11.3      6.593     10.693
REMARK  Name = 10114365
REMARK  11 active torsions:
REMARK  status: ('A' for Active; 'I' for Inactive)
REMARK    1  A    between atoms: C_3  and  N_9
REMARK    2  A    between atoms: C_4  and  C_21
REMARK    3  A    between atoms: N_9  and  C_11
REMARK    4  A    between atoms: C_11  and  C_14
REMARK    5  A    between atoms: C_14  and  C_15
REMARK    6  A    between atoms: C_21  and  C_24
REMARK    7  A    between atoms: N_23  and  C_26
REMARK    8  A    between atoms: C_26  and  C_27
REMARK    9  A    between atoms: C_27  and  O_28
REMARK   10  A    between atoms: O_28  and  N_29
REMARK   11  A    between atoms: N_29  and  C_32
REMARK                            x       y       z     vdW  Elec       q    Type
REMARK                         _______ _______ _______ _____ _____    ______ ____
ROOT
ATOM      1 CL   UNL     1      35.534 -22.802 -15.642  0.00  0.00    -0.082 Cl
ATOM      2  F   UNL     1      32.772 -21.859 -19.818  0.00  0.00    -0.203 F 
ATOM      3  C   UNL     1      34.828 -20.705 -19.579  0.00  0.00    +0.072 C 
ATOM      4  C   UNL     1      34.089 -22.268 -17.890  0.00  0.00    +0.026 C 
ATOM      5  C   UNL     1      33.882 -21.614 -19.106  0.00  0.00    +0.150 C 
ATOM      6  C   UNL     1      35.982 -20.451 -18.838  0.00  0.00    +0.017 C 
ATOM      7  C   UNL     1      35.242 -22.012 -17.149  0.00  0.00    +0.056 C 
ATOM      8  C   UNL     1      36.190 -21.103 -17.623  0.00  0.00    +0.012 C 
ENDROOT
BRANCH   3   9
ATOM      9  N   UNL     1      34.621 -20.043 -20.806  0.00  0.00    -0.326 N 
ATOM     10  H   UNL     1      34.778 -20.541 -21.642  0.00  0.00    +0.147 HD
BRANCH   9  11
ATOM     11  C   UNL     1      34.193 -18.682 -20.891  0.00  0.00    +0.159 C 
BRANCH  11  14
ATOM     12  F   UNL     1      34.953 -18.577 -23.111  0.00  0.00    -0.198 F 
ATOM     13  F   UNL     1      36.354 -18.037 -21.546  0.00  0.00    -0.198 F 
ATOM     14  C   UNL     1      35.043 -17.927 -21.914  0.00  0.00    +0.300 C 
BRANCH  14  15
ATOM     15  C   UNL     1      34.606 -16.486 -22.019  0.00  0.00    +0.039 C 
ATOM     16  C   UNL     1      34.556 -15.861 -23.265  0.00  0.00    +0.001 C 
ATOM     17  C   UNL     1      34.251 -15.780 -20.869  0.00  0.00    +0.001 C 
ATOM     18  C   UNL     1      34.152 -14.529 -23.362  0.00  0.00    -0.000 C 
ATOM     19  C   UNL     1      33.846 -14.448 -20.967  0.00  0.00    -0.000 C 
ATOM     20  C   UNL     1      33.798 -13.823 -22.213  0.00  0.00    -0.000 C 
ENDBRANCH  14  15
ENDBRANCH  11  14
ENDBRANCH   9  11
ENDBRANCH   3   9
BRANCH   4  21
ATOM     21  C   UNL     1      33.046 -23.242 -17.411  0.00  0.00    +0.114 C 
BRANCH  21  24
ATOM     22  O   UNL     1      31.020 -21.932 -17.201  0.00  0.00    -0.275 OA
ATOM     23  N   UNL     1      32.006 -22.798 -15.285  0.00  0.00    -0.302 N 
ATOM     24  C   UNL     1      31.909 -22.581 -16.655  0.00  0.00    +0.227 C 
ATOM     25  H   UNL     1      32.759 -23.333 -14.945  0.00  0.00    +0.150 HD
BRANCH  23  26
ATOM     26  C   UNL     1      31.054 -22.272 -14.343  0.00  0.00    +0.125 C 
BRANCH  26  27
ATOM     27  C   UNL     1      30.213 -23.376 -13.727  0.00  0.00    +0.197 C 
BRANCH  27  28
ATOM     28  O   UNL     1      28.997 -23.499 -14.448  0.00  0.00    -0.232 OA
BRANCH  28  29
ATOM     29  N   UNL     1      28.630 -22.224 -14.903  0.00  0.00    -0.096 NA
BRANCH  29  32
ATOM     30  N   UNL     1      27.898 -22.842 -17.098  0.00  0.00    -0.368 N 
ATOM     31  N   UNL     1      26.433 -21.894 -15.622  0.00  0.00    -0.368 N 
ATOM     32  C   UNL     1      27.720 -22.323 -15.836  0.00  0.00    +0.217 C 
ATOM     33  H   UNL     1      28.781 -23.184 -17.370  0.00  0.00    +0.159 HD
ATOM     34  H   UNL     1      27.143 -22.872 -17.729  0.00  0.00    +0.159 HD
ATOM     35  H   UNL     1      26.183 -21.503 -14.754  0.00  0.00    +0.159 HD
ATOM     36  H   UNL     1      25.761 -21.978 -16.336  0.00  0.00    +0.159 HD
ENDBRANCH  29  32
ENDBRANCH  28  29
ENDBRANCH  27  28
ENDBRANCH  26  27
ENDBRANCH  23  26
ENDBRANCH  21  24
ENDBRANCH   4  21
TORSDOF 11
ENDMDL
MODEL 5
REMARK VINA RESULT:     -11.3      6.650     11.145
REMARK  Name = 10114365
REMARK  11 active torsions:
REMARK  status: ('A' for Active; 'I' for Inactive)
REMARK    1  A    between atoms: C_3  and  N_9
REMARK    2  A    between atoms: C_4  and  C_21
REMARK    3  A    between atoms: N_9  and  C_11
REMARK    4  A    between atoms: C_11  and  C_14
REMARK    5  A    between atoms: C_14  and  C_15
REMARK    6  A    between atoms: C_21  and  C_24
REMARK    7  A    between atoms: N_23  and  C_26
REMARK    8  A    between atoms: C_26  and  C_27
REMARK    9  A    between atoms: C_27  and  O_28
REMARK   10  A    between atoms: O_28  and  N_29
REMARK   11  A    between atoms: N_29  and  C_32
REMARK                            x       y       z     vdW  Elec       q    Type
REMARK                         _______ _______ _______ _____ _____    ______ ____
ROOT
ATOM      1 CL   UNL     1      35.390 -22.867 -15.792  0.00  0.00    -0.082 Cl
ATOM      2  F   UNL     1      32.585 -21.795 -19.909  0.00  0.00    -0.203 F 
ATOM      3  C   UNL     1      34.678 -20.703 -19.692  0.00  0.00    +0.072 C 
ATOM      4  C   UNL     1      33.923 -22.264 -18.008  0.00  0.00    +0.026 C 
ATOM      5  C   UNL     1      33.714 -21.590 -19.213  0.00  0.00    +0.150 C 
ATOM      6  C   UNL     1      35.852 -20.491 -18.968  0.00  0.00    +0.017 C 
ATOM      7  C   UNL     1      35.096 -22.051 -17.285  0.00  0.00    +0.056 C 
ATOM      8  C   UNL     1      36.061 -21.164 -17.765  0.00  0.00    +0.012 C 
ENDROOT
BRANCH   3   9
ATOM      9  N   UNL     1      34.469 -20.021 -20.908  0.00  0.00    -0.326 N 
ATOM     10  H   UNL     1      34.202 -20.542 -21.700  0.00  0.00    +0.147 HD
BRANCH   9  11
ATOM     11  C   UNL     1      34.629 -18.606 -21.041  0.00  0.00    +0.159 C 
BRANCH  11  14
ATOM     12  F   UNL     1      34.662 -19.263 -23.296  0.00  0.00    -0.198 F 
ATOM     13  F   UNL     1      36.433 -18.289 -22.510  0.00  0.00    -0.198 F 
ATOM     14  C   UNL     1      35.068 -18.260 -22.464  0.00  0.00    +0.300 C 
BRANCH  14  15
ATOM     15  C   UNL     1      34.518 -16.919 -22.885  0.00  0.00    +0.039 C 
ATOM     16  C   UNL     1      34.028 -16.741 -24.179  0.00  0.00    +0.001 C 
ATOM     17  C   UNL     1      34.500 -15.857 -21.981  0.00  0.00    +0.001 C 
ATOM     18  C   UNL     1      33.520 -15.501 -24.569  0.00  0.00    -0.000 C 
ATOM     19  C   UNL     1      33.991 -14.617 -22.371  0.00  0.00    -0.000 C 
ATOM     20  C   UNL     1      33.502 -14.440 -23.665  0.00  0.00    -0.000 C 
ENDBRANCH  14  15
ENDBRANCH  11  14
ENDBRANCH   9  11
ENDBRANCH   3   9
BRANCH   4  21
ATOM     21  C   UNL     1      32.861 -23.213 -17.522  0.00  0.00    +0.114 C 
BRANCH  21  24
ATOM     22  O   UNL     1      30.881 -21.845 -17.249  0.00  0.00    -0.275 OA
ATOM     23  N   UNL     1      31.879 -22.772 -15.368  0.00  0.00    -0.302 N 
ATOM     24  C   UNL     1      31.760 -22.530 -16.733  0.00  0.00    +0.227 C 
ATOM     25  H   UNL     1      32.622 -23.336 -15.052  0.00  0.00    +0.150 HD
BRANCH  23  26
ATOM     26  C   UNL     1      30.963 -22.234 -14.399  0.00  0.00    +0.125 C 
BRANCH  26  27
ATOM     27  C   UNL     1      30.989 -23.029 -13.106  0.00  0.00    +0.197 C 
BRANCH  27  28
ATOM     28  O   UNL     1      32.289 -22.964 -12.539  0.00  0.00    -0.232 OA
BRANCH  28  29
ATOM     29  N   UNL     1      32.990 -24.116 -12.926  0.00  0.00    -0.096 NA
BRANCH  29  32
ATOM     30  N   UNL     1      35.282 -24.802 -13.021  0.00  0.00    -0.368 N 
ATOM     31  N   UNL     1      34.653 -23.081 -11.654  0.00  0.00    -0.368 N 
ATOM     32  C   UNL     1      34.243 -24.023 -12.568  0.00  0.00    +0.217 C 
ATOM     33  H   UNL     1      35.113 -25.513 -13.681  0.00  0.00    +0.159 HD
ATOM     34  H   UNL     1      36.196 -24.649 -12.686  0.00  0.00    +0.159 HD
ATOM     35  H   UNL     1      33.997 -22.463 -11.258  0.00  0.00    +0.159 HD
ATOM     36  H   UNL     1      35.601 -23.025 -11.397  0.00  0.00    +0.159 HD
ENDBRANCH  29  32
ENDBRANCH  28  29
ENDBRANCH  27  28
ENDBRANCH  26  27
ENDBRANCH  23  26
ENDBRANCH  21  24
ENDBRANCH   4  21
TORSDOF 11
ENDMDL
MODEL 6
REMARK VINA RESULT:     -11.1      7.303     12.506
REMARK  Name = 10114365
REMARK  11 active torsions:
REMARK  status: ('A' for Active; 'I' for Inactive)
REMARK    1  A    between atoms: C_3  and  N_9
REMARK    2  A    between atoms: C_4  and  C_21
REMARK    3  A    between atoms: N_9  and  C_11
REMARK    4  A    between atoms: C_11  and  C_14
REMARK    5  A    between atoms: C_14  and  C_15
REMARK    6  A    between atoms: C_21  and  C_24
REMARK    7  A    between atoms: N_23  and  C_26
REMARK    8  A    between atoms: C_26  and  C_27
REMARK    9  A    between atoms: C_27  and  O_28
REMARK   10  A    between atoms: O_28  and  N_29
REMARK   11  A    between atoms: N_29  and  C_32
REMARK                            x       y       z     vdW  Elec       q    Type
REMARK                         _______ _______ _______ _____ _____    ______ ____
ROOT
ATOM      1 CL   UNL     1      33.028 -23.218 -15.205  0.00  0.00    -0.082 Cl
ATOM      2  F   UNL     1      36.620 -20.693 -17.790  0.00  0.00    -0.203 F 
ATOM      3  C   UNL     1      34.616 -21.231 -18.936  0.00  0.00    +0.072 C 
ATOM      4  C   UNL     1      34.921 -21.867 -16.625  0.00  0.00    +0.026 C 
ATOM      5  C   UNL     1      35.402 -21.255 -17.784  0.00  0.00    +0.150 C 
ATOM      6  C   UNL     1      33.350 -21.816 -18.929  0.00  0.00    +0.017 C 
ATOM      7  C   UNL     1      33.656 -22.453 -16.619  0.00  0.00    +0.056 C 
ATOM      8  C   UNL     1      32.870 -22.428 -17.772  0.00  0.00    +0.012 C 
ENDROOT
BRANCH   3   9
ATOM      9  N   UNL     1      35.099 -20.614 -20.108  0.00  0.00    -0.326 N 
ATOM     10  H   UNL     1      35.900 -20.989 -20.542  0.00  0.00    +0.147 HD
BRANCH   9  11
ATOM     11  C   UNL     1      34.476 -19.468 -20.696  0.00  0.00    +0.159 C 
BRANCH  11  14
ATOM     12  F   UNL     1      35.984 -19.266 -22.484  0.00  0.00    -0.198 F 
ATOM     13  F   UNL     1      36.604 -18.487 -20.556  0.00  0.00    -0.198 F 
ATOM     14  C   UNL     1      35.525 -18.597 -21.386  0.00  0.00    +0.300 C 
BRANCH  14  15
ATOM     15  C   UNL     1      34.951 -17.248 -21.746  0.00  0.00    +0.039 C 
ATOM     16  C   UNL     1      34.838 -16.872 -23.084  0.00  0.00    +0.001 C 
ATOM     17  C   UNL     1      34.534 -16.376 -20.739  0.00  0.00    +0.001 C 
ATOM     18  C   UNL     1      34.308 -15.625 -23.417  0.00  0.00    -0.000 C 
ATOM     19  C   UNL     1      34.003 -15.129 -21.072  0.00  0.00    -0.000 C 
ATOM     20  C   UNL     1      33.891 -14.754 -22.410  0.00  0.00    -0.000 C 
ENDBRANCH  14  15
ENDBRANCH  11  14
ENDBRANCH   9  11
ENDBRANCH   3   9
BRANCH   4  21
ATOM     21  C   UNL     1      35.797 -21.875 -15.401  0.00  0.00    +0.114 C 
BRANCH  21  24
ATOM     22  O   UNL     1      37.866 -23.131 -15.498  0.00  0.00    -0.275 OA
ATOM     23  N   UNL     1      35.905 -24.231 -14.916  0.00  0.00    -0.302 N 
ATOM     24  C   UNL     1      36.656 -23.120 -15.285  0.00  0.00    +0.227 C 
ATOM     25  H   UNL     1      34.939 -24.119 -14.768  0.00  0.00    +0.150 HD
BRANCH  23  26
ATOM     26  C   UNL     1      36.481 -25.538 -14.742  0.00  0.00    +0.125 C 
BRANCH  26  27
ATOM     27  C   UNL     1      36.760 -25.835 -13.280  0.00  0.00    +0.197 C 
BRANCH  27  28
ATOM     28  O   UNL     1      38.095 -26.294 -13.139  0.00  0.00    -0.232 OA
BRANCH  28  29
ATOM     29  N   UNL     1      38.705 -26.252 -14.401  0.00  0.00    -0.096 NA
BRANCH  29  32
ATOM     30  N   UNL     1      40.387 -24.577 -14.716  0.00  0.00    -0.368 N 
ATOM     31  N   UNL     1      40.917 -26.565 -13.721  0.00  0.00    -0.368 N 
ATOM     32  C   UNL     1      39.929 -25.804 -14.296  0.00  0.00    +0.217 C 
ATOM     33  H   UNL     1      39.771 -23.940 -15.145  0.00  0.00    +0.159 HD
ATOM     34  H   UNL     1      41.334 -24.335 -14.589  0.00  0.00    +0.159 HD
ATOM     35  H   UNL     1      40.709 -27.465 -13.380  0.00  0.00    +0.159 HD
ATOM     36  H   UNL     1      41.832 -26.211 -13.649  0.00  0.00    +0.159 HD
ENDBRANCH  29  32
ENDBRANCH  28  29
ENDBRANCH  27  28
ENDBRANCH  26  27
ENDBRANCH  23  26
ENDBRANCH  21  24
ENDBRANCH   4  21
TORSDOF 11
ENDMDL
MODEL 7
REMARK VINA RESULT:     -11.0      3.712     10.225
REMARK  Name = 10114365
REMARK  11 active torsions:
REMARK  status: ('A' for Active; 'I' for Inactive)
REMARK    1  A    between atoms: C_3  and  N_9
REMARK    2  A    between atoms: C_4  and  C_21
REMARK    3  A    between atoms: N_9  and  C_11
REMARK    4  A    between atoms: C_11  and  C_14
REMARK    5  A    between atoms: C_14  and  C_15
REMARK    6  A    between atoms: C_21  and  C_24
REMARK    7  A    between atoms: N_23  and  C_26
REMARK    8  A    between atoms: C_26  and  C_27
REMARK    9  A    between atoms: C_27  and  O_28
REMARK   10  A    between atoms: O_28  and  N_29
REMARK   11  A    between atoms: N_29  and  C_32
REMARK                            x       y       z     vdW  Elec       q    Type
REMARK                         _______ _______ _______ _____ _____    ______ ____
ROOT
ATOM      1 CL   UNL     1      34.254 -15.689 -20.768  0.00  0.00    -0.082 Cl
ATOM      2  F   UNL     1      33.042 -12.200 -24.279  0.00  0.00    -0.203 F 
ATOM      3  C   UNL     1      32.056 -11.988 -22.134  0.00  0.00    +0.072 C 
ATOM      4  C   UNL     1      33.578 -13.802 -22.615  0.00  0.00    +0.026 C 
ATOM      5  C   UNL     1      32.894 -12.657 -23.026  0.00  0.00    +0.150 C 
ATOM      6  C   UNL     1      31.903 -12.462 -20.832  0.00  0.00    +0.017 C 
ATOM      7  C   UNL     1      33.423 -14.276 -21.313  0.00  0.00    +0.056 C 
ATOM      8  C   UNL     1      32.585 -13.607 -20.421  0.00  0.00    +0.012 C 
ENDROOT
BRANCH   3   9
ATOM      9  N   UNL     1      31.363 -10.831 -22.547  0.00  0.00    -0.326 N 
ATOM     10  H   UNL     1      30.865 -10.859 -23.395  0.00  0.00    +0.147 HD
BRANCH   9  11
ATOM     11  C   UNL     1      31.354  -9.620 -21.786  0.00  0.00    +0.159 C 
BRANCH  11  14
ATOM     12  F   UNL     1      31.275  -8.612 -23.906  0.00  0.00    -0.198 F 
ATOM     13  F   UNL     1      33.158  -8.540 -22.831  0.00  0.00    -0.198 F 
ATOM     14  C   UNL     1      31.806  -8.449 -22.659  0.00  0.00    +0.300 C 
BRANCH  14  15
ATOM     15  C   UNL     1      31.403  -7.131 -22.042  0.00  0.00    +0.039 C 
ATOM     16  C   UNL     1      32.010  -6.699 -20.862  0.00  0.00    +0.001 C 
ATOM     17  C   UNL     1      30.425  -6.346 -22.651  0.00  0.00    +0.001 C 
ATOM     18  C   UNL     1      31.638  -5.481 -20.291  0.00  0.00    -0.000 C 
ATOM     19  C   UNL     1      30.053  -5.127 -22.081  0.00  0.00    -0.000 C 
ATOM     20  C   UNL     1      30.659  -4.696 -20.901  0.00  0.00    -0.000 C 
ENDBRANCH  14  15
ENDBRANCH  11  14
ENDBRANCH   9  11
ENDBRANCH   3   9
BRANCH   4  21
ATOM     21  C   UNL     1      34.474 -14.498 -23.605  0.00  0.00    +0.114 C 
BRANCH  21  24
ATOM     22  O   UNL     1      33.117 -15.339 -25.426  0.00  0.00    -0.275 OA
ATOM     23  N   UNL     1      33.930 -16.831 -23.844  0.00  0.00    -0.302 N 
ATOM     24  C   UNL     1      33.762 -15.571 -24.408  0.00  0.00    +0.227 C 
ATOM     25  H   UNL     1      34.467 -16.913 -23.023  0.00  0.00    +0.150 HD
BRANCH  23  26
ATOM     26  C   UNL     1      33.351 -18.021 -24.409  0.00  0.00    +0.125 C 
BRANCH  26  27
ATOM     27  C   UNL     1      34.019 -19.275 -23.873  0.00  0.00    +0.197 C 
BRANCH  27  28
ATOM     28  O   UNL     1      34.965 -18.915 -22.879  0.00  0.00    -0.232 OA
BRANCH  28  29
ATOM     29  N   UNL     1      34.365 -19.095 -21.623  0.00  0.00    -0.096 NA
BRANCH  29  32
ATOM     30  N   UNL     1      35.214 -20.291 -19.729  0.00  0.00    -0.368 N 
ATOM     31  N   UNL     1      36.445 -18.614 -20.677  0.00  0.00    -0.368 N 
ATOM     32  C   UNL     1      35.277 -19.336 -20.718  0.00  0.00    +0.217 C 
ATOM     33  H   UNL     1      34.423 -20.873 -19.656  0.00  0.00    +0.159 HD
ATOM     34  H   UNL     1      35.959 -20.392 -19.094  0.00  0.00    +0.159 HD
ATOM     35  H   UNL     1      36.606 -17.901 -21.336  0.00  0.00    +0.159 HD
ATOM     36  H   UNL     1      37.121 -18.810 -19.989  0.00  0.00    +0.159 HD
ENDBRANCH  29  32
ENDBRANCH  28  29
ENDBRANCH  27  28
ENDBRANCH  26  27
ENDBRANCH  23  26
ENDBRANCH  21  24
ENDBRANCH   4  21
TORSDOF 11
ENDMDL
MODEL 8
REMARK VINA RESULT:     -11.0      2.089      2.697
REMARK  Name = 10114365
REMARK  11 active torsions:
REMARK  status: ('A' for Active; 'I' for Inactive)
REMARK    1  A    between atoms: C_3  and  N_9
REMARK    2  A    between atoms: C_4  and  C_21
REMARK    3  A    between atoms: N_9  and  C_11
REMARK    4  A    between atoms: C_11  and  C_14
REMARK    5  A    between atoms: C_14  and  C_15
REMARK    6  A    between atoms: C_21  and  C_24
REMARK    7  A    between atoms: N_23  and  C_26
REMARK    8  A    between atoms: C_26  and  C_27
REMARK    9  A    between atoms: C_27  and  O_28
REMARK   10  A    between atoms: O_28  and  N_29
REMARK   11  A    between atoms: N_29  and  C_32
REMARK                            x       y       z     vdW  Elec       q    Type
REMARK                         _______ _______ _______ _____ _____    ______ ____
ROOT
ATOM      1 CL   UNL     1      31.808 -11.993 -20.231  0.00  0.00    -0.082 Cl
ATOM      2  F   UNL     1      33.605 -14.430 -24.329  0.00  0.00    -0.203 F 
ATOM      3  C   UNL     1      34.197 -15.282 -22.198  0.00  0.00    +0.072 C 
ATOM      4  C   UNL     1      32.791 -13.327 -22.395  0.00  0.00    +0.026 C 
ATOM      5  C   UNL     1      33.531 -14.348 -22.992  0.00  0.00    +0.150 C 
ATOM      6  C   UNL     1      34.120 -15.197 -20.808  0.00  0.00    +0.017 C 
ATOM      7  C   UNL     1      32.716 -13.241 -21.006  0.00  0.00    +0.056 C 
ATOM      8  C   UNL     1      33.380 -14.176 -20.211  0.00  0.00    +0.012 C 
ENDROOT
BRANCH   3   9
ATOM      9  N   UNL     1      34.946 -16.315 -22.799  0.00  0.00    -0.326 N 
ATOM     10  H   UNL     1      35.767 -16.077 -23.288  0.00  0.00    +0.147 HD
BRANCH   9  11
ATOM     11  C   UNL     1      34.566 -17.692 -22.727  0.00  0.00    +0.159 C 
BRANCH  11  14
ATOM     12  F   UNL     1      36.317 -17.562 -21.168  0.00  0.00    -0.198 F 
ATOM     13  F   UNL     1      36.427 -19.123 -22.671  0.00  0.00    -0.198 F 
ATOM     14  C   UNL     1      35.554 -18.464 -21.853  0.00  0.00    +0.300 C 
BRANCH  14  15
ATOM     15  C   UNL     1      34.827 -19.408 -20.925  0.00  0.00    +0.039 C 
ATOM     16  C   UNL     1      33.433 -19.454 -20.929  0.00  0.00    +0.001 C 
ATOM     17  C   UNL     1      35.551 -20.234 -20.064  0.00  0.00    +0.001 C 
ATOM     18  C   UNL     1      32.761 -20.327 -20.072  0.00  0.00    -0.000 C 
ATOM     19  C   UNL     1      34.879 -21.106 -19.208  0.00  0.00    -0.000 C 
ATOM     20  C   UNL     1      33.485 -21.152 -19.211  0.00  0.00    -0.000 C 
ENDBRANCH  14  15
ENDBRANCH  11  14
ENDBRANCH   9  11
ENDBRANCH   3   9
BRANCH   4  21
ATOM     21  C   UNL     1      32.087 -12.336 -23.284  0.00  0.00    +0.114 C 
BRANCH  21  24
ATOM     22  O   UNL     1      33.940 -10.832 -23.695  0.00  0.00    -0.275 OA
ATOM     23  N   UNL     1      31.926  -9.959 -22.938  0.00  0.00    -0.302 N 
ATOM     24  C   UNL     1      32.774 -10.985 -23.340  0.00  0.00    +0.227 C 
ATOM     25  H   UNL     1      31.006 -10.185 -22.671  0.00  0.00    +0.150 HD
BRANCH  23  26
ATOM     26  C   UNL     1      32.336  -8.580 -22.895  0.00  0.00    +0.125 C 
BRANCH  26  27
ATOM     27  C   UNL     1      31.729  -7.855 -21.708  0.00  0.00    +0.197 C 
BRANCH  27  28
ATOM     28  O   UNL     1      32.691  -6.970 -21.155  0.00  0.00    -0.232 OA
BRANCH  28  29
ATOM     29  N   UNL     1      32.902  -5.929 -22.072  0.00  0.00    -0.096 NA
BRANCH  29  32
ATOM     30  N   UNL     1      31.658  -4.401 -20.711  0.00  0.00    -0.368 N 
ATOM     31  N   UNL     1      31.299  -4.487 -22.967  0.00  0.00    -0.368 N 
ATOM     32  C   UNL     1      32.007  -4.991 -21.904  0.00  0.00    +0.217 C 
ATOM     33  H   UNL     1      32.098  -4.680 -19.876  0.00  0.00    +0.159 HD
ATOM     34  H   UNL     1      30.967  -3.699 -20.693  0.00  0.00    +0.159 HD
ATOM     35  H   UNL     1      31.461  -4.831 -23.875  0.00  0.00    +0.159 HD
ATOM     36  H   UNL     1      30.629  -3.780 -22.821  0.00  0.00    +0.159 HD
ENDBRANCH  29  32
ENDBRANCH  28  29
ENDBRANCH  27  28
ENDBRANCH  26  27
ENDBRANCH  23  26
ENDBRANCH  21  24
ENDBRANCH   4  21
TORSDOF 11
ENDMDL
MODEL 9
REMARK VINA RESULT:     -10.9      8.570     12.783
REMARK  Name = 10114365
REMARK  11 active torsions:
REMARK  status: ('A' for Active; 'I' for Inactive)
REMARK    1  A    between atoms: C_3  and  N_9
REMARK    2  A    between atoms: C_4  and  C_21
REMARK    3  A    between atoms: N_9  and  C_11
REMARK    4  A    between atoms: C_11  and  C_14
REMARK    5  A    between atoms: C_14  and  C_15
REMARK    6  A    between atoms: C_21  and  C_24
REMARK    7  A    between atoms: N_23  and  C_26
REMARK    8  A    between atoms: C_26  and  C_27
REMARK    9  A    between atoms: C_27  and  O_28
REMARK   10  A    between atoms: O_28  and  N_29
REMARK   11  A    between atoms: N_29  and  C_32
REMARK                            x       y       z     vdW  Elec       q    Type
REMARK                         _______ _______ _______ _____ _____    ______ ____
ROOT
ATOM      1 CL   UNL     1      31.048 -23.025 -13.118  0.00  0.00    -0.082 Cl
ATOM      2  F   UNL     1      34.879 -22.632 -16.455  0.00  0.00    -0.203 F 
ATOM      3  C   UNL     1      32.669 -22.483 -17.298  0.00  0.00    +0.072 C 
ATOM      4  C   UNL     1      33.066 -22.810 -14.937  0.00  0.00    +0.026 C 
ATOM      5  C   UNL     1      33.556 -22.641 -16.233  0.00  0.00    +0.150 C 
ATOM      6  C   UNL     1      31.293 -22.492 -17.068  0.00  0.00    +0.017 C 
ATOM      7  C   UNL     1      31.691 -22.820 -14.708  0.00  0.00    +0.056 C 
ATOM      8  C   UNL     1      30.804 -22.661 -15.773  0.00  0.00    +0.012 C 
ENDROOT
BRANCH   3   9
ATOM      9  N   UNL     1      33.161 -22.313 -18.609  0.00  0.00    -0.326 N 
ATOM     10  H   UNL     1      33.353 -23.115 -19.147  0.00  0.00    +0.147 HD
BRANCH   9  11
ATOM     11  C   UNL     1      33.392 -21.027 -19.190  0.00  0.00    +0.159 C 
BRANCH  11  14
ATOM     12  F   UNL     1      35.289 -22.091 -20.074  0.00  0.00    -0.198 F 
ATOM     13  F   UNL     1      35.595 -20.676 -18.459  0.00  0.00    -0.198 F 
ATOM     14  C   UNL     1      34.860 -20.888 -19.591  0.00  0.00    +0.300 C 
BRANCH  14  15
ATOM     15  C   UNL     1      35.041 -19.778 -20.598  0.00  0.00    +0.039 C 
ATOM     16  C   UNL     1      36.236 -19.061 -20.639  0.00  0.00    +0.001 C 
ATOM     17  C   UNL     1      34.011 -19.470 -21.488  0.00  0.00    +0.001 C 
ATOM     18  C   UNL     1      36.403 -18.034 -21.569  0.00  0.00    -0.000 C 
ATOM     19  C   UNL     1      34.179 -18.444 -22.419  0.00  0.00    -0.000 C 
ATOM     20  C   UNL     1      35.374 -17.726 -22.459  0.00  0.00    -0.000 C 
ENDBRANCH  14  15
ENDBRANCH  11  14
ENDBRANCH   9  11
ENDBRANCH   3   9
BRANCH   4  21
ATOM     21  C   UNL     1      34.053 -22.977 -13.813  0.00  0.00    +0.114 C 
BRANCH  21  24
ATOM     22  O   UNL     1      36.407 -23.263 -14.306  0.00  0.00    -0.275 OA
ATOM     23  N   UNL     1      34.993 -25.099 -14.454  0.00  0.00    -0.302 N 
ATOM     24  C   UNL     1      35.289 -23.762 -14.210  0.00  0.00    +0.227 C 
ATOM     25  H   UNL     1      34.063 -25.403 -14.350  0.00  0.00    +0.150 HD
BRANCH  23  26
ATOM     26  C   UNL     1      35.990 -26.058 -14.852  0.00  0.00    +0.125 C 
BRANCH  26  27
ATOM     27  C   UNL     1      36.636 -26.721 -13.649  0.00  0.00    +0.197 C 
BRANCH  27  28
ATOM     28  O   UNL     1      37.893 -26.114 -13.395  0.00  0.00    -0.232 OA
BRANCH  28  29
ATOM     29  N   UNL     1      38.674 -26.228 -14.556  0.00  0.00    -0.096 NA
BRANCH  29  32
ATOM     30  N   UNL     1      38.883 -24.006 -15.422  0.00  0.00    -0.368 N 
ATOM     31  N   UNL     1      40.628 -24.975 -14.307  0.00  0.00    -0.368 N 
ATOM     32  C   UNL     1      39.340 -25.123 -14.761  0.00  0.00    +0.217 C 
ATOM     33  H   UNL     1      37.972 -23.992 -15.795  0.00  0.00    +0.159 HD
ATOM     34  H   UNL     1      39.469 -23.220 -15.523  0.00  0.00    +0.159 HD
ATOM     35  H   UNL     1      41.064 -25.709 -13.817  0.00  0.00    +0.159 HD
ATOM     36  H   UNL     1      41.114 -24.135 -14.470  0.00  0.00    +0.159 HD
ENDBRANCH  29  32
ENDBRANCH  28  29
ENDBRANCH  27  28
ENDBRANCH  26  27
ENDBRANCH  23  26
ENDBRANCH  21  24
ENDBRANCH   4  21
TORSDOF 11
ENDMDL
