MODEL 1
REMARK VINA RESULT:     -12.6      0.000      0.000
REMARK  Name = 16040294
REMARK  4 active torsions:
REMARK  status: ('A' for Active; 'I' for Inactive)
REMARK    1  A    between atoms: N_6  and  C_21
REMARK    2  A    between atoms: C_7  and  C_30
REMARK    3  A    between atoms: C_24  and  C_27
REMARK    4  A    between atoms: C_27  and  C_29
REMARK                            x       y       z     vdW  Elec       q    Type
REMARK                         _______ _______ _______ _____ _____    ______ ____
ROOT
ATOM      1  N   UNL     1      30.565 -23.065 -16.365  0.00  0.00    -0.239 N 
ATOM      2  N   UNL     1      31.883 -23.029 -16.107  0.00  0.00    -0.166 NA
ATOM      3  N   UNL     1      33.053 -22.835 -14.021  0.00  0.00    -0.271 N 
ATOM      4  N   UNL     1      34.769 -22.349 -15.556  0.00  0.00    -0.312 NA
ATOM      5  N   UNL     1      37.066 -22.861 -15.036  0.00  0.00    -0.332 NA
ATOM      6  N   UNL     1      36.483 -21.870 -17.080  0.00  0.00    -0.238 N 
ATOM      7  C   UNL     1      29.781 -22.975 -15.252  0.00  0.00    +0.045 C 
ATOM      8  C   UNL     1      30.648 -22.873 -14.191  0.00  0.00    +0.048 C 
ATOM      9  C   UNL     1      31.889 -22.914 -14.803  0.00  0.00    +0.152 C 
ATOM     10  C   UNL     1      34.431 -22.851 -14.353  0.00  0.00    +0.201 C 
ATOM     11  C   UNL     1      35.346 -23.371 -13.444  0.00  0.00    +0.072 C 
ATOM     12  C   UNL     1      36.693 -23.354 -13.842  0.00  0.00    +0.131 C 
ATOM     13  C   UNL     1      36.084 -22.385 -15.828  0.00  0.00    +0.204 C 
ATOM     14  C   UNL     1      34.968 -23.889 -12.192  0.00  0.00    +0.006 C 
ATOM     15  C   UNL     1      37.638 -23.867 -12.956  0.00  0.00    +0.086 C 
ATOM     16  C   UNL     1      35.934 -24.395 -11.328  0.00  0.00    -0.004 C 
ATOM     17  C   UNL     1      37.270 -24.384 -11.710  0.00  0.00    -0.019 C 
ATOM     18  H   UNL     1      30.197 -23.149 -17.275  0.00  0.00    +0.174 HD
ATOM     19  H   UNL     1      32.878 -22.751 -13.057  0.00  0.00    +0.156 HD
ATOM     20  H   UNL     1      37.453 -21.918 -17.237  0.00  0.00    +0.166 HD
ENDROOT
BRANCH   6  21
ATOM     21  C   UNL     1      35.764 -21.301 -18.148  0.00  0.00    +0.058 C 
ATOM     22  C   UNL     1      34.429 -21.652 -18.360  0.00  0.00    +0.015 C 
ATOM     23  C   UNL     1      36.383 -20.383 -18.999  0.00  0.00    +0.015 C 
ATOM     24  C   UNL     1      34.338 -20.171 -20.267  0.00  0.00    -0.007 C 
ATOM     25  C   UNL     1      33.717 -21.088 -19.419  0.00  0.00    -0.002 C 
ATOM     26  C   UNL     1      35.671 -19.819 -20.057  0.00  0.00    -0.002 C 
BRANCH  24  27
ATOM     27  C   UNL     1      33.577 -19.568 -21.399  0.00  0.00    +0.132 C 
BRANCH  27  29
ATOM     28  N   UNL     1      34.977 -17.780 -22.733  0.00  0.00    -0.196 NA
ATOM     29  C   UNL     1      34.365 -18.570 -22.145  0.00  0.00    +0.078 C 
ENDBRANCH  27  29
ENDBRANCH  24  27
ENDBRANCH   6  21
BRANCH   7  30
ATOM     30  C   UNL     1      28.259 -22.987 -15.206  0.00  0.00    +0.037 C 
ATOM     31  C   UNL     1      27.485 -23.061 -16.498  0.00  0.00    +0.006 C 
ATOM     32  C   UNL     1      27.499 -21.785 -15.707  0.00  0.00    +0.006 C 
ENDBRANCH   7  30
TORSDOF 4
ENDMDL
MODEL 2
REMARK VINA RESULT:     -12.4      1.690      6.814
REMARK  Name = 16040294
REMARK  4 active torsions:
REMARK  status: ('A' for Active; 'I' for Inactive)
REMARK    1  A    between atoms: N_6  and  C_21
REMARK    2  A    between atoms: C_7  and  C_30
REMARK    3  A    between atoms: C_24  and  C_27
REMARK    4  A    between atoms: C_27  and  C_29
REMARK                            x       y       z     vdW  Elec       q    Type
REMARK                         _______ _______ _______ _____ _____    ______ ____
ROOT
ATOM      1  N   UNL     1      31.567 -22.956 -14.519  0.00  0.00    -0.239 N 
ATOM      2  N   UNL     1      32.512 -22.494 -15.355  0.00  0.00    -0.166 NA
ATOM      3  N   UNL     1      32.501 -22.272 -17.744  0.00  0.00    -0.271 N 
ATOM      4  N   UNL     1      34.795 -22.039 -17.273  0.00  0.00    -0.312 NA
ATOM      5  N   UNL     1      36.213 -20.704 -18.693  0.00  0.00    -0.332 NA
ATOM      6  N   UNL     1      37.079 -21.801 -16.809  0.00  0.00    -0.238 N 
ATOM      7  C   UNL     1      30.424 -23.359 -15.147  0.00  0.00    +0.045 C 
ATOM      8  C   UNL     1      30.639 -23.146 -16.487  0.00  0.00    +0.048 C 
ATOM      9  C   UNL     1      31.920 -22.624 -16.515  0.00  0.00    +0.152 C 
ATOM     10  C   UNL     1      33.766 -21.727 -18.083  0.00  0.00    +0.201 C 
ATOM     11  C   UNL     1      33.880 -20.917 -19.208  0.00  0.00    +0.072 C 
ATOM     12  C   UNL     1      35.163 -20.413 -19.480  0.00  0.00    +0.131 C 
ATOM     13  C   UNL     1      35.972 -21.501 -17.631  0.00  0.00    +0.204 C 
ATOM     14  C   UNL     1      32.789 -20.606 -20.039  0.00  0.00    +0.006 C 
ATOM     15  C   UNL     1      35.316 -19.598 -20.600  0.00  0.00    +0.086 C 
ATOM     16  C   UNL     1      32.972 -19.790 -21.150  0.00  0.00    -0.004 C 
ATOM     17  C   UNL     1      34.236 -19.285 -21.431  0.00  0.00    -0.019 C 
ATOM     18  H   UNL     1      31.687 -22.999 -13.543  0.00  0.00    +0.174 HD
ATOM     19  H   UNL     1      31.919 -22.435 -18.520  0.00  0.00    +0.156 HD
ATOM     20  H   UNL     1      37.919 -21.386 -17.109  0.00  0.00    +0.166 HD
ENDROOT
BRANCH   6  21
ATOM     21  C   UNL     1      37.216 -22.579 -15.644  0.00  0.00    +0.058 C 
ATOM     22  C   UNL     1      38.289 -23.464 -15.513  0.00  0.00    +0.015 C 
ATOM     23  C   UNL     1      36.281 -22.467 -14.613  0.00  0.00    +0.015 C 
ATOM     24  C   UNL     1      37.489 -24.119 -13.331  0.00  0.00    -0.007 C 
ATOM     25  C   UNL     1      38.424 -24.233 -14.359  0.00  0.00    -0.002 C 
ATOM     26  C   UNL     1      36.417 -23.236 -13.459  0.00  0.00    -0.002 C 
BRANCH  24  27
ATOM     27  C   UNL     1      37.633 -24.943 -12.096  0.00  0.00    +0.132 C 
BRANCH  27  29
ATOM     28  N   UNL     1      35.497 -24.836 -10.559  0.00  0.00    -0.196 NA
ATOM     29  C   UNL     1      36.441 -24.883 -11.232  0.00  0.00    +0.078 C 
ENDBRANCH  27  29
ENDBRANCH  24  27
ENDBRANCH   6  21
BRANCH   7  30
ATOM     30  C   UNL     1      29.174 -23.927 -14.488  0.00  0.00    +0.037 C 
ATOM     31  C   UNL     1      29.313 -24.737 -13.224  0.00  0.00    +0.006 C 
ATOM     32  C   UNL     1      28.944 -25.416 -14.510  0.00  0.00    +0.006 C 
ENDBRANCH   7  30
TORSDOF 4
ENDMDL
MODEL 3
REMARK VINA RESULT:     -12.1      2.035      7.404
REMARK  Name = 16040294
REMARK  4 active torsions:
REMARK  status: ('A' for Active; 'I' for Inactive)
REMARK    1  A    between atoms: N_6  and  C_21
REMARK    2  A    between atoms: C_7  and  C_30
REMARK    3  A    between atoms: C_24  and  C_27
REMARK    4  A    between atoms: C_27  and  C_29
REMARK                            x       y       z     vdW  Elec       q    Type
REMARK                         _______ _______ _______ _____ _____    ______ ____
ROOT
ATOM      1  N   UNL     1      34.591 -21.843 -19.361  0.00  0.00    -0.239 N 
ATOM      2  N   UNL     1      33.901 -22.376 -18.339  0.00  0.00    -0.166 NA
ATOM      3  N   UNL     1      31.795 -21.737 -17.385  0.00  0.00    -0.271 N 
ATOM      4  N   UNL     1      32.642 -23.160 -15.713  0.00  0.00    -0.312 NA
ATOM      5  N   UNL     1      31.152 -24.427 -14.304  0.00  0.00    -0.332 NA
ATOM      6  N   UNL     1      33.479 -24.580 -14.047  0.00  0.00    -0.238 N 
ATOM      7  C   UNL     1      33.981 -20.766 -19.937  0.00  0.00    +0.045 C 
ATOM      8  C   UNL     1      32.811 -20.583 -19.241  0.00  0.00    +0.048 C 
ATOM      9  C   UNL     1      32.849 -21.597 -18.301  0.00  0.00    +0.152 C 
ATOM     10  C   UNL     1      31.558 -22.657 -16.332  0.00  0.00    +0.201 C 
ATOM     11  C   UNL     1      30.249 -22.987 -15.996  0.00  0.00    +0.072 C 
ATOM     12  C   UNL     1      30.092 -23.904 -14.944  0.00  0.00    +0.131 C 
ATOM     13  C   UNL     1      32.370 -24.026 -14.724  0.00  0.00    +0.204 C 
ATOM     14  C   UNL     1      29.131 -22.447 -16.658  0.00  0.00    +0.006 C 
ATOM     15  C   UNL     1      28.795 -24.259 -14.579  0.00  0.00    +0.086 C 
ATOM     16  C   UNL     1      27.848 -22.819 -16.272  0.00  0.00    -0.004 C 
ATOM     17  C   UNL     1      27.679 -23.726 -15.232  0.00  0.00    -0.019 C 
ATOM     18  H   UNL     1      35.457 -22.197 -19.668  0.00  0.00    +0.174 HD
ATOM     19  H   UNL     1      31.082 -21.067 -17.494  0.00  0.00    +0.156 HD
ATOM     20  H   UNL     1      33.233 -25.209 -13.333  0.00  0.00    +0.166 HD
ENDROOT
BRANCH   6  21
ATOM     21  C   UNL     1      34.868 -24.407 -14.197  0.00  0.00    +0.058 C 
ATOM     22  C   UNL     1      35.470 -23.203 -13.824  0.00  0.00    +0.015 C 
ATOM     23  C   UNL     1      35.650 -25.440 -14.718  0.00  0.00    +0.015 C 
ATOM     24  C   UNL     1      37.624 -24.067 -14.493  0.00  0.00    -0.007 C 
ATOM     25  C   UNL     1      36.846 -23.033 -13.972  0.00  0.00    -0.002 C 
ATOM     26  C   UNL     1      37.026 -25.270 -14.866  0.00  0.00    -0.002 C 
BRANCH  24  27
ATOM     27  C   UNL     1      39.096 -23.885 -14.652  0.00  0.00    +0.132 C 
BRANCH  27  29
ATOM     28  N   UNL     1      40.459 -26.008 -13.896  0.00  0.00    -0.196 NA
ATOM     29  C   UNL     1      39.863 -25.072 -14.233  0.00  0.00    +0.078 C 
ENDBRANCH  27  29
ENDBRANCH  24  27
ENDBRANCH   6  21
BRANCH   7  30
ATOM     30  C   UNL     1      34.501 -19.944 -21.109  0.00  0.00    +0.037 C 
ATOM     31  C   UNL     1      35.701 -19.053 -20.907  0.00  0.00    +0.006 C 
ATOM     32  C   UNL     1      34.340 -18.445 -21.083  0.00  0.00    +0.006 C 
ENDBRANCH   7  30
TORSDOF 4
ENDMDL
MODEL 4
REMARK VINA RESULT:     -12.1      1.439      5.839
REMARK  Name = 16040294
REMARK  4 active torsions:
REMARK  status: ('A' for Active; 'I' for Inactive)
REMARK    1  A    between atoms: N_6  and  C_21
REMARK    2  A    between atoms: C_7  and  C_30
REMARK    3  A    between atoms: C_24  and  C_27
REMARK    4  A    between atoms: C_27  and  C_29
REMARK                            x       y       z     vdW  Elec       q    Type
REMARK                         _______ _______ _______ _____ _____    ______ ____
ROOT
ATOM      1  N   UNL     1      36.640 -22.495 -14.867  0.00  0.00    -0.239 N 
ATOM      2  N   UNL     1      35.346 -22.488 -15.227  0.00  0.00    -0.166 NA
ATOM      3  N   UNL     1      33.615 -24.104 -14.838  0.00  0.00    -0.271 N 
ATOM      4  N   UNL     1      32.635 -22.778 -16.518  0.00  0.00    -0.312 NA
ATOM      5  N   UNL     1      30.242 -22.518 -16.640  0.00  0.00    -0.332 NA
ATOM      6  N   UNL     1      31.653 -21.460 -18.187  0.00  0.00    -0.238 N 
ATOM      7  C   UNL     1      37.012 -23.608 -14.169  0.00  0.00    +0.045 C 
ATOM      8  C   UNL     1      35.882 -24.381 -14.067  0.00  0.00    +0.048 C 
ATOM      9  C   UNL     1      34.931 -23.627 -14.732  0.00  0.00    +0.152 C 
ATOM     10  C   UNL     1      32.450 -23.569 -15.444  0.00  0.00    +0.201 C 
ATOM     11  C   UNL     1      31.202 -23.878 -14.913  0.00  0.00    +0.072 C 
ATOM     12  C   UNL     1      30.094 -23.312 -15.565  0.00  0.00    +0.131 C 
ATOM     13  C   UNL     1      31.505 -22.294 -17.058  0.00  0.00    +0.204 C 
ATOM     14  C   UNL     1      31.034 -24.707 -13.790  0.00  0.00    +0.006 C 
ATOM     15  C   UNL     1      28.827 -23.600 -15.063  0.00  0.00    +0.086 C 
ATOM     16  C   UNL     1      29.756 -24.978 -13.310  0.00  0.00    -0.004 C 
ATOM     17  C   UNL     1      28.652 -24.423 -13.946  0.00  0.00    -0.019 C 
ATOM     18  H   UNL     1      37.263 -21.765 -15.085  0.00  0.00    +0.174 HD
ATOM     19  H   UNL     1      33.473 -24.978 -14.409  0.00  0.00    +0.156 HD
ATOM     20  H   UNL     1      30.801 -21.128 -18.548  0.00  0.00    +0.166 HD
ENDROOT
BRANCH   6  21
ATOM     21  C   UNL     1      32.783 -21.009 -18.896  0.00  0.00    +0.058 C 
ATOM     22  C   UNL     1      34.058 -21.451 -18.537  0.00  0.00    +0.015 C 
ATOM     23  C   UNL     1      32.632 -20.119 -19.961  0.00  0.00    +0.015 C 
ATOM     24  C   UNL     1      35.023 -20.116 -20.304  0.00  0.00    -0.007 C 
ATOM     25  C   UNL     1      35.176 -21.005 -19.240  0.00  0.00    -0.002 C 
ATOM     26  C   UNL     1      33.750 -19.673 -20.664  0.00  0.00    -0.002 C 
BRANCH  24  27
ATOM     27  C   UNL     1      36.219 -19.638 -21.056  0.00  0.00    +0.132 C 
BRANCH  27  29
ATOM     28  N   UNL     1      35.794 -17.336 -22.263  0.00  0.00    -0.196 NA
ATOM     29  C   UNL     1      35.986 -18.349 -21.732  0.00  0.00    +0.078 C 
ENDBRANCH  27  29
ENDBRANCH  24  27
ENDBRANCH   6  21
BRANCH   7  30
ATOM     30  C   UNL     1      38.399 -23.917 -13.621  0.00  0.00    +0.037 C 
ATOM     31  C   UNL     1      39.450 -24.471 -14.550  0.00  0.00    +0.006 C 
ATOM     32  C   UNL     1      38.839 -25.354 -13.502  0.00  0.00    +0.006 C 
ENDBRANCH   7  30
TORSDOF 4
ENDMDL
MODEL 5
REMARK VINA RESULT:     -10.3      1.688      6.234
REMARK  Name = 16040294
REMARK  4 active torsions:
REMARK  status: ('A' for Active; 'I' for Inactive)
REMARK    1  A    between atoms: N_6  and  C_21
REMARK    2  A    between atoms: C_7  and  C_30
REMARK    3  A    between atoms: C_24  and  C_27
REMARK    4  A    between atoms: C_27  and  C_29
REMARK                            x       y       z     vdW  Elec       q    Type
REMARK                         _______ _______ _______ _____ _____    ______ ____
ROOT
ATOM      1  N   UNL     1      33.638 -21.112 -18.146  0.00  0.00    -0.239 N 
ATOM      2  N   UNL     1      33.640 -21.694 -16.935  0.00  0.00    -0.166 NA
ATOM      3  N   UNL     1      35.327 -23.004 -15.843  0.00  0.00    -0.271 N 
ATOM      4  N   UNL     1      33.444 -23.484 -14.516  0.00  0.00    -0.312 NA
ATOM      5  N   UNL     1      33.690 -24.024 -12.180  0.00  0.00    -0.332 NA
ATOM      6  N   UNL     1      31.574 -23.963 -13.189  0.00  0.00    -0.238 N 
ATOM      7  C   UNL     1      34.787 -21.308 -18.855  0.00  0.00    +0.045 C 
ATOM      8  C   UNL     1      35.597 -22.073 -18.050  0.00  0.00    +0.048 C 
ATOM      9  C   UNL     1      34.823 -22.254 -16.918  0.00  0.00    +0.152 C 
ATOM     10  C   UNL     1      34.782 -23.354 -14.582  0.00  0.00    +0.201 C 
ATOM     11  C   UNL     1      35.635 -23.541 -13.499  0.00  0.00    +0.072 C 
ATOM     12  C   UNL     1      35.024 -23.885 -12.282  0.00  0.00    +0.131 C 
ATOM     13  C   UNL     1      32.973 -23.816 -13.303  0.00  0.00    +0.204 C 
ATOM     14  C   UNL     1      37.031 -23.399 -13.593  0.00  0.00    +0.006 C 
ATOM     15  C   UNL     1      35.846 -24.081 -11.175  0.00  0.00    +0.086 C 
ATOM     16  C   UNL     1      37.828 -23.601 -12.470  0.00  0.00    -0.004 C 
ATOM     17  C   UNL     1      37.235 -23.942 -11.260  0.00  0.00    -0.019 C 
ATOM     18  H   UNL     1      32.876 -20.590 -18.491  0.00  0.00    +0.174 HD
ATOM     19  H   UNL     1      36.234 -23.355 -15.995  0.00  0.00    +0.156 HD
ATOM     20  H   UNL     1      31.274 -24.204 -12.284  0.00  0.00    +0.166 HD
ENDROOT
BRANCH   6  21
ATOM     21  C   UNL     1      30.523 -23.830 -14.117  0.00  0.00    +0.058 C 
ATOM     22  C   UNL     1      29.722 -24.930 -14.431  0.00  0.00    +0.015 C 
ATOM     23  C   UNL     1      30.279 -22.598 -14.727  0.00  0.00    +0.015 C 
ATOM     24  C   UNL     1      28.439 -23.566 -15.957  0.00  0.00    -0.007 C 
ATOM     25  C   UNL     1      28.682 -24.798 -15.350  0.00  0.00    -0.002 C 
ATOM     26  C   UNL     1      29.238 -22.466 -15.646  0.00  0.00    -0.002 C 
BRANCH  24  27
ATOM     27  C   UNL     1      27.327 -23.425 -16.941  0.00  0.00    +0.132 C 
BRANCH  27  29
ATOM     28  N   UNL     1      26.308 -20.997 -16.986  0.00  0.00    -0.196 NA
ATOM     29  C   UNL     1      26.757 -22.066 -16.961  0.00  0.00    +0.078 C 
ENDBRANCH  27  29
ENDBRANCH  24  27
ENDBRANCH   6  21
BRANCH   7  30
ATOM     30  C   UNL     1      35.098 -20.783 -20.251  0.00  0.00    +0.037 C 
ATOM     31  C   UNL     1      35.897 -19.513 -20.397  0.00  0.00    +0.006 C 
ATOM     32  C   UNL     1      34.433 -19.516 -20.724  0.00  0.00    +0.006 C 
ENDBRANCH   7  30
TORSDOF 4
ENDMDL
