MODEL 1
REMARK VINA RESULT:     -11.1      0.000      0.000
REMARK  Name = 24983461
REMARK  7 active torsions:
REMARK  status: ('A' for Active; 'I' for Inactive)
REMARK    1  A    between atoms: N_1  and  C_26
REMARK    2  A    between atoms: N_2  and  C_12
REMARK    3  A    between atoms: N_15  and  C_17
REMARK    4  A    between atoms: C_17  and  C_19
REMARK    5  A    between atoms: C_26  and  C_27
REMARK    6  A    between atoms: C_26  and  C_31
REMARK    7  A    between atoms: C_27  and  O_29
REMARK                            x       y       z     vdW  Elec       q    Type
REMARK                         _______ _______ _______ _____ _____    ______ ____
ROOT
ATOM      1  N   UNL     1      31.286 -23.812 -14.580  0.00  0.00    -0.258 N 
ATOM      2  N   UNL     1      35.808 -23.715 -13.224  0.00  0.00    -0.262 N 
ATOM      3  N   UNL     1      33.435 -23.848 -13.727  0.00  0.00    -0.311 NA
ATOM      4  N   UNL     1      32.957 -23.022 -15.973  0.00  0.00    -0.311 NA
ATOM      5  N   UNL     1      36.557 -22.849 -15.137  0.00  0.00    -0.240 NA
ATOM      6  C   UNL     1      34.710 -23.553 -14.020  0.00  0.00    +0.220 C 
ATOM      7  C   UNL     1      35.196 -23.016 -15.202  0.00  0.00    +0.167 C 
ATOM      8  C   UNL     1      32.629 -23.547 -14.768  0.00  0.00    +0.202 C 
ATOM      9  C   UNL     1      34.265 -22.749 -16.201  0.00  0.00    +0.215 C 
ATOM     10  C   UNL     1      36.892 -23.278 -13.938  0.00  0.00    +0.222 C 
ATOM     11  H   UNL     1      31.003 -24.197 -13.719  0.00  0.00    +0.160 HD
ATOM     12  N   UNL     1      34.669 -22.204 -17.432  0.00  0.00    -0.302 N 
ATOM     13  H   UNL     1      35.625 -22.015 -17.571  0.00  0.00    +0.150 HD
ENDROOT
BRANCH   2  14
ATOM     14  C   UNL     1      35.832 -24.244 -11.882  0.00  0.00    +0.077 C 
ATOM     15  C   UNL     1      36.068 -23.142 -10.846  0.00  0.00    +0.022 C 
ATOM     16  C   UNL     1      36.868 -25.362 -11.735  0.00  0.00    +0.022 C 
ENDBRANCH   2  14
BRANCH  12  17
ATOM     17  C   UNL     1      33.753 -21.910 -18.495  0.00  0.00    +0.117 C 
BRANCH  17  19
ATOM     18  N   UNL     1      36.258 -19.642 -20.179  0.00  0.00    -0.248 NA
ATOM     19  C   UNL     1      34.312 -20.838 -19.390  0.00  0.00    +0.013 C 
ATOM     20  C   UNL     1      33.497 -20.075 -20.220  0.00  0.00    -0.022 C 
ATOM     21  C   UNL     1      35.673 -20.585 -19.406  0.00  0.00    +0.095 C 
ATOM     22  C   UNL     1      34.062 -19.096 -21.029  0.00  0.00    +0.010 C 
ATOM     23  C   UNL     1      32.021 -20.290 -20.257  0.00  0.00    +0.031 C 
ATOM     24  C   UNL     1      35.435 -18.921 -20.972  0.00  0.00    +0.059 C 
ATOM     25  C   UNL     1      36.076 -17.879 -21.827  0.00  0.00    +0.052 C 
ENDBRANCH  17  19
ENDBRANCH  12  17
BRANCH   1  26
ATOM     26  C   UNL     1      30.271 -23.554 -15.584  0.00  0.00    +0.107 C 
BRANCH  26  27
ATOM     27  C   UNL     1      29.585 -22.204 -15.302  0.00  0.00    +0.129 C 
ATOM     28  C   UNL     1      28.139 -22.156 -15.786  0.00  0.00    +0.034 C 
BRANCH  27  29
ATOM     29  O   UNL     1      29.621 -21.920 -13.904  0.00  0.00    -0.383 OA
ATOM     30  H   UNL     1      28.715 -21.864 -13.564  0.00  0.00    +0.210 HD
ENDBRANCH  27  29
ENDBRANCH  26  27
BRANCH  26  31
ATOM     31  C   UNL     1      29.260 -24.712 -15.596  0.00  0.00    +0.023 C 
ATOM     32  C   UNL     1      29.084 -25.353 -14.225  0.00  0.00    +0.002 C 
ENDBRANCH  26  31
ENDBRANCH   1  26
TORSDOF 7
ENDMDL
MODEL 2
REMARK VINA RESULT:     -11.1      2.169      5.054
REMARK  Name = 24983461
REMARK  7 active torsions:
REMARK  status: ('A' for Active; 'I' for Inactive)
REMARK    1  A    between atoms: N_1  and  C_26
REMARK    2  A    between atoms: N_2  and  C_12
REMARK    3  A    between atoms: N_15  and  C_17
REMARK    4  A    between atoms: C_17  and  C_19
REMARK    5  A    between atoms: C_26  and  C_27
REMARK    6  A    between atoms: C_26  and  C_31
REMARK    7  A    between atoms: C_27  and  O_29
REMARK                            x       y       z     vdW  Elec       q    Type
REMARK                         _______ _______ _______ _____ _____    ______ ____
ROOT
ATOM      1  N   UNL     1      34.936 -24.105 -14.583  0.00  0.00    -0.258 N 
ATOM      2  N   UNL     1      30.349 -23.158 -15.184  0.00  0.00    -0.262 N 
ATOM      3  N   UNL     1      32.655 -23.737 -14.687  0.00  0.00    -0.311 NA
ATOM      4  N   UNL     1      34.156 -23.008 -16.467  0.00  0.00    -0.311 NA
ATOM      5  N   UNL     1      30.623 -22.159 -17.158  0.00  0.00    -0.240 NA
ATOM      6  C   UNL     1      31.688 -23.204 -15.448  0.00  0.00    +0.220 C 
ATOM      7  C   UNL     1      31.837 -22.578 -16.676  0.00  0.00    +0.167 C 
ATOM      8  C   UNL     1      33.859 -23.592 -15.281  0.00  0.00    +0.202 C 
ATOM      9  C   UNL     1      33.129 -22.489 -17.184  0.00  0.00    +0.215 C 
ATOM     10  C   UNL     1      29.752 -22.522 -16.240  0.00  0.00    +0.222 C 
ATOM     11  H   UNL     1      34.766 -24.535 -13.714  0.00  0.00    +0.160 HD
ATOM     12  N   UNL     1      33.373 -21.870 -18.422  0.00  0.00    -0.302 N 
ATOM     13  H   UNL     1      32.609 -21.502 -18.922  0.00  0.00    +0.150 HD
ENDROOT
BRANCH   2  14
ATOM     14  C   UNL     1      29.679 -23.680 -14.018  0.00  0.00    +0.077 C 
ATOM     15  C   UNL     1      30.447 -23.353 -12.735  0.00  0.00    +0.022 C 
ATOM     16  C   UNL     1      29.432 -25.186 -14.136  0.00  0.00    +0.022 C 
ENDBRANCH   2  14
BRANCH  12  17
ATOM     17  C   UNL     1      34.683 -21.752 -18.992  0.00  0.00    +0.117 C 
BRANCH  17  19
ATOM     18  N   UNL     1      36.222 -18.740 -20.670  0.00  0.00    -0.248 NA
ATOM     19  C   UNL     1      34.797 -20.483 -19.792  0.00  0.00    +0.013 C 
ATOM     20  C   UNL     1      33.688 -19.881 -20.376  0.00  0.00    -0.022 C 
ATOM     21  C   UNL     1      36.030 -19.879 -19.966  0.00  0.00    +0.095 C 
ATOM     22  C   UNL     1      33.845 -18.709 -21.107  0.00  0.00    +0.010 C 
ATOM     23  C   UNL     1      32.325 -20.473 -20.232  0.00  0.00    +0.031 C 
ATOM     24  C   UNL     1      35.122 -18.183 -21.222  0.00  0.00    +0.059 C 
ATOM     25  C   UNL     1      35.329 -16.926 -22.000  0.00  0.00    +0.052 C 
ENDBRANCH  17  19
ENDBRANCH  12  17
BRANCH   1  26
ATOM     26  C   UNL     1      36.303 -24.042 -15.064  0.00  0.00    +0.107 C 
BRANCH  26  27
ATOM     27  C   UNL     1      37.085 -25.279 -14.586  0.00  0.00    +0.129 C 
ATOM     28  C   UNL     1      36.717 -25.708 -13.168  0.00  0.00    +0.034 C 
BRANCH  27  29
ATOM     29  O   UNL     1      36.866 -26.371 -15.477  0.00  0.00    -0.383 OA
ATOM     30  H   UNL     1      37.306 -27.163 -15.131  0.00  0.00    +0.210 HD
ENDBRANCH  27  29
ENDBRANCH  26  27
BRANCH  26  31
ATOM     31  C   UNL     1      36.955 -22.737 -14.578  0.00  0.00    +0.023 C 
ATOM     32  C   UNL     1      37.227 -21.758 -15.713  0.00  0.00    +0.002 C 
ENDBRANCH  26  31
ENDBRANCH   1  26
TORSDOF 7
ENDMDL
MODEL 3
REMARK VINA RESULT:      -9.5      1.781      6.810
REMARK  Name = 24983461
REMARK  7 active torsions:
REMARK  status: ('A' for Active; 'I' for Inactive)
REMARK    1  A    between atoms: N_1  and  C_26
REMARK    2  A    between atoms: N_2  and  C_12
REMARK    3  A    between atoms: N_15  and  C_17
REMARK    4  A    between atoms: C_17  and  C_19
REMARK    5  A    between atoms: C_26  and  C_27
REMARK    6  A    between atoms: C_26  and  C_31
REMARK    7  A    between atoms: C_27  and  O_29
REMARK                            x       y       z     vdW  Elec       q    Type
REMARK                         _______ _______ _______ _____ _____    ______ ____
ROOT
ATOM      1  N   UNL     1      31.177 -22.797 -16.636  0.00  0.00    -0.258 N 
ATOM      2  N   UNL     1      34.164 -20.775 -19.683  0.00  0.00    -0.262 N 
ATOM      3  N   UNL     1      32.468 -21.767 -18.254  0.00  0.00    -0.311 NA
ATOM      4  N   UNL     1      33.451 -22.688 -16.220  0.00  0.00    -0.311 NA
ATOM      5  N   UNL     1      35.979 -21.160 -18.446  0.00  0.00    -0.240 NA
ATOM      6  C   UNL     1      33.728 -21.424 -18.563  0.00  0.00    +0.220 C 
ATOM      7  C   UNL     1      34.868 -21.652 -17.809  0.00  0.00    +0.167 C 
ATOM      8  C   UNL     1      32.429 -22.397 -17.060  0.00  0.00    +0.202 C 
ATOM      9  C   UNL     1      34.698 -22.311 -16.595  0.00  0.00    +0.215 C 
ATOM     10  C   UNL     1      35.522 -20.641 -19.567  0.00  0.00    +0.222 C 
ATOM     11  H   UNL     1      30.404 -22.603 -17.216  0.00  0.00    +0.160 HD
ATOM     12  N   UNL     1      35.799 -22.583 -15.765  0.00  0.00    -0.302 N 
ATOM     13  H   UNL     1      36.693 -22.298 -16.063  0.00  0.00    +0.150 HD
ENDROOT
BRANCH   2  14
ATOM     14  C   UNL     1      33.356 -20.316 -20.787  0.00  0.00    +0.077 C 
ATOM     15  C   UNL     1      34.068 -19.227 -21.592  0.00  0.00    +0.022 C 
ATOM     16  C   UNL     1      31.981 -19.836 -20.317  0.00  0.00    +0.022 C 
ENDBRANCH   2  14
BRANCH  12  17
ATOM     17  C   UNL     1      35.681 -23.258 -14.507  0.00  0.00    +0.117 C 
BRANCH  17  19
ATOM     18  N   UNL     1      39.162 -24.669 -14.896  0.00  0.00    -0.248 NA
ATOM     19  C   UNL     1      36.939 -24.023 -14.199  0.00  0.00    +0.013 C 
ATOM     20  C   UNL     1      37.086 -24.755 -13.026  0.00  0.00    -0.022 C 
ATOM     21  C   UNL     1      37.996 -24.011 -15.093  0.00  0.00    +0.095 C 
ATOM     22  C   UNL     1      38.269 -25.444 -12.787  0.00  0.00    +0.010 C 
ATOM     23  C   UNL     1      35.990 -24.816 -12.015  0.00  0.00    +0.031 C 
ATOM     24  C   UNL     1      39.267 -25.370 -13.745  0.00  0.00    +0.059 C 
ATOM     25  C   UNL     1      40.552 -26.097 -13.523  0.00  0.00    +0.052 C 
ENDBRANCH  17  19
ENDBRANCH  12  17
BRANCH   1  26
ATOM     26  C   UNL     1      30.940 -23.488 -15.383  0.00  0.00    +0.107 C 
BRANCH  26  27
ATOM     27  C   UNL     1      29.726 -24.425 -15.521  0.00  0.00    +0.129 C 
ATOM     28  C   UNL     1      29.340 -25.102 -14.209  0.00  0.00    +0.034 C 
BRANCH  27  29
ATOM     29  O   UNL     1      28.604 -23.701 -16.023  0.00  0.00    -0.383 OA
ATOM     30  H   UNL     1      28.663 -23.644 -16.989  0.00  0.00    +0.210 HD
ENDBRANCH  27  29
ENDBRANCH  26  27
BRANCH  26  31
ATOM     31  C   UNL     1      30.733 -22.455 -14.263  0.00  0.00    +0.023 C 
ATOM     32  C   UNL     1      31.685 -22.661 -13.091  0.00  0.00    +0.002 C 
ENDBRANCH  26  31
ENDBRANCH   1  26
TORSDOF 7
ENDMDL
MODEL 4
REMARK VINA RESULT:      -9.1      2.252      6.645
REMARK  Name = 24983461
REMARK  7 active torsions:
REMARK  status: ('A' for Active; 'I' for Inactive)
REMARK    1  A    between atoms: N_1  and  C_26
REMARK    2  A    between atoms: N_2  and  C_12
REMARK    3  A    between atoms: N_15  and  C_17
REMARK    4  A    between atoms: C_17  and  C_19
REMARK    5  A    between atoms: C_26  and  C_27
REMARK    6  A    between atoms: C_26  and  C_31
REMARK    7  A    between atoms: C_27  and  O_29
REMARK                            x       y       z     vdW  Elec       q    Type
REMARK                         _______ _______ _______ _____ _____    ______ ____
ROOT
ATOM      1  N   UNL     1      32.051 -21.928 -18.106  0.00  0.00    -0.258 N 
ATOM      2  N   UNL     1      30.045 -24.355 -14.586  0.00  0.00    -0.262 N 
ATOM      3  N   UNL     1      30.894 -23.137 -16.509  0.00  0.00    -0.311 NA
ATOM      4  N   UNL     1      33.158 -22.318 -16.110  0.00  0.00    -0.311 NA
ATOM      5  N   UNL     1      31.799 -24.185 -13.221  0.00  0.00    -0.240 NA
ATOM      6  C   UNL     1      30.988 -23.640 -15.269  0.00  0.00    +0.220 C 
ATOM      7  C   UNL     1      32.067 -23.547 -14.406  0.00  0.00    +0.167 C 
ATOM      8  C   UNL     1      32.032 -22.489 -16.843  0.00  0.00    +0.202 C 
ATOM      9  C   UNL     1      33.184 -22.854 -14.866  0.00  0.00    +0.215 C 
ATOM     10  C   UNL     1      30.578 -24.658 -13.362  0.00  0.00    +0.222 C 
ATOM     11  H   UNL     1      31.253 -22.031 -18.674  0.00  0.00    +0.160 HD
ATOM     12  N   UNL     1      34.324 -22.711 -14.057  0.00  0.00    -0.302 N 
ATOM     13  H   UNL     1      34.315 -23.111 -13.158  0.00  0.00    +0.150 HD
ENDROOT
BRANCH   2  14
ATOM     14  C   UNL     1      28.732 -24.724 -15.056  0.00  0.00    +0.077 C 
ATOM     15  C   UNL     1      27.857 -23.493 -15.306  0.00  0.00    +0.022 C 
ATOM     16  C   UNL     1      28.042 -25.697 -14.097  0.00  0.00    +0.022 C 
ENDBRANCH   2  14
BRANCH  12  17
ATOM     17  C   UNL     1      35.499 -22.008 -14.481  0.00  0.00    +0.117 C 
BRANCH  17  19
ATOM     18  N   UNL     1      37.846 -24.738 -13.344  0.00  0.00    -0.248 NA
ATOM     19  C   UNL     1      36.699 -22.914 -14.439  0.00  0.00    +0.013 C 
ATOM     20  C   UNL     1      37.727 -22.815 -15.370  0.00  0.00    -0.022 C 
ATOM     21  C   UNL     1      36.805 -23.883 -13.455  0.00  0.00    +0.095 C 
ATOM     22  C   UNL     1      38.815 -23.677 -15.289  0.00  0.00    +0.010 C 
ATOM     23  C   UNL     1      37.684 -21.796 -16.459  0.00  0.00    +0.031 C 
ATOM     24  C   UNL     1      38.827 -24.612 -14.266  0.00  0.00    +0.059 C 
ATOM     25  C   UNL     1      39.979 -25.554 -14.148  0.00  0.00    +0.052 C 
ENDBRANCH  17  19
ENDBRANCH  12  17
BRANCH   1  26
ATOM     26  C   UNL     1      33.184 -21.195 -18.638  0.00  0.00    +0.107 C 
BRANCH  26  27
ATOM     27  C   UNL     1      32.702 -20.164 -19.675  0.00  0.00    +0.129 C 
ATOM     28  C   UNL     1      33.813 -19.691 -20.609  0.00  0.00    +0.034 C 
BRANCH  27  29
ATOM     29  O   UNL     1      31.639 -20.712 -20.452  0.00  0.00    -0.383 OA
ATOM     30  H   UNL     1      31.910 -21.574 -20.806  0.00  0.00    +0.210 HD
ENDBRANCH  27  29
ENDBRANCH  26  27
BRANCH  26  31
ATOM     31  C   UNL     1      34.191 -22.185 -19.248  0.00  0.00    +0.023 C 
ATOM     32  C   UNL     1      35.616 -21.645 -19.251  0.00  0.00    +0.002 C 
ENDBRANCH  26  31
ENDBRANCH   1  26
TORSDOF 7
ENDMDL
MODEL 5
REMARK VINA RESULT:      -9.0      1.742      6.839
REMARK  Name = 24983461
REMARK  7 active torsions:
REMARK  status: ('A' for Active; 'I' for Inactive)
REMARK    1  A    between atoms: N_1  and  C_26
REMARK    2  A    between atoms: N_2  and  C_12
REMARK    3  A    between atoms: N_15  and  C_17
REMARK    4  A    between atoms: C_17  and  C_19
REMARK    5  A    between atoms: C_26  and  C_27
REMARK    6  A    between atoms: C_26  and  C_31
REMARK    7  A    between atoms: C_27  and  O_29
REMARK                            x       y       z     vdW  Elec       q    Type
REMARK                         _______ _______ _______ _____ _____    ______ ____
ROOT
ATOM      1  N   UNL     1      30.045 -22.231 -16.900  0.00  0.00    -0.258 N 
ATOM      2  N   UNL     1      33.803 -20.699 -19.314  0.00  0.00    -0.262 N 
ATOM      3  N   UNL     1      31.749 -21.354 -18.193  0.00  0.00    -0.311 NA
ATOM      4  N   UNL     1      32.176 -23.027 -16.469  0.00  0.00    -0.311 NA
ATOM      5  N   UNL     1      35.262 -21.982 -18.220  0.00  0.00    -0.240 NA
ATOM      6  C   UNL     1      33.074 -21.407 -18.401  0.00  0.00    +0.220 C 
ATOM      7  C   UNL     1      33.997 -22.195 -17.733  0.00  0.00    +0.167 C 
ATOM      8  C   UNL     1      31.392 -22.202 -17.204  0.00  0.00    +0.202 C 
ATOM      9  C   UNL     1      33.505 -23.029 -16.733  0.00  0.00    +0.215 C 
ATOM     10  C   UNL     1      35.110 -21.079 -19.167  0.00  0.00    +0.222 C 
ATOM     11  H   UNL     1      29.439 -21.645 -17.408  0.00  0.00    +0.160 HD
ATOM     12  N   UNL     1      34.370 -23.863 -16.003  0.00  0.00    -0.302 N 
ATOM     13  H   UNL     1      35.331 -23.844 -16.216  0.00  0.00    +0.150 HD
ENDROOT
BRANCH   2  14
ATOM     14  C   UNL     1      33.300 -19.732 -20.259  0.00  0.00    +0.077 C 
ATOM     15  C   UNL     1      31.945 -20.156 -20.831  0.00  0.00    +0.022 C 
ATOM     16  C   UNL     1      34.307 -19.465 -21.382  0.00  0.00    +0.022 C 
ENDBRANCH   2  14
BRANCH  12  17
ATOM     17  C   UNL     1      33.917 -24.740 -14.964  0.00  0.00    +0.117 C 
BRANCH  17  19
ATOM     18  N   UNL     1      34.319 -23.264 -11.513  0.00  0.00    -0.248 NA
ATOM     19  C   UNL     1      34.547 -24.370 -13.650  0.00  0.00    +0.013 C 
ATOM     20  C   UNL     1      35.848 -24.741 -13.328  0.00  0.00    -0.022 C 
ATOM     21  C   UNL     1      33.831 -23.638 -12.717  0.00  0.00    +0.095 C 
ATOM     22  C   UNL     1      36.385 -24.374 -12.099  0.00  0.00    +0.010 C 
ATOM     23  C   UNL     1      36.682 -25.529 -14.282  0.00  0.00    +0.031 C 
ATOM     24  C   UNL     1      35.586 -23.642 -11.235  0.00  0.00    +0.059 C 
ATOM     25  C   UNL     1      36.130 -23.231  -9.907  0.00  0.00    +0.052 C 
ENDBRANCH  17  19
ENDBRANCH  12  17
BRANCH   1  26
ATOM     26  C   UNL     1      29.476 -23.080 -15.870  0.00  0.00    +0.107 C 
BRANCH  26  27
ATOM     27  C   UNL     1      27.963 -23.245 -16.102  0.00  0.00    +0.129 C 
ATOM     28  C   UNL     1      27.134 -22.143 -15.447  0.00  0.00    +0.034 C 
BRANCH  27  29
ATOM     29  O   UNL     1      27.683 -23.273 -17.500  0.00  0.00    -0.383 OA
ATOM     30  H   UNL     1      28.152 -22.546 -17.938  0.00  0.00    +0.210 HD
ENDBRANCH  27  29
ENDBRANCH  26  27
BRANCH  26  31
ATOM     31  C   UNL     1      29.775 -22.474 -14.488  0.00  0.00    +0.023 C 
ATOM     32  C   UNL     1      30.195 -23.524 -13.466  0.00  0.00    +0.002 C 
ENDBRANCH  26  31
ENDBRANCH   1  26
TORSDOF 7
ENDMDL
MODEL 6
REMARK VINA RESULT:      -8.8      2.389      6.867
REMARK  Name = 24983461
REMARK  7 active torsions:
REMARK  status: ('A' for Active; 'I' for Inactive)
REMARK    1  A    between atoms: N_1  and  C_26
REMARK    2  A    between atoms: N_2  and  C_12
REMARK    3  A    between atoms: N_15  and  C_17
REMARK    4  A    between atoms: C_17  and  C_19
REMARK    5  A    between atoms: C_26  and  C_27
REMARK    6  A    between atoms: C_26  and  C_31
REMARK    7  A    between atoms: C_27  and  O_29
REMARK                            x       y       z     vdW  Elec       q    Type
REMARK                         _______ _______ _______ _____ _____    ______ ____
ROOT
ATOM      1  N   UNL     1      32.432 -21.866 -18.056  0.00  0.00    -0.258 N 
ATOM      2  N   UNL     1      30.213 -24.238 -14.628  0.00  0.00    -0.262 N 
ATOM      3  N   UNL     1      31.175 -23.041 -16.511  0.00  0.00    -0.311 NA
ATOM      4  N   UNL     1      33.447 -22.298 -16.021  0.00  0.00    -0.311 NA
ATOM      5  N   UNL     1      31.917 -24.129 -13.194  0.00  0.00    -0.240 NA
ATOM      6  C   UNL     1      31.204 -23.552 -15.271  0.00  0.00    +0.220 C 
ATOM      7  C   UNL     1      32.252 -23.497 -14.365  0.00  0.00    +0.167 C 
ATOM      8  C   UNL     1      32.345 -22.430 -16.798  0.00  0.00    +0.202 C 
ATOM      9  C   UNL     1      33.407 -22.839 -14.778  0.00  0.00    +0.215 C 
ATOM     10  C   UNL     1      30.688 -24.562 -13.385  0.00  0.00    +0.222 C 
ATOM     11  H   UNL     1      31.654 -21.941 -18.655  0.00  0.00    +0.160 HD
ATOM     12  N   UNL     1      34.519 -22.736 -13.926  0.00  0.00    -0.302 N 
ATOM     13  H   UNL     1      34.462 -23.138 -13.029  0.00  0.00    +0.150 HD
ENDROOT
BRANCH   2  14
ATOM     14  C   UNL     1      28.908 -24.562 -15.151  0.00  0.00    +0.077 C 
ATOM     15  C   UNL     1      28.070 -23.305 -15.394  0.00  0.00    +0.022 C 
ATOM     16  C   UNL     1      28.164 -25.545 -14.242  0.00  0.00    +0.022 C 
ENDBRANCH   2  14
BRANCH  12  17
ATOM     17  C   UNL     1      35.731 -22.070 -14.300  0.00  0.00    +0.117 C 
BRANCH  17  19
ATOM     18  N   UNL     1      38.799 -24.099 -15.152  0.00  0.00    -0.248 NA
ATOM     19  C   UNL     1      36.910 -22.989 -14.132  0.00  0.00    +0.013 C 
ATOM     20  C   UNL     1      37.224 -23.565 -12.906  0.00  0.00    -0.022 C 
ATOM     21  C   UNL     1      37.721 -23.285 -15.215  0.00  0.00    +0.095 C 
ATOM     22  C   UNL     1      38.326 -24.407 -12.802  0.00  0.00    +0.010 C 
ATOM     23  C   UNL     1      36.397 -23.294 -11.694  0.00  0.00    +0.031 C 
ATOM     24  C   UNL     1      39.073 -24.640 -13.945  0.00  0.00    +0.059 C 
ATOM     25  C   UNL     1      40.262 -25.539 -13.871  0.00  0.00    +0.052 C 
ENDBRANCH  17  19
ENDBRANCH  12  17
BRANCH   1  26
ATOM     26  C   UNL     1      33.608 -21.168 -18.540  0.00  0.00    +0.107 C 
BRANCH  26  27
ATOM     27  C   UNL     1      33.361 -20.650 -19.969  0.00  0.00    +0.129 C 
ATOM     28  C   UNL     1      31.923 -20.192 -20.199  0.00  0.00    +0.034 C 
BRANCH  27  29
ATOM     29  O   UNL     1      34.248 -19.571 -20.258  0.00  0.00    -0.383 OA
ATOM     30  H   UNL     1      34.373 -19.506 -21.218  0.00  0.00    +0.210 HD
ENDBRANCH  27  29
ENDBRANCH  26  27
BRANCH  26  31
ATOM     31  C   UNL     1      34.821 -22.112 -18.481  0.00  0.00    +0.023 C 
ATOM     32  C   UNL     1      36.090 -21.408 -18.017  0.00  0.00    +0.002 C 
ENDBRANCH  26  31
ENDBRANCH   1  26
TORSDOF 7
ENDMDL
MODEL 7
REMARK VINA RESULT:      -8.5      2.467      7.718
REMARK  Name = 24983461
REMARK  7 active torsions:
REMARK  status: ('A' for Active; 'I' for Inactive)
REMARK    1  A    between atoms: N_1  and  C_26
REMARK    2  A    between atoms: N_2  and  C_12
REMARK    3  A    between atoms: N_15  and  C_17
REMARK    4  A    between atoms: C_17  and  C_19
REMARK    5  A    between atoms: C_26  and  C_27
REMARK    6  A    between atoms: C_26  and  C_31
REMARK    7  A    between atoms: C_27  and  O_29
REMARK                            x       y       z     vdW  Elec       q    Type
REMARK                         _______ _______ _______ _____ _____    ______ ____
ROOT
ATOM      1  N   UNL     1      36.732 -21.987 -16.980  0.00  0.00    -0.258 N 
ATOM      2  N   UNL     1      34.788 -19.827 -20.702  0.00  0.00    -0.262 N 
ATOM      3  N   UNL     1      35.979 -20.860 -18.854  0.00  0.00    -0.311 NA
ATOM      4  N   UNL     1      34.459 -22.099 -17.401  0.00  0.00    -0.311 NA
ATOM      5  N   UNL     1      32.712 -20.497 -20.242  0.00  0.00    -0.240 NA
ATOM      6  C   UNL     1      34.876 -20.576 -19.563  0.00  0.00    +0.220 C 
ATOM      7  C   UNL     1      33.579 -20.982 -19.295  0.00  0.00    +0.167 C 
ATOM      8  C   UNL     1      35.670 -21.629 -17.787  0.00  0.00    +0.202 C 
ATOM      9  C   UNL     1      33.388 -21.773 -18.166  0.00  0.00    +0.215 C 
ATOM     10  C   UNL     1      33.469 -19.809 -21.071  0.00  0.00    +0.222 C 
ATOM     11  H   UNL     1      37.631 -21.669 -17.225  0.00  0.00    +0.160 HD
ATOM     12  N   UNL     1      32.106 -22.231 -17.819  0.00  0.00    -0.302 N 
ATOM     13  H   UNL     1      31.346 -21.980 -18.392  0.00  0.00    +0.150 HD
ENDROOT
BRANCH   2  14
ATOM     14  C   UNL     1      35.873 -19.174 -21.393  0.00  0.00    +0.077 C 
ATOM     15  C   UNL     1      36.674 -18.267 -20.455  0.00  0.00    +0.022 C 
ATOM     16  C   UNL     1      35.376 -18.392 -22.613  0.00  0.00    +0.022 C 
ENDBRANCH   2  14
BRANCH  12  17
ATOM     17  C   UNL     1      31.852 -23.047 -16.668  0.00  0.00    +0.117 C 
BRANCH  17  19
ATOM     18  N   UNL     1      28.302 -21.775 -16.482  0.00  0.00    -0.248 NA
ATOM     19  C   UNL     1      30.463 -22.803 -16.145  0.00  0.00    +0.013 C 
ATOM     20  C   UNL     1      30.035 -23.322 -14.928  0.00  0.00    -0.022 C 
ATOM     21  C   UNL     1      29.568 -22.043 -16.877  0.00  0.00    +0.095 C 
ATOM     22  C   UNL     1      28.741 -23.068 -14.488  0.00  0.00    +0.010 C 
ATOM     23  C   UNL     1      30.943 -24.150 -14.082  0.00  0.00    +0.031 C 
ATOM     24  C   UNL     1      27.921 -22.295 -15.295  0.00  0.00    +0.059 C 
ATOM     25  C   UNL     1      26.526 -22.003 -14.855  0.00  0.00    +0.052 C 
ENDBRANCH  17  19
ENDBRANCH  12  17
BRANCH   1  26
ATOM     26  C   UNL     1      36.593 -22.807 -15.791  0.00  0.00    +0.107 C 
BRANCH  26  27
ATOM     27  C   UNL     1      35.917 -21.996 -14.671  0.00  0.00    +0.129 C 
ATOM     28  C   UNL     1      34.698 -22.697 -14.077  0.00  0.00    +0.034 C 
BRANCH  27  29
ATOM     29  O   UNL     1      36.854 -21.725 -13.630  0.00  0.00    -0.383 OA
ATOM     30  H   UNL     1      37.532 -21.114 -13.958  0.00  0.00    +0.210 HD
ENDBRANCH  27  29
ENDBRANCH  26  27
BRANCH  26  31
ATOM     31  C   UNL     1      37.977 -23.322 -15.362  0.00  0.00    +0.023 C 
ATOM     32  C   UNL     1      37.916 -24.700 -14.715  0.00  0.00    +0.002 C 
ENDBRANCH  26  31
ENDBRANCH   1  26
TORSDOF 7
ENDMDL
