MODEL 1
REMARK VINA RESULT:     -12.3      0.000      0.000
REMARK  Name = 447362
REMARK  5 active torsions:
REMARK  status: ('A' for Active; 'I' for Inactive)
REMARK    1  A    between atoms: N_2  and  S_8
REMARK    2  A    between atoms: N_3  and  C_21
REMARK    3  A    between atoms: S_8  and  C_13
REMARK    4  A    between atoms: C_21  and  C_22
REMARK    5  A    between atoms: C_27  and  C_30
REMARK                            x       y       z     vdW  Elec       q    Type
REMARK                         _______ _______ _______ _____ _____    ______ ____
ROOT
ATOM      1  O   UNL     1      35.880 -17.353 -20.273  0.00  0.00    -0.273 OA
ATOM      2  N   UNL     1      34.367 -16.980 -23.541  0.00  0.00    -0.144 NA
ATOM      3  N   UNL     1      35.170 -18.985 -21.759  0.00  0.00    -0.273 N 
ATOM      4  C   UNL     1      33.685 -18.290 -23.611  0.00  0.00    +0.118 C 
ATOM      5  C   UNL     1      34.657 -19.323 -23.083  0.00  0.00    +0.113 C 
ATOM      6  C   UNL     1      34.650 -16.592 -22.145  0.00  0.00    +0.181 C 
ATOM      7  C   UNL     1      35.310 -17.671 -21.322  0.00  0.00    +0.244 C 
ENDROOT
BRANCH   2   8
ATOM      8  S   UNL     1      33.719 -15.747 -24.534  0.00  0.00    +0.069 S 
ATOM      9  O   UNL     1      32.513 -16.247 -25.163  0.00  0.00    -0.152 OA
ATOM     10  O   UNL     1      34.788 -15.142 -25.301  0.00  0.00    -0.152 OA
BRANCH   8  13
ATOM     11 CL   UNL     1      31.075  -8.806 -21.135  0.00  0.00    -0.082 Cl
ATOM     12  S   UNL     1      32.813 -12.985 -24.274  0.00  0.00    -0.067 S 
ATOM     13  C   UNL     1      33.161 -14.428 -23.461  0.00  0.00    +0.152 C 
ATOM     14  C   UNL     1      32.964 -14.368 -22.124  0.00  0.00    +0.027 C 
ATOM     15  C   UNL     1      32.501 -13.075 -21.708  0.00  0.00    +0.008 C 
ATOM     16  C   UNL     1      32.371 -12.209 -22.799  0.00  0.00    +0.032 C 
ATOM     17  C   UNL     1      32.174 -12.584 -20.421  0.00  0.00    +0.001 C 
ATOM     18  C   UNL     1      31.931 -10.881 -22.636  0.00  0.00    +0.018 C 
ATOM     19  C   UNL     1      31.736 -11.267 -20.257  0.00  0.00    +0.011 C 
ATOM     20  C   UNL     1      31.616 -10.426 -21.354  0.00  0.00    +0.058 C 
ENDBRANCH   8  13
ENDBRANCH   2   8
BRANCH   3  21
ATOM     21  C   UNL     1      35.754 -20.078 -20.996  0.00  0.00    +0.120 C 
BRANCH  21  22
ATOM     22  C   UNL     1      34.738 -20.619 -20.037  0.00  0.00    -0.002 C 
ATOM     23  C   UNL     1      33.401 -20.262 -20.174  0.00  0.00    -0.003 C 
ATOM     24  C   UNL     1      35.140 -21.475 -19.016  0.00  0.00    -0.003 C 
ATOM     25  C   UNL     1      32.455 -20.767 -19.281  0.00  0.00    +0.002 C 
ATOM     26  C   UNL     1      34.195 -21.980 -18.124  0.00  0.00    +0.002 C 
ATOM     27  C   UNL     1      32.852 -21.626 -18.256  0.00  0.00    +0.031 C 
BRANCH  27  30
ATOM     28  N   UNL     1      32.229 -23.026 -16.302  0.00  0.00    -0.343 N 
ATOM     29  N   UNL     1      30.598 -21.799 -17.440  0.00  0.00    -0.285 NA
ATOM     30  C   UNL     1      31.866 -22.151 -17.324  0.00  0.00    +0.117 C 
ATOM     31  H   UNL     1      31.546 -23.370 -15.682  0.00  0.00    +0.144 HD
ATOM     32  H   UNL     1      33.169 -23.303 -16.200  0.00  0.00    +0.144 HD
ATOM     33  H   UNL     1      29.929 -22.153 -16.810  0.00  0.00    +0.188 HD
ENDBRANCH  27  30
ENDBRANCH  21  22
ENDBRANCH   3  21
TORSDOF 5
ENDMDL
MODEL 2
REMARK VINA RESULT:     -12.3      3.015      4.413
REMARK  Name = 447362
REMARK  5 active torsions:
REMARK  status: ('A' for Active; 'I' for Inactive)
REMARK    1  A    between atoms: N_2  and  S_8
REMARK    2  A    between atoms: N_3  and  C_21
REMARK    3  A    between atoms: S_8  and  C_13
REMARK    4  A    between atoms: C_21  and  C_22
REMARK    5  A    between atoms: C_27  and  C_30
REMARK                            x       y       z     vdW  Elec       q    Type
REMARK                         _______ _______ _______ _____ _____    ______ ____
ROOT
ATOM      1  O   UNL     1      31.624 -20.446 -19.312  0.00  0.00    -0.273 OA
ATOM      2  N   UNL     1      34.866 -19.515 -20.625  0.00  0.00    -0.144 NA
ATOM      3  N   UNL     1      33.723 -21.252 -18.750  0.00  0.00    -0.273 N 
ATOM      4  C   UNL     1      35.598 -20.755 -20.285  0.00  0.00    +0.118 C 
ATOM      5  C   UNL     1      35.173 -21.150 -18.887  0.00  0.00    +0.113 C 
ATOM      6  C   UNL     1      33.411 -19.749 -20.696  0.00  0.00    +0.181 C 
ATOM      7  C   UNL     1      32.842 -20.491 -19.512  0.00  0.00    +0.244 C 
ENDROOT
BRANCH   2   8
ATOM      8  S   UNL     1      35.529 -18.582 -21.897  0.00  0.00    +0.069 S 
ATOM      9  O   UNL     1      35.052 -19.115 -23.157  0.00  0.00    -0.152 OA
ATOM     10  O   UNL     1      36.937 -18.364 -21.643  0.00  0.00    -0.152 OA
BRANCH   8  13
ATOM     11 CL   UNL     1      32.427 -11.135 -23.177  0.00  0.00    -0.082 Cl
ATOM     12  S   UNL     1      34.619 -16.187 -23.293  0.00  0.00    -0.067 S 
ATOM     13  C   UNL     1      34.815 -16.945 -21.793  0.00  0.00    +0.152 C 
ATOM     14  C   UNL     1      34.401 -16.200 -20.742  0.00  0.00    +0.027 C 
ATOM     15  C   UNL     1      33.888 -14.926 -21.157  0.00  0.00    +0.008 C 
ATOM     16  C   UNL     1      33.948 -14.785 -22.547  0.00  0.00    +0.032 C 
ATOM     17  C   UNL     1      33.358 -13.855 -20.397  0.00  0.00    +0.001 C 
ATOM     18  C   UNL     1      33.499 -13.613 -23.188  0.00  0.00    +0.018 C 
ATOM     19  C   UNL     1      32.911 -12.692 -21.030  0.00  0.00    +0.011 C 
ATOM     20  C   UNL     1      32.982 -12.575 -22.412  0.00  0.00    +0.058 C 
ENDBRANCH   8  13
ENDBRANCH   2   8
BRANCH   3  21
ATOM     21  C   UNL     1      33.236 -22.019 -17.613  0.00  0.00    +0.120 C 
BRANCH  21  22
ATOM     22  C   UNL     1      34.393 -22.438 -16.758  0.00  0.00    -0.002 C 
ATOM     23  C   UNL     1      35.594 -21.740 -16.831  0.00  0.00    -0.003 C 
ATOM     24  C   UNL     1      34.257 -23.523 -15.896  0.00  0.00    -0.003 C 
ATOM     25  C   UNL     1      36.671 -22.131 -16.033  0.00  0.00    +0.002 C 
ATOM     26  C   UNL     1      35.333 -23.913 -15.100  0.00  0.00    +0.002 C 
ATOM     27  C   UNL     1      36.540 -23.217 -15.168  0.00  0.00    +0.031 C 
BRANCH  27  30
ATOM     28  N   UNL     1      38.695 -24.411 -14.851  0.00  0.00    -0.343 N 
ATOM     29  N   UNL     1      37.716 -23.253 -13.072  0.00  0.00    -0.285 NA
ATOM     30  C   UNL     1      37.663 -23.625 -14.339  0.00  0.00    +0.117 C 
ATOM     31  H   UNL     1      39.446 -24.676 -14.272  0.00  0.00    +0.144 HD
ATOM     32  H   UNL     1      38.673 -24.701 -15.791  0.00  0.00    +0.144 HD
ATOM     33  H   UNL     1      38.475 -23.529 -12.509  0.00  0.00    +0.188 HD
ENDBRANCH  27  30
ENDBRANCH  21  22
ENDBRANCH   3  21
TORSDOF 5
ENDMDL
MODEL 3
REMARK VINA RESULT:     -11.8      5.328      9.772
REMARK  Name = 447362
REMARK  5 active torsions:
REMARK  status: ('A' for Active; 'I' for Inactive)
REMARK    1  A    between atoms: N_2  and  S_8
REMARK    2  A    between atoms: N_3  and  C_21
REMARK    3  A    between atoms: S_8  and  C_13
REMARK    4  A    between atoms: C_21  and  C_22
REMARK    5  A    between atoms: C_27  and  C_30
REMARK                            x       y       z     vdW  Elec       q    Type
REMARK                         _______ _______ _______ _____ _____    ______ ____
ROOT
ATOM      1  O   UNL     1      33.011 -18.971 -22.422  0.00  0.00    -0.273 OA
ATOM      2  N   UNL     1      33.892 -21.208 -19.716  0.00  0.00    -0.144 NA
ATOM      3  N   UNL     1      34.995 -19.130 -21.234  0.00  0.00    -0.273 N 
ATOM      4  C   UNL     1      34.967 -20.395 -19.108  0.00  0.00    +0.118 C 
ATOM      5  C   UNL     1      35.799 -19.841 -20.246  0.00  0.00    +0.113 C 
ATOM      6  C   UNL     1      32.975 -20.377 -20.521  0.00  0.00    +0.181 C 
ATOM      7  C   UNL     1      33.665 -19.451 -21.491  0.00  0.00    +0.244 C 
ENDROOT
BRANCH   2   8
ATOM      8  S   UNL     1      33.143 -22.347 -18.682  0.00  0.00    +0.069 S 
ATOM      9  O   UNL     1      33.262 -23.661 -19.281  0.00  0.00    -0.152 OA
ATOM     10  O   UNL     1      31.870 -21.821 -18.236  0.00  0.00    -0.152 OA
BRANCH   8  13
ATOM     11 CL   UNL     1      36.076 -23.273 -11.115  0.00  0.00    -0.082 Cl
ATOM     12  S   UNL     1      33.240 -22.929 -15.825  0.00  0.00    -0.067 S 
ATOM     13  C   UNL     1      34.119 -22.438 -17.185  0.00  0.00    +0.152 C 
ATOM     14  C   UNL     1      35.425 -22.190 -16.936  0.00  0.00    +0.027 C 
ATOM     15  C   UNL     1      35.758 -22.404 -15.557  0.00  0.00    +0.008 C 
ATOM     16  C   UNL     1      34.641 -22.818 -14.825  0.00  0.00    +0.032 C 
ATOM     17  C   UNL     1      36.992 -22.265 -14.875  0.00  0.00    +0.001 C 
ATOM     18  C   UNL     1      34.724 -23.090 -13.445  0.00  0.00    +0.018 C 
ATOM     19  C   UNL     1      37.078 -22.536 -13.507  0.00  0.00    +0.011 C 
ATOM     20  C   UNL     1      35.954 -22.943 -12.801  0.00  0.00    +0.058 C 
ENDBRANCH   8  13
ENDBRANCH   2   8
BRANCH   3  21
ATOM     21  C   UNL     1      35.712 -18.217 -22.111  0.00  0.00    +0.120 C 
BRANCH  21  22
ATOM     22  C   UNL     1      35.048 -16.874 -22.089  0.00  0.00    -0.002 C 
ATOM     23  C   UNL     1      34.853 -16.180 -23.280  0.00  0.00    -0.003 C 
ATOM     24  C   UNL     1      34.632 -16.329 -20.878  0.00  0.00    -0.003 C 
ATOM     25  C   UNL     1      34.234 -14.930 -23.259  0.00  0.00    +0.002 C 
ATOM     26  C   UNL     1      34.014 -15.079 -20.857  0.00  0.00    +0.002 C 
ATOM     27  C   UNL     1      33.815 -14.379 -22.048  0.00  0.00    +0.031 C 
BRANCH  27  30
ATOM     28  N   UNL     1      32.134 -12.793 -21.139  0.00  0.00    -0.343 N 
ATOM     29  N   UNL     1      33.570 -12.131 -22.860  0.00  0.00    -0.285 NA
ATOM     30  C   UNL     1      33.172 -13.075 -22.026  0.00  0.00    +0.117 C 
ATOM     31  H   UNL     1      31.713 -11.903 -21.141  0.00  0.00    +0.144 HD
ATOM     32  H   UNL     1      31.821 -13.484 -20.511  0.00  0.00    +0.144 HD
ATOM     33  H   UNL     1      33.136 -11.247 -22.847  0.00  0.00    +0.188 HD
ENDBRANCH  27  30
ENDBRANCH  21  22
ENDBRANCH   3  21
TORSDOF 5
ENDMDL
MODEL 4
REMARK VINA RESULT:     -11.5      3.552      5.613
REMARK  Name = 447362
REMARK  5 active torsions:
REMARK  status: ('A' for Active; 'I' for Inactive)
REMARK    1  A    between atoms: N_2  and  S_8
REMARK    2  A    between atoms: N_3  and  C_21
REMARK    3  A    between atoms: S_8  and  C_13
REMARK    4  A    between atoms: C_21  and  C_22
REMARK    5  A    between atoms: C_27  and  C_30
REMARK                            x       y       z     vdW  Elec       q    Type
REMARK                         _______ _______ _______ _____ _____    ______ ____
ROOT
ATOM      1  O   UNL     1      32.703 -13.773 -25.658  0.00  0.00    -0.273 OA
ATOM      2  N   UNL     1      32.161 -12.502 -22.312  0.00  0.00    -0.144 NA
ATOM      3  N   UNL     1      33.676 -14.433 -23.659  0.00  0.00    -0.273 N 
ATOM      4  C   UNL     1      33.444 -12.925 -21.712  0.00  0.00    +0.118 C 
ATOM      5  C   UNL     1      33.720 -14.330 -22.204  0.00  0.00    +0.113 C 
ATOM      6  C   UNL     1      32.258 -12.404 -23.781  0.00  0.00    +0.181 C 
ATOM      7  C   UNL     1      32.876 -13.609 -24.446  0.00  0.00    +0.244 C 
ENDROOT
BRANCH   2   8
ATOM      8  S   UNL     1      31.367 -11.201 -21.534  0.00  0.00    +0.069 S 
ATOM      9  O   UNL     1      31.809 -11.148 -20.156  0.00  0.00    -0.152 OA
ATOM     10  O   UNL     1      29.963 -11.221 -21.887  0.00  0.00    -0.152 OA
BRANCH   8  13
ATOM     11 CL   UNL     1      32.578  -3.631 -24.354  0.00  0.00    -0.082 Cl
ATOM     12  S   UNL     1      30.888  -8.391 -22.157  0.00  0.00    -0.067 S 
ATOM     13  C   UNL     1      31.972  -9.685 -22.266  0.00  0.00    +0.152 C 
ATOM     14  C   UNL     1      33.134  -9.378 -22.889  0.00  0.00    +0.027 C 
ATOM     15  C   UNL     1      33.168  -8.008 -23.315  0.00  0.00    +0.008 C 
ATOM     16  C   UNL     1      31.987  -7.343 -22.973  0.00  0.00    +0.032 C 
ATOM     17  C   UNL     1      34.175  -7.280 -23.993  0.00  0.00    +0.001 C 
ATOM     18  C   UNL     1      31.789  -5.984 -23.290  0.00  0.00    +0.018 C 
ATOM     19  C   UNL     1      33.983  -5.932 -24.308  0.00  0.00    +0.011 C 
ATOM     20  C   UNL     1      32.801  -5.293 -23.959  0.00  0.00    +0.058 C 
ENDBRANCH   8  13
ENDBRANCH   2   8
BRANCH   3  21
ATOM     21  C   UNL     1      34.329 -15.595 -24.243  0.00  0.00    +0.120 C 
BRANCH  21  22
ATOM     22  C   UNL     1      34.375 -16.704 -23.237  0.00  0.00    -0.002 C 
ATOM     23  C   UNL     1      34.968 -16.487 -21.997  0.00  0.00    -0.003 C 
ATOM     24  C   UNL     1      33.824 -17.943 -23.549  0.00  0.00    -0.003 C 
ATOM     25  C   UNL     1      35.010 -17.519 -21.060  0.00  0.00    +0.002 C 
ATOM     26  C   UNL     1      33.867 -18.975 -22.612  0.00  0.00    +0.002 C 
ATOM     27  C   UNL     1      34.460 -18.764 -21.367  0.00  0.00    +0.031 C 
BRANCH  27  30
ATOM     28  N   UNL     1      33.348 -20.506 -19.990  0.00  0.00    -0.343 N 
ATOM     29  N   UNL     1      35.662 -20.203 -19.865  0.00  0.00    -0.285 NA
ATOM     30  C   UNL     1      34.506 -19.841 -20.391  0.00  0.00    +0.117 C 
ATOM     31  H   UNL     1      33.402 -21.232 -19.328  0.00  0.00    +0.144 HD
ATOM     32  H   UNL     1      32.476 -20.249 -20.368  0.00  0.00    +0.144 HD
ATOM     33  H   UNL     1      35.696 -20.933 -19.204  0.00  0.00    +0.188 HD
ENDBRANCH  27  30
ENDBRANCH  21  22
ENDBRANCH   3  21
TORSDOF 5
ENDMDL
MODEL 5
REMARK VINA RESULT:     -11.1      6.640     12.461
REMARK  Name = 447362
REMARK  5 active torsions:
REMARK  status: ('A' for Active; 'I' for Inactive)
REMARK    1  A    between atoms: N_2  and  S_8
REMARK    2  A    between atoms: N_3  and  C_21
REMARK    3  A    between atoms: S_8  and  C_13
REMARK    4  A    between atoms: C_21  and  C_22
REMARK    5  A    between atoms: C_27  and  C_30
REMARK                            x       y       z     vdW  Elec       q    Type
REMARK                         _______ _______ _______ _____ _____    ______ ____
ROOT
ATOM      1  O   UNL     1      34.869  -8.102 -23.732  0.00  0.00    -0.273 OA
ATOM      2  N   UNL     1      31.826  -8.800 -21.899  0.00  0.00    -0.144 NA
ATOM      3  N   UNL     1      33.143  -6.668 -23.146  0.00  0.00    -0.273 N 
ATOM      4  C   UNL     1      31.010  -7.675 -22.403  0.00  0.00    +0.118 C 
ATOM      5  C   UNL     1      31.901  -6.452 -22.411  0.00  0.00    +0.113 C 
ATOM      6  C   UNL     1      32.937  -9.116 -22.818  0.00  0.00    +0.181 C 
ATOM      7  C   UNL     1      33.746  -7.918 -23.249  0.00  0.00    +0.244 C 
ENDROOT
BRANCH   2   8
ATOM      8  S   UNL     1      30.953 -10.146 -21.303  0.00  0.00    +0.069 S 
ATOM      9  O   UNL     1      29.732 -10.282 -22.071  0.00  0.00    -0.152 OA
ATOM     10  O   UNL     1      30.947 -10.106 -19.856  0.00  0.00    -0.152 OA
BRANCH   8  13
ATOM     11 CL   UNL     1      35.192 -17.129 -21.321  0.00  0.00    -0.082 Cl
ATOM     12  S   UNL     1      32.282 -12.557 -20.335  0.00  0.00    -0.067 S 
ATOM     13  C   UNL     1      31.900 -11.615 -21.688  0.00  0.00    +0.152 C 
ATOM     14  C   UNL     1      32.366 -12.115 -22.856  0.00  0.00    +0.027 C 
ATOM     15  C   UNL     1      33.085 -13.342 -22.665  0.00  0.00    +0.008 C 
ATOM     16  C   UNL     1      33.115 -13.706 -21.315  0.00  0.00    +0.032 C 
ATOM     17  C   UNL     1      33.728 -14.188 -23.601  0.00  0.00    +0.001 C 
ATOM     18  C   UNL     1      33.767 -14.878 -20.883  0.00  0.00    +0.018 C 
ATOM     19  C   UNL     1      34.374 -15.351 -23.175  0.00  0.00    +0.011 C 
ATOM     20  C   UNL     1      34.392 -15.691 -21.829  0.00  0.00    +0.058 C 
ENDBRANCH   8  13
ENDBRANCH   2   8
BRANCH   3  21
ATOM     21  C   UNL     1      33.855  -5.473 -23.575  0.00  0.00    +0.120 C 
BRANCH  21  22
ATOM     22  C   UNL     1      33.842  -5.390 -25.070  0.00  0.00    -0.002 C 
ATOM     23  C   UNL     1      32.714  -5.798 -25.775  0.00  0.00    -0.003 C 
ATOM     24  C   UNL     1      34.959  -4.905 -25.745  0.00  0.00    -0.003 C 
ATOM     25  C   UNL     1      32.702  -5.720 -27.168  0.00  0.00    +0.002 C 
ATOM     26  C   UNL     1      34.947  -4.828 -27.137  0.00  0.00    +0.002 C 
ATOM     27  C   UNL     1      33.819  -5.234 -27.849  0.00  0.00    +0.031 C 
BRANCH  27  30
ATOM     28  N   UNL     1      34.570  -4.207 -29.981  0.00  0.00    -0.343 N 
ATOM     29  N   UNL     1      33.062  -5.992 -30.000  0.00  0.00    -0.285 NA
ATOM     30  C   UNL     1      33.807  -5.155 -29.301  0.00  0.00    +0.117 C 
ATOM     31  H   UNL     1      34.547  -4.171 -30.965  0.00  0.00    +0.144 HD
ATOM     32  H   UNL     1      35.130  -3.572 -29.479  0.00  0.00    +0.144 HD
ATOM     33  H   UNL     1      33.052  -5.940 -30.984  0.00  0.00    +0.188 HD
ENDBRANCH  27  30
ENDBRANCH  21  22
ENDBRANCH   3  21
TORSDOF 5
ENDMDL
MODEL 6
REMARK VINA RESULT:     -10.5      4.537     10.107
REMARK  Name = 447362
REMARK  5 active torsions:
REMARK  status: ('A' for Active; 'I' for Inactive)
REMARK    1  A    between atoms: N_2  and  S_8
REMARK    2  A    between atoms: N_3  and  C_21
REMARK    3  A    between atoms: S_8  and  C_13
REMARK    4  A    between atoms: C_21  and  C_22
REMARK    5  A    between atoms: C_27  and  C_30
REMARK                            x       y       z     vdW  Elec       q    Type
REMARK                         _______ _______ _______ _____ _____    ______ ____
ROOT
ATOM      1  O   UNL     1      32.844 -13.048 -20.333  0.00  0.00    -0.273 OA
ATOM      2  N   UNL     1      33.044 -14.457 -23.661  0.00  0.00    -0.144 NA
ATOM      3  N   UNL     1      32.081 -12.182 -22.344  0.00  0.00    -0.273 N 
ATOM      4  C   UNL     1      32.928 -13.201 -24.432  0.00  0.00    +0.118 C 
ATOM      5  C   UNL     1      31.846 -12.375 -23.771  0.00  0.00    +0.113 C 
ATOM      6  C   UNL     1      33.512 -14.205 -22.284  0.00  0.00    +0.181 C 
ATOM      7  C   UNL     1      32.764 -13.111 -21.564  0.00  0.00    +0.244 C 
ENDROOT
BRANCH   2   8
ATOM      8  S   UNL     1      33.796 -15.764 -24.471  0.00  0.00    +0.069 S 
ATOM      9  O   UNL     1      35.016 -15.284 -25.087  0.00  0.00    -0.152 OA
ATOM     10  O   UNL     1      32.798 -16.498 -25.219  0.00  0.00    -0.152 OA
BRANCH   8  13
ATOM     11 CL   UNL     1      34.793 -21.927 -19.203  0.00  0.00    -0.082 Cl
ATOM     12  S   UNL     1      33.284 -18.230 -22.997  0.00  0.00    -0.067 S 
ATOM     13  C   UNL     1      34.340 -16.928 -23.225  0.00  0.00    +0.152 C 
ATOM     14  C   UNL     1      35.437 -16.964 -22.434  0.00  0.00    +0.027 C 
ATOM     15  C   UNL     1      35.442 -18.115 -21.576  0.00  0.00    +0.008 C 
ATOM     16  C   UNL     1      34.307 -18.904 -21.784  0.00  0.00    +0.032 C 
ATOM     17  C   UNL     1      36.384 -18.537 -20.607  0.00  0.00    +0.001 C 
ATOM     18  C   UNL     1      34.091 -20.090 -21.053  0.00  0.00    +0.018 C 
ATOM     19  C   UNL     1      36.173 -19.713 -19.882  0.00  0.00    +0.011 C 
ATOM     20  C   UNL     1      35.038 -20.480 -20.104  0.00  0.00    +0.058 C 
ENDBRANCH   8  13
ENDBRANCH   2   8
BRANCH   3  21
ATOM     21  C   UNL     1      31.364 -11.082 -21.716  0.00  0.00    +0.120 C 
BRANCH  21  22
ATOM     22  C   UNL     1      31.755  -9.791 -22.367  0.00  0.00    -0.002 C 
ATOM     23  C   UNL     1      30.793  -8.811 -22.589  0.00  0.00    -0.003 C 
ATOM     24  C   UNL     1      33.077  -9.581 -22.747  0.00  0.00    -0.003 C 
ATOM     25  C   UNL     1      31.157  -7.608 -23.195  0.00  0.00    +0.002 C 
ATOM     26  C   UNL     1      33.441  -8.379 -23.354  0.00  0.00    +0.002 C 
ATOM     27  C   UNL     1      32.481  -7.392 -23.577  0.00  0.00    +0.031 C 
BRANCH  27  30
ATOM     28  N   UNL     1      33.751  -5.259 -23.601  0.00  0.00    -0.343 N 
ATOM     29  N   UNL     1      32.354  -5.819 -25.389  0.00  0.00    -0.285 NA
ATOM     30  C   UNL     1      32.860  -6.140 -24.212  0.00  0.00    +0.117 C 
ATOM     31  H   UNL     1      33.994  -4.416 -24.048  0.00  0.00    +0.144 HD
ATOM     32  H   UNL     1      34.136  -5.478 -22.722  0.00  0.00    +0.144 HD
ATOM     33  H   UNL     1      32.610  -4.971 -25.821  0.00  0.00    +0.188 HD
ENDBRANCH  27  30
ENDBRANCH  21  22
ENDBRANCH   3  21
TORSDOF 5
ENDMDL
MODEL 7
REMARK VINA RESULT:     -10.4      4.061      8.815
REMARK  Name = 447362
REMARK  5 active torsions:
REMARK  status: ('A' for Active; 'I' for Inactive)
REMARK    1  A    between atoms: N_2  and  S_8
REMARK    2  A    between atoms: N_3  and  C_21
REMARK    3  A    between atoms: S_8  and  C_13
REMARK    4  A    between atoms: C_21  and  C_22
REMARK    5  A    between atoms: C_27  and  C_30
REMARK                            x       y       z     vdW  Elec       q    Type
REMARK                         _______ _______ _______ _____ _____    ______ ____
ROOT
ATOM      1  O   UNL     1      32.779 -16.346 -25.434  0.00  0.00    -0.273 OA
ATOM      2  N   UNL     1      35.158 -16.887 -22.759  0.00  0.00    -0.144 NA
ATOM      3  N   UNL     1      33.416 -14.918 -23.722  0.00  0.00    -0.273 N 
ATOM      4  C   UNL     1      34.631 -15.892 -21.800  0.00  0.00    +0.118 C 
ATOM      5  C   UNL     1      34.301 -14.646 -22.594  0.00  0.00    +0.113 C 
ATOM      6  C   UNL     1      34.129 -17.291 -23.737  0.00  0.00    +0.181 C 
ATOM      7  C   UNL     1      33.403 -16.140 -24.387  0.00  0.00    +0.244 C 
ENDROOT
BRANCH   2   8
ATOM      8  S   UNL     1      36.077 -18.162 -22.082  0.00  0.00    +0.069 S 
ATOM      9  O   UNL     1      37.045 -17.596 -21.165  0.00  0.00    -0.152 OA
ATOM     10  O   UNL     1      36.463 -19.080 -23.133  0.00  0.00    -0.152 OA
BRANCH   8  13
ATOM     11 CL   UNL     1      32.566 -23.287 -16.778  0.00  0.00    -0.082 Cl
ATOM     12  S   UNL     1      35.779 -20.224 -20.039  0.00  0.00    -0.067 S 
ATOM     13  C   UNL     1      34.980 -19.127 -21.050  0.00  0.00    +0.152 C 
ATOM     14  C   UNL     1      33.633 -19.145 -20.924  0.00  0.00    +0.027 C 
ATOM     15  C   UNL     1      33.198 -20.104 -19.950  0.00  0.00    +0.008 C 
ATOM     16  C   UNL     1      34.284 -20.774 -19.379  0.00  0.00    +0.032 C 
ATOM     17  C   UNL     1      31.895 -20.445 -19.510  0.00  0.00    +0.001 C 
ATOM     18  C   UNL     1      34.103 -21.766 -18.395  0.00  0.00    +0.018 C 
ATOM     19  C   UNL     1      31.713 -21.426 -18.533  0.00  0.00    +0.011 C 
ATOM     20  C   UNL     1      32.807 -22.079 -17.982  0.00  0.00    +0.058 C 
ENDBRANCH   8  13
ENDBRANCH   2   8
BRANCH   3  21
ATOM     21  C   UNL     1      32.709 -13.773 -24.276  0.00  0.00    +0.120 C 
BRANCH  21  22
ATOM     22  C   UNL     1      32.384 -12.805 -23.181  0.00  0.00    -0.002 C 
ATOM     23  C   UNL     1      31.956 -13.279 -21.945  0.00  0.00    -0.003 C 
ATOM     24  C   UNL     1      32.513 -11.437 -23.407  0.00  0.00    -0.003 C 
ATOM     25  C   UNL     1      31.654 -12.376 -20.924  0.00  0.00    +0.002 C 
ATOM     26  C   UNL     1      32.210 -10.535 -22.387  0.00  0.00    +0.002 C 
ATOM     27  C   UNL     1      31.781 -11.005 -21.145  0.00  0.00    +0.031 C 
BRANCH  27  30
ATOM     28  N   UNL     1      31.140  -8.737 -20.361  0.00  0.00    -0.343 N 
ATOM     29  N   UNL     1      31.484 -10.463 -18.823  0.00  0.00    -0.285 NA
ATOM     30  C   UNL     1      31.464 -10.064 -20.082  0.00  0.00    +0.117 C 
ATOM     31  H   UNL     1      30.929  -8.117 -19.626  0.00  0.00    +0.144 HD
ATOM     32  H   UNL     1      31.123  -8.420 -21.293  0.00  0.00    +0.144 HD
ATOM     33  H   UNL     1      31.270  -9.827 -18.102  0.00  0.00    +0.188 HD
ENDBRANCH  27  30
ENDBRANCH  21  22
ENDBRANCH   3  21
TORSDOF 5
ENDMDL
MODEL 8
REMARK VINA RESULT:     -10.3      6.705      9.490
REMARK  Name = 447362
REMARK  5 active torsions:
REMARK  status: ('A' for Active; 'I' for Inactive)
REMARK    1  A    between atoms: N_2  and  S_8
REMARK    2  A    between atoms: N_3  and  C_21
REMARK    3  A    between atoms: S_8  and  C_13
REMARK    4  A    between atoms: C_21  and  C_22
REMARK    5  A    between atoms: C_27  and  C_30
REMARK                            x       y       z     vdW  Elec       q    Type
REMARK                         _______ _______ _______ _____ _____    ______ ____
ROOT
ATOM      1  O   UNL     1      31.704  -9.434 -18.140  0.00  0.00    -0.273 OA
ATOM      2  N   UNL     1      31.569  -7.577 -21.244  0.00  0.00    -0.144 NA
ATOM      3  N   UNL     1      31.586 -10.219 -20.318  0.00  0.00    -0.273 N 
ATOM      4  C   UNL     1      30.939  -8.616 -22.087  0.00  0.00    +0.118 C 
ATOM      5  C   UNL     1      31.613  -9.928 -21.748  0.00  0.00    +0.113 C 
ATOM      6  C   UNL     1      31.303  -7.810 -19.811  0.00  0.00    +0.181 C 
ATOM      7  C   UNL     1      31.574  -9.220 -19.349  0.00  0.00    +0.244 C 
ENDROOT
BRANCH   2   8
ATOM      8  S   UNL     1      31.377  -5.963 -21.780  0.00  0.00    +0.069 S 
ATOM      9  O   UNL     1      32.085  -5.087 -20.869  0.00  0.00    -0.152 OA
ATOM     10  O   UNL     1      29.991  -5.741 -22.134  0.00  0.00    -0.152 OA
BRANCH   8  13
ATOM     11 CL   UNL     1      33.762  -5.539 -29.581  0.00  0.00    -0.082 Cl
ATOM     12  S   UNL     1      31.260  -5.997 -24.695  0.00  0.00    -0.067 S 
ATOM     13  C   UNL     1      32.248  -5.805 -23.335  0.00  0.00    +0.152 C 
ATOM     14  C   UNL     1      33.546  -5.560 -23.628  0.00  0.00    +0.027 C 
ATOM     15  C   UNL     1      33.778  -5.522 -25.044  0.00  0.00    +0.008 C 
ATOM     16  C   UNL     1      32.596  -5.747 -25.756  0.00  0.00    +0.032 C 
ATOM     17  C   UNL     1      34.969  -5.298 -25.776  0.00  0.00    +0.001 C 
ATOM     18  C   UNL     1      32.576  -5.757 -27.165  0.00  0.00    +0.018 C 
ATOM     19  C   UNL     1      34.952  -5.305 -27.173  0.00  0.00    +0.011 C 
ATOM     20  C   UNL     1      33.767  -5.533 -27.858  0.00  0.00    +0.058 C 
ENDBRANCH   8  13
ENDBRANCH   2   8
BRANCH   3  21
ATOM     21  C   UNL     1      31.809 -11.606 -19.939  0.00  0.00    +0.120 C 
BRANCH  21  22
ATOM     22  C   UNL     1      32.264 -12.387 -21.133  0.00  0.00    -0.002 C 
ATOM     23  C   UNL     1      33.365 -13.231 -21.029  0.00  0.00    -0.003 C 
ATOM     24  C   UNL     1      31.581 -12.263 -22.340  0.00  0.00    -0.003 C 
ATOM     25  C   UNL     1      33.788 -13.959 -22.142  0.00  0.00    +0.002 C 
ATOM     26  C   UNL     1      32.004 -12.990 -23.453  0.00  0.00    +0.002 C 
ATOM     27  C   UNL     1      33.107 -13.838 -23.354  0.00  0.00    +0.031 C 
BRANCH  27  30
ATOM     28  N   UNL     1      34.551 -15.559 -24.413  0.00  0.00    -0.343 N 
ATOM     29  N   UNL     1      32.999 -14.370 -25.694  0.00  0.00    -0.285 NA
ATOM     30  C   UNL     1      33.549 -14.595 -24.514  0.00  0.00    +0.117 C 
ATOM     31  H   UNL     1      34.835 -16.059 -25.212  0.00  0.00    +0.144 HD
ATOM     32  H   UNL     1      34.975 -15.739 -23.543  0.00  0.00    +0.144 HD
ATOM     33  H   UNL     1      33.297 -14.881 -26.482  0.00  0.00    +0.188 HD
ENDBRANCH  27  30
ENDBRANCH  21  22
ENDBRANCH   3  21
TORSDOF 5
ENDMDL
MODEL 9
REMARK VINA RESULT:     -10.3      6.331      9.577
REMARK  Name = 447362
REMARK  5 active torsions:
REMARK  status: ('A' for Active; 'I' for Inactive)
REMARK    1  A    between atoms: N_2  and  S_8
REMARK    2  A    between atoms: N_3  and  C_21
REMARK    3  A    between atoms: S_8  and  C_13
REMARK    4  A    between atoms: C_21  and  C_22
REMARK    5  A    between atoms: C_27  and  C_30
REMARK                            x       y       z     vdW  Elec       q    Type
REMARK                         _______ _______ _______ _____ _____    ______ ____
ROOT
ATOM      1  O   UNL     1      31.225  -9.609 -19.263  0.00  0.00    -0.273 OA
ATOM      2  N   UNL     1      32.418  -7.424 -21.890  0.00  0.00    -0.144 NA
ATOM      3  N   UNL     1      30.890  -9.745 -21.553  0.00  0.00    -0.273 N 
ATOM      4  C   UNL     1      31.398  -7.743 -22.913  0.00  0.00    +0.118 C 
ATOM      5  C   UNL     1      31.201  -9.244 -22.887  0.00  0.00    +0.113 C 
ATOM      6  C   UNL     1      31.940  -7.746 -20.532  0.00  0.00    +0.181 C 
ATOM      7  C   UNL     1      31.344  -9.125 -20.393  0.00  0.00    +0.244 C 
ENDROOT
BRANCH   2   8
ATOM      8  S   UNL     1      33.197  -5.910 -22.061  0.00  0.00    +0.069 S 
ATOM      9  O   UNL     1      34.597  -6.071 -21.724  0.00  0.00    -0.152 OA
ATOM     10  O   UNL     1      32.377  -4.881 -21.457  0.00  0.00    -0.152 OA
BRANCH   8  13
ATOM     11 CL   UNL     1      32.226  -2.628 -29.478  0.00  0.00    -0.082 Cl
ATOM     12  S   UNL     1      32.349  -4.074 -24.164  0.00  0.00    -0.067 S 
ATOM     13  C   UNL     1      33.192  -5.496 -23.802  0.00  0.00    +0.152 C 
ATOM     14  C   UNL     1      33.736  -6.103 -24.882  0.00  0.00    +0.027 C 
ATOM     15  C   UNL     1      33.463  -5.386 -26.094  0.00  0.00    +0.008 C 
ATOM     16  C   UNL     1      32.703  -4.239 -25.844  0.00  0.00    +0.032 C 
ATOM     17  C   UNL     1      33.837  -5.663 -27.432  0.00  0.00    +0.001 C 
ATOM     18  C   UNL     1      32.311  -3.375 -26.885  0.00  0.00    +0.018 C 
ATOM     19  C   UNL     1      33.450  -4.807 -28.466  0.00  0.00    +0.011 C 
ATOM     20  C   UNL     1      32.695  -3.674 -28.193  0.00  0.00    +0.058 C 
ENDBRANCH   8  13
ENDBRANCH   2   8
BRANCH   3  21
ATOM     21  C   UNL     1      30.275 -11.063 -21.487  0.00  0.00    +0.120 C 
BRANCH  21  22
ATOM     22  C   UNL     1      31.323 -12.116 -21.679  0.00  0.00    -0.002 C 
ATOM     23  C   UNL     1      31.831 -12.361 -22.951  0.00  0.00    -0.003 C 
ATOM     24  C   UNL     1      31.781 -12.842 -20.583  0.00  0.00    -0.003 C 
ATOM     25  C   UNL     1      32.808 -13.341 -23.129  0.00  0.00    +0.002 C 
ATOM     26  C   UNL     1      32.757 -13.822 -20.762  0.00  0.00    +0.002 C 
ATOM     27  C   UNL     1      33.271 -14.072 -22.035  0.00  0.00    +0.031 C 
BRANCH  27  30
ATOM     28  N   UNL     1      34.589 -16.009 -21.212  0.00  0.00    -0.343 N 
ATOM     29  N   UNL     1      34.946 -15.169 -23.364  0.00  0.00    -0.285 NA
ATOM     30  C   UNL     1      34.287 -15.095 -22.221  0.00  0.00    +0.117 C 
ATOM     31  H   UNL     1      35.281 -16.694 -21.360  0.00  0.00    +0.144 HD
ATOM     32  H   UNL     1      34.111 -15.970 -20.353  0.00  0.00    +0.144 HD
ATOM     33  H   UNL     1      35.635 -15.861 -23.492  0.00  0.00    +0.188 HD
ENDBRANCH  27  30
ENDBRANCH  21  22
ENDBRANCH   3  21
TORSDOF 5
ENDMDL
