MODEL 1
REMARK VINA RESULT:     -11.8      0.000      0.000
REMARK  Name = 44563262
REMARK  2 active torsions:
REMARK  status: ('A' for Active; 'I' for Inactive)
REMARK    1  A    between atoms: N_2  and  C_13
REMARK    2  A    between atoms: C_6  and  C_19
REMARK                            x       y       z     vdW  Elec       q    Type
REMARK                         _______ _______ _______ _____ _____    ______ ____
ROOT
ATOM      1  N   UNL     1      33.509 -14.582 -23.904  0.00  0.00    -0.243 N 
ATOM      2  N   UNL     1      32.732 -11.031 -23.159  0.00  0.00    -0.296 N 
ATOM      3  N   UNL     1      33.509 -12.763 -21.805  0.00  0.00    -0.226 NA
ATOM      4  N   UNL     1      32.973 -14.404 -26.057  0.00  0.00    -0.224 NA
ATOM      5  C   UNL     1      33.116 -13.278 -24.100  0.00  0.00    +0.108 C 
ATOM      6  C   UNL     1      33.914 -15.007 -22.641  0.00  0.00    +0.076 C 
ATOM      7  C   UNL     1      33.121 -12.339 -22.991  0.00  0.00    +0.148 C 
ATOM      8  C   UNL     1      33.895 -14.085 -21.654  0.00  0.00    +0.115 C 
ATOM      9  C   UNL     1      33.410 -15.214 -25.116  0.00  0.00    +0.172 C 
ATOM     10  C   UNL     1      32.787 -13.196 -25.432  0.00  0.00    +0.118 C 
ATOM     11  H   UNL     1      32.887 -10.634 -24.046  0.00  0.00    +0.154 HD
ENDROOT
BRANCH   2  13
ATOM     12 CL   UNL     1      33.383  -8.074 -23.364  0.00  0.00    -0.081 Cl
ATOM     13  C   UNL     1      32.141 -10.209 -22.203  0.00  0.00    +0.060 C 
ATOM     14  C   UNL     1      32.364  -8.832 -22.193  0.00  0.00    +0.071 C 
ATOM     15  C   UNL     1      31.313 -10.789 -21.242  0.00  0.00    +0.015 C 
ATOM     16  C   UNL     1      31.758  -8.035 -21.221  0.00  0.00    +0.013 C 
ATOM     17  C   UNL     1      30.707  -9.992 -20.271  0.00  0.00    +0.001 C 
ATOM     18  C   UNL     1      30.930  -8.615 -20.261  0.00  0.00    +0.001 C 
ENDBRANCH   2  13
BRANCH   6  19
ATOM     19  C   UNL     1      34.335 -16.388 -22.356  0.00  0.00    +0.016 C 
ATOM     20  C   UNL     1      34.209 -17.371 -23.338  0.00  0.00    +0.001 C 
ATOM     21  C   UNL     1      34.860 -16.713 -21.106  0.00  0.00    +0.001 C 
ATOM     22  C   UNL     1      34.608 -18.680 -23.068  0.00  0.00    +0.000 C 
ATOM     23  C   UNL     1      35.260 -18.023 -20.837  0.00  0.00    +0.000 C 
ATOM     24  C   UNL     1      35.133 -19.006 -21.818  0.00  0.00    +0.000 C 
ENDBRANCH   6  19
TORSDOF 2
ENDMDL
MODEL 2
REMARK VINA RESULT:     -11.6      8.056     11.411
REMARK  Name = 44563262
REMARK  2 active torsions:
REMARK  status: ('A' for Active; 'I' for Inactive)
REMARK    1  A    between atoms: N_2  and  C_13
REMARK    2  A    between atoms: C_6  and  C_19
REMARK                            x       y       z     vdW  Elec       q    Type
REMARK                         _______ _______ _______ _____ _____    ______ ____
ROOT
ATOM      1  N   UNL     1      34.547 -22.923 -15.584  0.00  0.00    -0.243 N 
ATOM      2  N   UNL     1      34.213 -21.507 -18.998  0.00  0.00    -0.296 N 
ATOM      3  N   UNL     1      36.053 -21.713 -17.579  0.00  0.00    -0.226 NA
ATOM      4  N   UNL     1      32.396 -23.479 -15.442  0.00  0.00    -0.224 NA
ATOM      5  C   UNL     1      33.966 -22.536 -16.769  0.00  0.00    +0.108 C 
ATOM      6  C   UNL     1      35.906 -22.709 -15.369  0.00  0.00    +0.076 C 
ATOM      7  C   UNL     1      34.768 -21.904 -17.803  0.00  0.00    +0.148 C 
ATOM      8  C   UNL     1      36.594 -22.117 -16.370  0.00  0.00    +0.115 C 
ATOM      9  C   UNL     1      33.558 -23.490 -14.823  0.00  0.00    +0.172 C 
ATOM     10  C   UNL     1      32.641 -22.886 -16.655  0.00  0.00    +0.118 C 
ATOM     11  H   UNL     1      33.444 -22.029 -19.323  0.00  0.00    +0.154 HD
ENDROOT
BRANCH   2  13
ATOM     12 CL   UNL     1      32.027 -20.075 -20.540  0.00  0.00    -0.081 Cl
ATOM     13  C   UNL     1      34.627 -20.444 -19.795  0.00  0.00    +0.060 C 
ATOM     14  C   UNL     1      33.715 -19.707 -20.552  0.00  0.00    +0.071 C 
ATOM     15  C   UNL     1      35.983 -20.121 -19.828  0.00  0.00    +0.015 C 
ATOM     16  C   UNL     1      34.160 -18.648 -21.342  0.00  0.00    +0.013 C 
ATOM     17  C   UNL     1      36.428 -19.061 -20.619  0.00  0.00    +0.001 C 
ATOM     18  C   UNL     1      35.517 -18.324 -21.375  0.00  0.00    +0.001 C 
ENDBRANCH   2  13
BRANCH   6  19
ATOM     19  C   UNL     1      36.590 -23.085 -14.122  0.00  0.00    +0.016 C 
ATOM     20  C   UNL     1      37.585 -24.062 -14.141  0.00  0.00    +0.001 C 
ATOM     21  C   UNL     1      36.245 -22.465 -12.922  0.00  0.00    +0.001 C 
ATOM     22  C   UNL     1      38.234 -24.420 -12.960  0.00  0.00    +0.000 C 
ATOM     23  C   UNL     1      36.894 -22.822 -11.740  0.00  0.00    +0.000 C 
ATOM     24  C   UNL     1      37.889 -23.800 -11.759  0.00  0.00    +0.000 C 
ENDBRANCH   6  19
TORSDOF 2
ENDMDL
MODEL 3
REMARK VINA RESULT:     -11.5      8.240     11.292
REMARK  Name = 44563262
REMARK  2 active torsions:
REMARK  status: ('A' for Active; 'I' for Inactive)
REMARK    1  A    between atoms: N_2  and  C_13
REMARK    2  A    between atoms: C_6  and  C_19
REMARK                            x       y       z     vdW  Elec       q    Type
REMARK                         _______ _______ _______ _____ _____    ______ ____
ROOT
ATOM      1  N   UNL     1      34.927 -21.259 -18.204  0.00  0.00    -0.243 N 
ATOM      2  N   UNL     1      32.399 -23.201 -16.304  0.00  0.00    -0.296 N 
ATOM      3  N   UNL     1      32.237 -21.948 -18.264  0.00  0.00    -0.226 NA
ATOM      4  N   UNL     1      36.582 -21.752 -16.798  0.00  0.00    -0.224 NA
ATOM      5  C   UNL     1      34.381 -22.056 -17.224  0.00  0.00    +0.108 C 
ATOM      6  C   UNL     1      34.131 -20.786 -19.244  0.00  0.00    +0.076 C 
ATOM      7  C   UNL     1      32.972 -22.407 -17.270  0.00  0.00    +0.148 C 
ATOM      8  C   UNL     1      32.830 -21.149 -19.228  0.00  0.00    +0.115 C 
ATOM      9  C   UNL     1      36.256 -21.114 -17.902  0.00  0.00    +0.172 C 
ATOM     10  C   UNL     1      35.419 -22.342 -16.369  0.00  0.00    +0.118 C 
ATOM     11  H   UNL     1      32.984 -23.867 -15.875  0.00  0.00    +0.154 HD
ENDROOT
BRANCH   2  13
ATOM     12 CL   UNL     1      31.797 -24.714 -13.743  0.00  0.00    -0.081 Cl
ATOM     13  C   UNL     1      31.078 -23.160 -15.869  0.00  0.00    +0.060 C 
ATOM     14  C   UNL     1      30.677 -23.817 -14.705  0.00  0.00    +0.071 C 
ATOM     15  C   UNL     1      30.147 -22.445 -16.622  0.00  0.00    +0.015 C 
ATOM     16  C   UNL     1      29.344 -23.758 -14.295  0.00  0.00    +0.013 C 
ATOM     17  C   UNL     1      28.815 -22.387 -16.212  0.00  0.00    +0.001 C 
ATOM     18  C   UNL     1      28.414 -23.044 -15.049  0.00  0.00    +0.001 C 
ENDBRANCH   2  13
BRANCH   6  19
ATOM     19  C   UNL     1      34.645 -19.921 -20.317  0.00  0.00    +0.016 C 
ATOM     20  C   UNL     1      33.828 -19.592 -21.398  0.00  0.00    +0.001 C 
ATOM     21  C   UNL     1      35.948 -19.429 -20.254  0.00  0.00    +0.001 C 
ATOM     22  C   UNL     1      34.314 -18.774 -22.417  0.00  0.00    +0.000 C 
ATOM     23  C   UNL     1      36.435 -18.609 -21.272  0.00  0.00    +0.000 C 
ATOM     24  C   UNL     1      35.618 -18.281 -22.354  0.00  0.00    +0.000 C 
ENDBRANCH   6  19
TORSDOF 2
ENDMDL
MODEL 4
REMARK VINA RESULT:     -11.4      8.473     12.678
REMARK  Name = 44563262
REMARK  2 active torsions:
REMARK  status: ('A' for Active; 'I' for Inactive)
REMARK    1  A    between atoms: N_2  and  C_13
REMARK    2  A    between atoms: C_6  and  C_19
REMARK                            x       y       z     vdW  Elec       q    Type
REMARK                         _______ _______ _______ _____ _____    ______ ____
ROOT
ATOM      1  N   UNL     1      33.671 -21.755 -17.873  0.00  0.00    -0.243 N 
ATOM      2  N   UNL     1      34.853 -23.611 -14.885  0.00  0.00    -0.296 N 
ATOM      3  N   UNL     1      35.990 -22.306 -16.447  0.00  0.00    -0.226 NA
ATOM      4  N   UNL     1      31.545 -22.350 -17.587  0.00  0.00    -0.224 NA
ATOM      5  C   UNL     1      33.636 -22.546 -16.748  0.00  0.00    +0.108 C 
ATOM      6  C   UNL     1      34.879 -21.220 -18.314  0.00  0.00    +0.076 C 
ATOM      7  C   UNL     1      34.859 -22.824 -16.013  0.00  0.00    +0.148 C 
ATOM      8  C   UNL     1      35.977 -21.517 -17.586  0.00  0.00    +0.115 C 
ATOM      9  C   UNL     1      32.384 -21.665 -18.335  0.00  0.00    +0.172 C 
ATOM     10  C   UNL     1      32.317 -22.901 -16.595  0.00  0.00    +0.118 C 
ATOM     11  H   UNL     1      34.031 -23.602 -14.344  0.00  0.00    +0.154 HD
ENDROOT
BRANCH   2  13
ATOM     12 CL   UNL     1      36.622 -22.413 -12.730  0.00  0.00    -0.081 Cl
ATOM     13  C   UNL     1      35.891 -24.420 -14.429  0.00  0.00    +0.060 C 
ATOM     14  C   UNL     1      36.771 -23.981 -13.440  0.00  0.00    +0.071 C 
ATOM     15  C   UNL     1      36.040 -25.691 -14.982  0.00  0.00    +0.015 C 
ATOM     16  C   UNL     1      37.802 -24.814 -13.005  0.00  0.00    +0.013 C 
ATOM     17  C   UNL     1      37.071 -26.524 -14.546  0.00  0.00    +0.001 C 
ATOM     18  C   UNL     1      37.952 -26.085 -13.558  0.00  0.00    +0.001 C 
ENDBRANCH   2  13
BRANCH   6  19
ATOM     19  C   UNL     1      34.992 -20.377 -19.515  0.00  0.00    +0.016 C 
ATOM     20  C   UNL     1      36.215 -19.792 -19.842  0.00  0.00    +0.001 C 
ATOM     21  C   UNL     1      33.878 -20.165 -20.326  0.00  0.00    +0.001 C 
ATOM     22  C   UNL     1      36.323 -18.992 -20.979  0.00  0.00    +0.000 C 
ATOM     23  C   UNL     1      33.986 -19.366 -21.464  0.00  0.00    +0.000 C 
ATOM     24  C   UNL     1      35.209 -18.779 -21.791  0.00  0.00    +0.000 C 
ENDBRANCH   6  19
TORSDOF 2
ENDMDL
MODEL 5
REMARK VINA RESULT:     -11.0      1.732      2.679
REMARK  Name = 44563262
REMARK  2 active torsions:
REMARK  status: ('A' for Active; 'I' for Inactive)
REMARK    1  A    between atoms: N_2  and  C_13
REMARK    2  A    between atoms: C_6  and  C_19
REMARK                            x       y       z     vdW  Elec       q    Type
REMARK                         _______ _______ _______ _____ _____    ______ ____
ROOT
ATOM      1  N   UNL     1      34.160 -17.010 -22.838  0.00  0.00    -0.243 N 
ATOM      2  N   UNL     1      33.388 -13.382 -22.945  0.00  0.00    -0.296 N 
ATOM      3  N   UNL     1      33.984 -14.787 -21.183  0.00  0.00    -0.226 NA
ATOM      4  N   UNL     1      33.850 -17.293 -25.025  0.00  0.00    -0.224 NA
ATOM      5  C   UNL     1      33.817 -15.778 -23.346  0.00  0.00    +0.108 C 
ATOM      6  C   UNL     1      34.424 -17.157 -21.479  0.00  0.00    +0.076 C 
ATOM      7  C   UNL     1      33.729 -14.625 -22.466  0.00  0.00    +0.148 C 
ATOM      8  C   UNL     1      34.325 -16.046 -20.717  0.00  0.00    +0.115 C 
ATOM      9  C   UNL     1      34.171 -17.884 -23.894  0.00  0.00    +0.172 C 
ATOM     10  C   UNL     1      33.628 -15.980 -24.692  0.00  0.00    +0.118 C 
ATOM     11  H   UNL     1      33.641 -13.182 -23.876  0.00  0.00    +0.154 HD
ENDROOT
BRANCH   2  13
ATOM     12 CL   UNL     1      33.273 -10.675 -24.313  0.00  0.00    -0.081 Cl
ATOM     13  C   UNL     1      32.720 -12.376 -22.252  0.00  0.00    +0.060 C 
ATOM     14  C   UNL     1      32.600 -11.090 -22.777  0.00  0.00    +0.071 C 
ATOM     15  C   UNL     1      32.165 -12.677 -21.008  0.00  0.00    +0.015 C 
ATOM     16  C   UNL     1      31.926 -10.102 -22.057  0.00  0.00    +0.013 C 
ATOM     17  C   UNL     1      31.491 -11.690 -20.289  0.00  0.00    +0.001 C 
ATOM     18  C   UNL     1      31.372 -10.403 -20.814  0.00  0.00    +0.001 C 
ENDBRANCH   2  13
BRANCH   6  19
ATOM     19  C   UNL     1      34.785 -18.445 -20.867  0.00  0.00    +0.016 C 
ATOM     20  C   UNL     1      36.119 -18.731 -20.581  0.00  0.00    +0.001 C 
ATOM     21  C   UNL     1      33.793 -19.379 -20.572  0.00  0.00    +0.001 C 
ATOM     22  C   UNL     1      36.462 -19.952 -20.001  0.00  0.00    +0.000 C 
ATOM     23  C   UNL     1      34.135 -20.601 -19.991  0.00  0.00    +0.000 C 
ATOM     24  C   UNL     1      35.470 -20.887 -19.706  0.00  0.00    +0.000 C 
ENDBRANCH   6  19
TORSDOF 2
ENDMDL
MODEL 6
REMARK VINA RESULT:     -10.8      8.790     12.930
REMARK  Name = 44563262
REMARK  2 active torsions:
REMARK  status: ('A' for Active; 'I' for Inactive)
REMARK    1  A    between atoms: N_2  and  C_13
REMARK    2  A    between atoms: C_6  and  C_19
REMARK                            x       y       z     vdW  Elec       q    Type
REMARK                         _______ _______ _______ _____ _____    ______ ____
ROOT
ATOM      1  N   UNL     1      33.889 -21.969 -17.619  0.00  0.00    -0.243 N 
ATOM      2  N   UNL     1      35.379 -23.526 -14.598  0.00  0.00    -0.296 N 
ATOM      3  N   UNL     1      36.300 -22.168 -16.255  0.00  0.00    -0.226 NA
ATOM      4  N   UNL     1      31.861 -22.801 -17.231  0.00  0.00    -0.224 NA
ATOM      5  C   UNL     1      33.985 -22.704 -16.460  0.00  0.00    +0.108 C 
ATOM      6  C   UNL     1      35.008 -21.313 -18.125  0.00  0.00    +0.076 C 
ATOM      7  C   UNL     1      35.254 -22.798 -15.758  0.00  0.00    +0.148 C 
ATOM      8  C   UNL     1      36.157 -21.441 -17.425  0.00  0.00    +0.115 C 
ATOM      9  C   UNL     1      32.587 -22.056 -18.038  0.00  0.00    +0.172 C 
ATOM     10  C   UNL     1      32.724 -23.208 -16.245  0.00  0.00    +0.118 C 
ATOM     11  H   UNL     1      34.578 -23.590 -14.028  0.00  0.00    +0.154 HD
ENDROOT
BRANCH   2  13
ATOM     12 CL   UNL     1      35.769 -26.362 -15.604  0.00  0.00    -0.081 Cl
ATOM     13  C   UNL     1      36.520 -24.181 -14.145  0.00  0.00    +0.060 C 
ATOM     14  C   UNL     1      36.810 -25.488 -14.537  0.00  0.00    +0.071 C 
ATOM     15  C   UNL     1      37.382 -23.505 -13.282  0.00  0.00    +0.015 C 
ATOM     16  C   UNL     1      37.961 -26.119 -14.065  0.00  0.00    +0.013 C 
ATOM     17  C   UNL     1      38.533 -24.136 -12.810  0.00  0.00    +0.001 C 
ATOM     18  C   UNL     1      38.823 -25.443 -13.202  0.00  0.00    +0.001 C 
ENDBRANCH   2  13
BRANCH   6  19
ATOM     19  C   UNL     1      34.982 -20.521 -19.365  0.00  0.00    +0.016 C 
ATOM     20  C   UNL     1      36.151 -19.922 -19.834  0.00  0.00    +0.001 C 
ATOM     21  C   UNL     1      33.789 -20.369 -20.070  0.00  0.00    +0.001 C 
ATOM     22  C   UNL     1      36.126 -19.170 -21.008  0.00  0.00    +0.000 C 
ATOM     23  C   UNL     1      33.764 -19.618 -21.246  0.00  0.00    +0.000 C 
ATOM     24  C   UNL     1      34.933 -19.018 -21.714  0.00  0.00    +0.000 C 
ENDBRANCH   6  19
TORSDOF 2
ENDMDL
MODEL 7
REMARK VINA RESULT:     -10.7      2.229      4.072
REMARK  Name = 44563262
REMARK  2 active torsions:
REMARK  status: ('A' for Active; 'I' for Inactive)
REMARK    1  A    between atoms: N_2  and  C_13
REMARK    2  A    between atoms: C_6  and  C_19
REMARK                            x       y       z     vdW  Elec       q    Type
REMARK                         _______ _______ _______ _____ _____    ______ ____
ROOT
ATOM      1  N   UNL     1      32.262 -12.082 -21.925  0.00  0.00    -0.243 N 
ATOM      2  N   UNL     1      31.763  -8.490 -22.708  0.00  0.00    -0.296 N 
ATOM      3  N   UNL     1      32.795 -10.206 -23.902  0.00  0.00    -0.226 NA
ATOM      4  N   UNL     1      31.224 -11.953 -19.960  0.00  0.00    -0.224 NA
ATOM      5  C   UNL     1      31.863 -10.774 -21.781  0.00  0.00    +0.108 C 
ATOM      6  C   UNL     1      32.944 -12.483 -23.070  0.00  0.00    +0.076 C 
ATOM      7  C   UNL     1      32.150  -9.804 -22.825  0.00  0.00    +0.148 C 
ATOM      8  C   UNL     1      33.179 -11.533 -24.002  0.00  0.00    +0.115 C 
ATOM      9  C   UNL     1      31.846 -12.750 -20.802  0.00  0.00    +0.172 C 
ATOM     10  C   UNL     1      31.230 -10.719 -20.562  0.00  0.00    +0.118 C 
ATOM     11  H   UNL     1      30.948  -8.314 -22.183  0.00  0.00    +0.154 HD
ENDROOT
BRANCH   2  13
ATOM     12 CL   UNL     1      30.282  -7.064 -24.940  0.00  0.00    -0.081 Cl
ATOM     13  C   UNL     1      32.404  -7.381 -23.253  0.00  0.00    +0.060 C 
ATOM     14  C   UNL     1      31.825  -6.643 -24.285  0.00  0.00    +0.071 C 
ATOM     15  C   UNL     1      33.651  -7.014 -22.749  0.00  0.00    +0.015 C 
ATOM     16  C   UNL     1      32.493  -5.538 -24.813  0.00  0.00    +0.013 C 
ATOM     17  C   UNL     1      34.319  -5.909 -23.276  0.00  0.00    +0.001 C 
ATOM     18  C   UNL     1      33.739  -5.171 -24.308  0.00  0.00    +0.001 C 
ENDBRANCH   2  13
BRANCH   6  19
ATOM     19  C   UNL     1      33.411 -13.862 -23.285  0.00  0.00    +0.016 C 
ATOM     20  C   UNL     1      33.158 -14.502 -24.498  0.00  0.00    +0.001 C 
ATOM     21  C   UNL     1      34.107 -14.528 -22.277  0.00  0.00    +0.001 C 
ATOM     22  C   UNL     1      33.599 -15.809 -24.702  0.00  0.00    +0.000 C 
ATOM     23  C   UNL     1      34.550 -15.835 -22.481  0.00  0.00    +0.000 C 
ATOM     24  C   UNL     1      34.296 -16.476 -23.694  0.00  0.00    +0.000 C 
ENDBRANCH   6  19
TORSDOF 2
ENDMDL
MODEL 8
REMARK VINA RESULT:     -10.5     11.108     14.049
REMARK  Name = 44563262
REMARK  2 active torsions:
REMARK  status: ('A' for Active; 'I' for Inactive)
REMARK    1  A    between atoms: N_2  and  C_13
REMARK    2  A    between atoms: C_6  and  C_19
REMARK                            x       y       z     vdW  Elec       q    Type
REMARK                         _______ _______ _______ _____ _____    ______ ____
ROOT
ATOM      1  N   UNL     1      32.289 -22.721 -16.461  0.00  0.00    -0.243 N 
ATOM      2  N   UNL     1      35.537 -23.818 -15.041  0.00  0.00    -0.296 N 
ATOM      3  N   UNL     1      33.351 -24.046 -14.263  0.00  0.00    -0.226 NA
ATOM      4  N   UNL     1      33.216 -21.811 -18.269  0.00  0.00    -0.224 NA
ATOM      5  C   UNL     1      33.646 -22.915 -16.342  0.00  0.00    +0.108 C 
ATOM      6  C   UNL     1      31.427 -23.189 -15.473  0.00  0.00    +0.076 C 
ATOM      7  C   UNL     1      34.185 -23.610 -15.186  0.00  0.00    +0.148 C 
ATOM      8  C   UNL     1      31.993 -23.827 -14.425  0.00  0.00    +0.115 C 
ATOM      9  C   UNL     1      32.085 -22.057 -17.643  0.00  0.00    +0.172 C 
ATOM     10  C   UNL     1      34.194 -22.343 -17.466  0.00  0.00    +0.118 C 
ATOM     11  H   UNL     1      36.061 -23.911 -15.869  0.00  0.00    +0.154 HD
ENDROOT
BRANCH   2  13
ATOM     12 CL   UNL     1      36.642 -26.560 -14.357  0.00  0.00    -0.081 Cl
ATOM     13  C   UNL     1      36.241 -23.909 -13.844  0.00  0.00    +0.060 C 
ATOM     14  C   UNL     1      36.797 -25.117 -13.420  0.00  0.00    +0.071 C 
ATOM     15  C   UNL     1      36.386 -22.763 -13.063  0.00  0.00    +0.015 C 
ATOM     16  C   UNL     1      37.497 -25.177 -12.214  0.00  0.00    +0.013 C 
ATOM     17  C   UNL     1      37.085 -22.824 -11.857  0.00  0.00    +0.001 C 
ATOM     18  C   UNL     1      37.641 -24.031 -11.434  0.00  0.00    +0.001 C 
ENDBRANCH   2  13
BRANCH   6  19
ATOM     19  C   UNL     1      29.968 -23.006 -15.529  0.00  0.00    +0.016 C 
ATOM     20  C   UNL     1      29.182 -23.900 -16.255  0.00  0.00    +0.001 C 
ATOM     21  C   UNL     1      29.372 -21.941 -14.856  0.00  0.00    +0.001 C 
ATOM     22  C   UNL     1      27.799 -23.727 -16.310  0.00  0.00    +0.000 C 
ATOM     23  C   UNL     1      27.988 -21.769 -14.909  0.00  0.00    +0.000 C 
ATOM     24  C   UNL     1      27.202 -22.662 -15.636  0.00  0.00    +0.000 C 
ENDBRANCH   6  19
TORSDOF 2
ENDMDL
MODEL 9
REMARK VINA RESULT:     -10.5      1.737      2.179
REMARK  Name = 44563262
REMARK  2 active torsions:
REMARK  status: ('A' for Active; 'I' for Inactive)
REMARK    1  A    between atoms: N_2  and  C_13
REMARK    2  A    between atoms: C_6  and  C_19
REMARK                            x       y       z     vdW  Elec       q    Type
REMARK                         _______ _______ _______ _____ _____    ______ ____
ROOT
ATOM      1  N   UNL     1      33.874 -15.873 -23.361  0.00  0.00    -0.243 N 
ATOM      2  N   UNL     1      32.981 -12.272 -23.278  0.00  0.00    -0.296 N 
ATOM      3  N   UNL     1      33.827 -13.696 -21.637  0.00  0.00    -0.226 NA
ATOM      4  N   UNL     1      33.315 -16.116 -25.503  0.00  0.00    -0.224 NA
ATOM      5  C   UNL     1      33.434 -14.642 -23.791  0.00  0.00    +0.108 C 
ATOM      6  C   UNL     1      34.302 -16.042 -22.048  0.00  0.00    +0.076 C 
ATOM      7  C   UNL     1      33.416 -13.513 -22.876  0.00  0.00    +0.148 C 
ATOM      8  C   UNL     1      34.260 -14.953 -21.249  0.00  0.00    +0.115 C 
ATOM      9  C   UNL     1      33.787 -16.722 -24.434  0.00  0.00    +0.172 C 
ATOM     10  C   UNL     1      33.093 -14.819 -25.111  0.00  0.00    +0.118 C 
ATOM     11  H   UNL     1      33.116 -12.042 -24.226  0.00  0.00    +0.154 HD
ENDROOT
BRANCH   2  13
ATOM     12 CL   UNL     1      31.593 -13.293 -20.780  0.00  0.00    -0.081 Cl
ATOM     13  C   UNL     1      32.370 -11.306 -22.484  0.00  0.00    +0.060 C 
ATOM     14  C   UNL     1      31.699 -11.652 -21.310  0.00  0.00    +0.071 C 
ATOM     15  C   UNL     1      32.436  -9.972 -22.882  0.00  0.00    +0.015 C 
ATOM     16  C   UNL     1      31.095 -10.661 -20.535  0.00  0.00    +0.013 C 
ATOM     17  C   UNL     1      31.832  -8.982 -22.107  0.00  0.00    +0.001 C 
ATOM     18  C   UNL     1      31.162  -9.327 -20.933  0.00  0.00    +0.001 C 
ENDBRANCH   2  13
BRANCH   6  19
ATOM     19  C   UNL     1      34.773 -17.331 -21.517  0.00  0.00    +0.016 C 
ATOM     20  C   UNL     1      33.853 -18.273 -21.058  0.00  0.00    +0.001 C 
ATOM     21  C   UNL     1      36.138 -17.611 -21.474  0.00  0.00    +0.001 C 
ATOM     22  C   UNL     1      34.299 -19.495 -20.554  0.00  0.00    +0.000 C 
ATOM     23  C   UNL     1      36.584 -18.834 -20.971  0.00  0.00    +0.000 C 
ATOM     24  C   UNL     1      35.664 -19.776 -20.511  0.00  0.00    +0.000 C 
ENDBRANCH   6  19
TORSDOF 2
ENDMDL
