MODEL 1
REMARK VINA RESULT:     -12.3      0.000      0.000
REMARK  Name = 24856362
REMARK  8 active torsions:
REMARK  status: ('A' for Active; 'I' for Inactive)
REMARK    1  A    between atoms: S_1  and  N_5
REMARK    2  A    between atoms: S_1  and  C_21
REMARK    3  A    between atoms: N_4  and  C_12
REMARK    4  A    between atoms: C_12  and  C_13
REMARK    5  A    between atoms: C_13  and  C_18
REMARK    6  A    between atoms: C_24  and  C_27
REMARK    7  A    between atoms: C_27  and  C_32
REMARK    8  A    between atoms: C_27  and  O_33
REMARK                            x       y       z     vdW  Elec       q    Type
REMARK                         _______ _______ _______ _____ _____    ______ ____
ROOT
ATOM      1  S   UNL     1      32.868 -22.600 -18.011  0.00  0.00    +0.063 S 
ATOM      2  O   UNL     1      31.534 -22.189 -17.637  0.00  0.00    -0.153 OA
ATOM      3  O   UNL     1      33.110 -23.869 -18.658  0.00  0.00    -0.153 OA
ENDROOT
BRANCH   1   5
ATOM      4  N   UNL     1      35.928 -22.959 -14.644  0.00  0.00    +0.389 N 
ATOM      5  N   UNL     1      33.891 -22.479 -16.635  0.00  0.00    -0.161 NA
ATOM      6  C   UNL     1      34.502 -23.003 -14.291  0.00  0.00    -0.059 C 
ATOM      7  C   UNL     1      36.151 -22.010 -15.740  0.00  0.00    -0.058 C 
ATOM      8  C   UNL     1      33.638 -23.428 -15.493  0.00  0.00    +0.059 C 
ATOM      9  C   UNL     1      35.348 -22.417 -16.971  0.00  0.00    +0.073 C 
ATOM     10  C   UNL     1      32.168 -23.424 -15.077  0.00  0.00    +0.017 C 
ATOM     11  H   UNL     1      36.214 -23.888 -14.955  0.00  0.00    -0.080 HD
BRANCH   4  12
ATOM     12  C   UNL     1      36.736 -22.599 -13.479  0.00  0.00    -0.068 C 
BRANCH  12  13
ATOM     13  C   UNL     1      37.445 -23.789 -12.920  0.00  0.00    +0.050 C 
ATOM     14  C   UNL     1      36.691 -24.607 -11.914  0.00  0.00    +0.007 C 
ATOM     15  C   UNL     1      37.821 -23.725 -11.469  0.00  0.00    +0.007 C 
BRANCH  13  18
ATOM     16  O   UNL     1      39.016 -23.885 -14.666  0.00  0.00    -0.275 OA
ATOM     17  N   UNL     1      38.411 -25.865 -13.647  0.00  0.00    -0.329 N 
ATOM     18  C   UNL     1      38.366 -24.504 -13.830  0.00  0.00    +0.216 C 
ATOM     19  H   UNL     1      38.998 -26.420 -14.211  0.00  0.00    +0.145 HD
ATOM     20  H   UNL     1      37.855 -26.286 -12.951  0.00  0.00    +0.145 HD
ENDBRANCH  13  18
ENDBRANCH  12  13
ENDBRANCH   4  12
ENDBRANCH   1   5
BRANCH   1  21
ATOM     21  C   UNL     1      33.565 -21.330 -19.019  0.00  0.00    +0.122 C 
ATOM     22  C   UNL     1      32.730 -20.446 -19.702  0.00  0.00    +0.020 C 
ATOM     23  C   UNL     1      34.950 -21.210 -19.131  0.00  0.00    +0.020 C 
ATOM     24  C   UNL     1      34.666 -19.321 -20.610  0.00  0.00    +0.010 C 
ATOM     25  C   UNL     1      33.280 -19.441 -20.498  0.00  0.00    -0.000 C 
ATOM     26  C   UNL     1      35.501 -20.205 -19.926  0.00  0.00    -0.000 C 
BRANCH  24  27
ATOM     27  C   UNL     1      35.254 -18.247 -21.461  0.00  0.00    +0.194 C 
ATOM     28  C   UNL     1      36.798 -18.313 -21.563  0.00  0.00    +0.043 C 
BRANCH  27  32
ATOM     29  F   UNL     1      33.297 -18.324 -22.858  0.00  0.00    -0.167 F 
ATOM     30  F   UNL     1      35.097 -19.292 -23.607  0.00  0.00    -0.167 F 
ATOM     31  F   UNL     1      34.975 -17.114 -23.542  0.00  0.00    -0.167 F 
ATOM     32  C   UNL     1      34.647 -18.246 -22.879  0.00  0.00    +0.423 C 
ENDBRANCH  27  32
BRANCH  27  33
ATOM     33  O   UNL     1      34.973 -16.935 -20.918  0.00  0.00    -0.375 OA
ATOM     34  H   UNL     1      34.474 -17.027 -20.092  0.00  0.00    +0.211 HD
ENDBRANCH  27  33
ENDBRANCH  24  27
ENDBRANCH   1  21
TORSDOF 8
ENDMDL
MODEL 2
REMARK VINA RESULT:     -11.7      1.274      1.900
REMARK  Name = 24856362
REMARK  8 active torsions:
REMARK  status: ('A' for Active; 'I' for Inactive)
REMARK    1  A    between atoms: S_1  and  N_5
REMARK    2  A    between atoms: S_1  and  C_21
REMARK    3  A    between atoms: N_4  and  C_12
REMARK    4  A    between atoms: C_12  and  C_13
REMARK    5  A    between atoms: C_13  and  C_18
REMARK    6  A    between atoms: C_24  and  C_27
REMARK    7  A    between atoms: C_27  and  C_32
REMARK    8  A    between atoms: C_27  and  O_33
REMARK                            x       y       z     vdW  Elec       q    Type
REMARK                         _______ _______ _______ _____ _____    ______ ____
ROOT
ATOM      1  S   UNL     1      32.865 -22.679 -17.896  0.00  0.00    +0.063 S 
ATOM      2  O   UNL     1      31.518 -22.286 -17.552  0.00  0.00    -0.153 OA
ATOM      3  O   UNL     1      33.141 -23.952 -18.520  0.00  0.00    -0.153 OA
ENDROOT
BRANCH   1   5
ATOM      4  N   UNL     1      35.847 -22.957 -14.451  0.00  0.00    +0.389 N 
ATOM      5  N   UNL     1      33.860 -22.521 -16.503  0.00  0.00    -0.161 NA
ATOM      6  C   UNL     1      34.413 -22.967 -14.128  0.00  0.00    -0.059 C 
ATOM      7  C   UNL     1      36.106 -22.051 -15.576  0.00  0.00    -0.058 C 
ATOM      8  C   UNL     1      33.568 -23.424 -15.333  0.00  0.00    +0.059 C 
ATOM      9  C   UNL     1      35.325 -22.492 -16.808  0.00  0.00    +0.073 C 
ATOM     10  C   UNL     1      32.090 -23.384 -14.949  0.00  0.00    +0.017 C 
ATOM     11  H   UNL     1      36.125 -23.899 -14.722  0.00  0.00    -0.080 HD
BRANCH   4  12
ATOM     12  C   UNL     1      36.634 -22.564 -13.283  0.00  0.00    -0.068 C 
BRANCH  12  13
ATOM     13  C   UNL     1      37.041 -23.755 -12.477  0.00  0.00    +0.050 C 
ATOM     14  C   UNL     1      38.477 -24.176 -12.582  0.00  0.00    +0.007 C 
ATOM     15  C   UNL     1      37.406 -24.991 -13.246  0.00  0.00    +0.007 C 
BRANCH  13  18
ATOM     16  O   UNL     1      35.896 -25.029 -10.868  0.00  0.00    -0.275 OA
ATOM     17  N   UNL     1      36.332 -22.815 -10.383  0.00  0.00    -0.329 N 
ATOM     18  C   UNL     1      36.368 -23.939 -11.173  0.00  0.00    +0.216 C 
ATOM     19  H   UNL     1      35.902 -22.848  -9.498  0.00  0.00    +0.145 HD
ATOM     20  H   UNL     1      36.736 -21.976 -10.704  0.00  0.00    +0.145 HD
ENDBRANCH  13  18
ENDBRANCH  12  13
ENDBRANCH   4  12
ENDBRANCH   1   5
BRANCH   1  21
ATOM     21  C   UNL     1      33.560 -21.411 -18.908  0.00  0.00    +0.122 C 
ATOM     22  C   UNL     1      34.944 -21.307 -19.041  0.00  0.00    +0.020 C 
ATOM     23  C   UNL     1      32.725 -20.517 -19.577  0.00  0.00    +0.020 C 
ATOM     24  C   UNL     1      34.659 -19.410 -20.511  0.00  0.00    +0.010 C 
ATOM     25  C   UNL     1      35.494 -20.306 -19.842  0.00  0.00    -0.000 C 
ATOM     26  C   UNL     1      33.274 -19.516 -20.379  0.00  0.00    -0.000 C 
BRANCH  24  27
ATOM     27  C   UNL     1      35.247 -18.340 -21.367  0.00  0.00    +0.194 C 
ATOM     28  C   UNL     1      36.794 -18.394 -21.451  0.00  0.00    +0.043 C 
BRANCH  27  32
ATOM     29  F   UNL     1      34.963 -17.242 -23.488  0.00  0.00    -0.167 F 
ATOM     30  F   UNL     1      33.309 -18.458 -22.764  0.00  0.00    -0.167 F 
ATOM     31  F   UNL     1      35.129 -19.414 -23.494  0.00  0.00    -0.167 F 
ATOM     32  C   UNL     1      34.657 -18.360 -22.791  0.00  0.00    +0.423 C 
ENDBRANCH  27  32
BRANCH  27  33
ATOM     33  O   UNL     1      34.950 -17.025 -20.841  0.00  0.00    -0.375 OA
ATOM     34  H   UNL     1      35.776 -16.536 -20.705  0.00  0.00    +0.211 HD
ENDBRANCH  27  33
ENDBRANCH  24  27
ENDBRANCH   1  21
TORSDOF 8
ENDMDL
MODEL 3
REMARK VINA RESULT:      -9.4     12.241     15.907
REMARK  Name = 24856362
REMARK  8 active torsions:
REMARK  status: ('A' for Active; 'I' for Inactive)
REMARK    1  A    between atoms: S_1  and  N_5
REMARK    2  A    between atoms: S_1  and  C_21
REMARK    3  A    between atoms: N_4  and  C_12
REMARK    4  A    between atoms: C_12  and  C_13
REMARK    5  A    between atoms: C_13  and  C_18
REMARK    6  A    between atoms: C_24  and  C_27
REMARK    7  A    between atoms: C_27  and  C_32
REMARK    8  A    between atoms: C_27  and  O_33
REMARK                            x       y       z     vdW  Elec       q    Type
REMARK                         _______ _______ _______ _____ _____    ______ ____
ROOT
ATOM      1  S   UNL     1      31.308  -5.398 -20.961  0.00  0.00    +0.063 S 
ATOM      2  O   UNL     1      32.228  -5.185 -19.867  0.00  0.00    -0.153 OA
ATOM      3  O   UNL     1      30.015  -4.754 -20.992  0.00  0.00    -0.153 OA
ENDROOT
BRANCH   1   5
ATOM      4  N   UNL     1      31.513  -9.894 -21.723  0.00  0.00    +0.389 N 
ATOM      5  N   UNL     1      31.086  -7.089 -21.177  0.00  0.00    -0.161 NA
ATOM      6  C   UNL     1      30.612  -9.090 -22.561  0.00  0.00    -0.059 C 
ATOM      7  C   UNL     1      31.519  -9.381 -20.348  0.00  0.00    -0.058 C 
ATOM      8  C   UNL     1      31.041  -7.611 -22.590  0.00  0.00    +0.059 C 
ATOM      9  C   UNL     1      31.982  -7.929 -20.322  0.00  0.00    +0.073 C 
ATOM     10  C   UNL     1      30.053  -6.822 -23.447  0.00  0.00    +0.017 C 
ATOM     11  H   UNL     1      32.458  -9.822 -22.100  0.00  0.00    -0.080 HD
BRANCH   4  12
ATOM     12  C   UNL     1      31.117 -11.302 -21.745  0.00  0.00    -0.068 C 
BRANCH  12  13
ATOM     13  C   UNL     1      32.268 -12.184 -22.104  0.00  0.00    +0.050 C 
ATOM     14  C   UNL     1      33.244 -11.639 -23.104  0.00  0.00    +0.007 C 
ATOM     15  C   UNL     1      32.288 -12.724 -23.504  0.00  0.00    +0.007 C 
BRANCH  13  18
ATOM     16  O   UNL     1      34.000 -13.303 -20.977  0.00  0.00    -0.275 OA
ATOM     17  N   UNL     1      31.856 -13.526 -20.154  0.00  0.00    -0.329 N 
ATOM     18  C   UNL     1      32.801 -13.053 -21.032  0.00  0.00    +0.216 C 
ATOM     19  H   UNL     1      32.124 -14.112 -19.410  0.00  0.00    +0.145 HD
ATOM     20  H   UNL     1      30.910 -13.277 -20.269  0.00  0.00    +0.145 HD
ENDBRANCH  13  18
ENDBRANCH  12  13
ENDBRANCH   4  12
ENDBRANCH   1   5
BRANCH   1  21
ATOM     21  C   UNL     1      32.149  -5.010 -22.463  0.00  0.00    +0.122 C 
ATOM     22  C   UNL     1      31.610  -4.067 -23.339  0.00  0.00    +0.020 C 
ATOM     23  C   UNL     1      33.351  -5.643 -22.773  0.00  0.00    +0.020 C 
ATOM     24  C   UNL     1      33.478  -4.391 -24.836  0.00  0.00    +0.010 C 
ATOM     25  C   UNL     1      32.275  -3.758 -24.526  0.00  0.00    -0.000 C 
ATOM     26  C   UNL     1      34.017  -5.334 -23.959  0.00  0.00    -0.000 C 
BRANCH  24  27
ATOM     27  C   UNL     1      34.188  -4.061 -26.105  0.00  0.00    +0.194 C 
ATOM     28  C   UNL     1      35.712  -4.339 -26.053  0.00  0.00    +0.043 C 
BRANCH  27  32
ATOM     29  F   UNL     1      32.876  -5.897 -26.938  0.00  0.00    -0.167 F 
ATOM     30  F   UNL     1      34.530  -5.210 -28.175  0.00  0.00    -0.167 F 
ATOM     31  F   UNL     1      32.727  -3.995 -27.990  0.00  0.00    -0.167 F 
ATOM     32  C   UNL     1      33.575  -4.801 -27.311  0.00  0.00    +0.423 C 
ENDBRANCH  27  32
BRANCH  27  33
ATOM     33  O   UNL     1      34.078  -2.652 -26.417  0.00  0.00    -0.375 OA
ATOM     34  H   UNL     1      33.157  -2.441 -26.639  0.00  0.00    +0.211 HD
ENDBRANCH  27  33
ENDBRANCH  24  27
ENDBRANCH   1  21
TORSDOF 8
ENDMDL
