MODEL 1
REMARK VINA RESULT:     -13.0      0.000      0.000
REMARK  Name = 11282283
REMARK  4 active torsions:
REMARK  status: ('A' for Active; 'I' for Inactive)
REMARK    1  A    between atoms: N_3  and  C_21
REMARK    2  A    between atoms: C_21  and  N_22
REMARK    3  A    between atoms: N_22  and  C_24
REMARK    4  A    between atoms: C_24  and  C_27
REMARK                            x       y       z     vdW  Elec       q    Type
REMARK                         _______ _______ _______ _____ _____    ______ ____
ROOT
ATOM      1  O   UNL     1      33.331  -9.441 -23.052  0.00  0.00    -0.466 OA
ATOM      2  N   UNL     1      32.505 -12.032 -21.928  0.00  0.00    -0.290 N 
ATOM      3  N   UNL     1      33.612 -14.559 -22.751  0.00  0.00    -0.288 N 
ATOM      4  N   UNL     1      31.009 -10.748 -20.578  0.00  0.00    -0.230 NA
ATOM      5  N   UNL     1      30.895  -8.313 -20.739  0.00  0.00    -0.245 NA
ATOM      6  C   UNL     1      32.589 -13.156 -20.990  0.00  0.00    +0.113 C 
ATOM      7  C   UNL     1      32.999 -12.225 -23.296  0.00  0.00    +0.113 C 
ATOM      8  C   UNL     1      33.728 -14.099 -21.376  0.00  0.00    +0.114 C 
ATOM      9  C   UNL     1      32.919 -13.696 -23.697  0.00  0.00    +0.114 C 
ATOM     10  C   UNL     1      31.966 -10.810 -21.530  0.00  0.00    +0.152 C 
ATOM     11  C   UNL     1      32.391  -9.623 -22.089  0.00  0.00    +0.258 C 
ATOM     12  C   UNL     1      31.856  -8.405 -21.692  0.00  0.00    +0.106 C 
ATOM     13  C   UNL     1      32.511  -7.409 -22.461  0.00  0.00    +0.051 C 
ATOM     14  C   UNL     1      33.406  -8.097 -23.279  0.00  0.00    +0.141 C 
ATOM     15  C   UNL     1      30.539  -9.521 -20.246  0.00  0.00    +0.251 C 
ATOM     16  C   UNL     1      32.450  -6.009 -22.560  0.00  0.00    +0.004 C 
ATOM     17  C   UNL     1      34.253  -7.479 -24.198  0.00  0.00    +0.037 C 
ATOM     18  C   UNL     1      33.291  -5.361 -23.475  0.00  0.00    +0.000 C 
ATOM     19  C   UNL     1      34.175  -6.085 -24.279  0.00  0.00    +0.003 C 
ENDROOT
BRANCH   3  21
ATOM     20  S   UNL     1      33.811 -16.384 -24.653  0.00  0.00    -0.019 S 
ATOM     21  C   UNL     1      34.133 -15.750 -23.139  0.00  0.00    +0.135 C 
BRANCH  21  22
ATOM     22  N   UNL     1      34.934 -16.416 -22.246  0.00  0.00    -0.312 N 
ATOM     23  H   UNL     1      35.077 -15.990 -21.370  0.00  0.00    +0.149 HD
BRANCH  22  24
ATOM     24  C   UNL     1      35.588 -17.690 -22.472  0.00  0.00    +0.116 C 
BRANCH  24  27
ATOM     25  O   UNL     1      32.291 -20.462 -20.060  0.00  0.00    -0.435 OA
ATOM     26  O   UNL     1      33.986 -21.493 -18.691  0.00  0.00    -0.435 OA
ATOM     27  C   UNL     1      35.193 -18.714 -21.449  0.00  0.00    +0.001 C 
ATOM     28  C   UNL     1      33.852 -19.056 -21.303  0.00  0.00    +0.038 C 
ATOM     29  C   UNL     1      36.185 -19.309 -20.656  0.00  0.00    +0.001 C 
ATOM     30  C   UNL     1      33.538 -20.002 -20.349  0.00  0.00    +0.176 C 
ATOM     31  C   UNL     1      34.506 -20.591 -19.568  0.00  0.00    +0.176 C 
ATOM     32  C   UNL     1      35.841 -20.265 -19.698  0.00  0.00    +0.040 C 
ATOM     33  C   UNL     1      32.582 -21.407 -19.010  0.00  0.00    +0.429 C 
ENDBRANCH  24  27
ENDBRANCH  22  24
ENDBRANCH  21  22
ENDBRANCH   3  21
TORSDOF 4
ENDMDL
MODEL 2
REMARK VINA RESULT:     -12.1      3.259     11.166
REMARK  Name = 11282283
REMARK  4 active torsions:
REMARK  status: ('A' for Active; 'I' for Inactive)
REMARK    1  A    between atoms: N_3  and  C_21
REMARK    2  A    between atoms: C_21  and  N_22
REMARK    3  A    between atoms: N_22  and  C_24
REMARK    4  A    between atoms: C_24  and  C_27
REMARK                            x       y       z     vdW  Elec       q    Type
REMARK                         _______ _______ _______ _____ _____    ______ ____
ROOT
ATOM      1  O   UNL     1      33.607 -14.415 -22.048  0.00  0.00    -0.466 OA
ATOM      2  N   UNL     1      32.420 -11.940 -23.108  0.00  0.00    -0.290 N 
ATOM      3  N   UNL     1      31.672  -9.695 -21.468  0.00  0.00    -0.288 N 
ATOM      4  N   UNL     1      32.597 -13.001 -25.242  0.00  0.00    -0.230 NA
ATOM      5  N   UNL     1      33.522 -15.247 -25.491  0.00  0.00    -0.245 NA
ATOM      6  C   UNL     1      32.460 -10.574 -23.641  0.00  0.00    +0.113 C 
ATOM      7  C   UNL     1      31.991 -12.135 -21.719  0.00  0.00    +0.113 C 
ATOM      8  C   UNL     1      32.671  -9.561 -22.518  0.00  0.00    +0.114 C 
ATOM      9  C   UNL     1      31.066 -11.004 -21.275  0.00  0.00    +0.114 C 
ATOM     10  C   UNL     1      32.779 -13.027 -23.903  0.00  0.00    +0.152 C 
ATOM     11  C   UNL     1      33.334 -14.164 -23.355  0.00  0.00    +0.258 C 
ATOM     12  C   UNL     1      33.693 -15.246 -24.146  0.00  0.00    +0.106 C 
ATOM     13  C   UNL     1      34.223 -16.227 -23.269  0.00  0.00    +0.051 C 
ATOM     14  C   UNL     1      34.148 -15.668 -21.993  0.00  0.00    +0.141 C 
ATOM     15  C   UNL     1      32.974 -14.097 -25.943  0.00  0.00    +0.251 C 
ATOM     16  C   UNL     1      34.756 -17.520 -23.404  0.00  0.00    +0.004 C 
ATOM     17  C   UNL     1      34.571 -16.315 -20.833  0.00  0.00    +0.037 C 
ATOM     18  C   UNL     1      35.189 -18.194 -22.254  0.00  0.00    +0.000 C 
ATOM     19  C   UNL     1      35.097 -17.600 -20.993  0.00  0.00    +0.003 C 
ENDROOT
BRANCH   3  21
ATOM     20  S   UNL     1      31.092  -8.805 -19.047  0.00  0.00    -0.019 S 
ATOM     21  C   UNL     1      31.319  -8.636 -20.697  0.00  0.00    +0.135 C 
BRANCH  21  22
ATOM     22  N   UNL     1      31.158  -7.422 -21.315  0.00  0.00    -0.312 N 
ATOM     23  H   UNL     1      30.513  -7.382 -22.058  0.00  0.00    +0.149 HD
BRANCH  22  24
ATOM     24  C   UNL     1      31.848  -6.194 -20.975  0.00  0.00    +0.116 C 
BRANCH  24  27
ATOM     25  O   UNL     1      31.595  -2.623 -24.376  0.00  0.00    -0.435 OA
ATOM     26  O   UNL     1      33.571  -3.405 -25.512  0.00  0.00    -0.435 OA
ATOM     27  C   UNL     1      32.338  -5.469 -22.195  0.00  0.00    +0.001 C 
ATOM     28  C   UNL     1      31.644  -4.354 -22.655  0.00  0.00    +0.038 C 
ATOM     29  C   UNL     1      33.489  -5.929 -22.851  0.00  0.00    +0.001 C 
ATOM     30  C   UNL     1      32.133  -3.721 -23.779  0.00  0.00    +0.176 C 
ATOM     31  C   UNL     1      33.262  -4.167 -24.428  0.00  0.00    +0.176 C 
ATOM     32  C   UNL     1      33.963  -5.272 -23.987  0.00  0.00    +0.040 C 
ATOM     33  C   UNL     1      32.512  -2.428 -25.473  0.00  0.00    +0.429 C 
ENDBRANCH  24  27
ENDBRANCH  22  24
ENDBRANCH  21  22
ENDBRANCH   3  21
TORSDOF 4
ENDMDL
MODEL 3
REMARK VINA RESULT:     -11.9      5.278     12.472
REMARK  Name = 11282283
REMARK  4 active torsions:
REMARK  status: ('A' for Active; 'I' for Inactive)
REMARK    1  A    between atoms: N_3  and  C_21
REMARK    2  A    between atoms: C_21  and  N_22
REMARK    3  A    between atoms: N_22  and  C_24
REMARK    4  A    between atoms: C_24  and  C_27
REMARK                            x       y       z     vdW  Elec       q    Type
REMARK                         _______ _______ _______ _____ _____    ______ ____
ROOT
ATOM      1  O   UNL     1      32.541 -22.525 -16.009  0.00  0.00    -0.466 OA
ATOM      2  N   UNL     1      35.081 -21.974 -17.388  0.00  0.00    -0.290 N 
ATOM      3  N   UNL     1      35.309 -20.278 -19.702  0.00  0.00    -0.288 N 
ATOM      4  N   UNL     1      36.058 -23.405 -15.742  0.00  0.00    -0.230 NA
ATOM      5  N   UNL     1      34.719 -24.461 -13.994  0.00  0.00    -0.245 NA
ATOM      6  C   UNL     1      36.312 -21.220 -17.647  0.00  0.00    +0.113 C 
ATOM      7  C   UNL     1      33.969 -21.844 -18.336  0.00  0.00    +0.113 C 
ATOM      8  C   UNL     1      36.014 -19.967 -18.468  0.00  0.00    +0.114 C 
ATOM      9  C   UNL     1      34.484 -21.476 -19.726  0.00  0.00    +0.114 C 
ATOM     10  C   UNL     1      34.972 -22.798 -16.269  0.00  0.00    +0.152 C 
ATOM     11  C   UNL     1      33.755 -23.022 -15.659  0.00  0.00    +0.258 C 
ATOM     12  C   UNL     1      33.646 -23.840 -14.544  0.00  0.00    +0.106 C 
ATOM     13  C   UNL     1      32.274 -23.847 -14.183  0.00  0.00    +0.051 C 
ATOM     14  C   UNL     1      31.639 -23.024 -15.113  0.00  0.00    +0.141 C 
ATOM     15  C   UNL     1      35.867 -24.188 -14.653  0.00  0.00    +0.251 C 
ATOM     16  C   UNL     1      31.497 -24.451 -13.181  0.00  0.00    +0.004 C 
ATOM     17  C   UNL     1      30.270 -22.760 -15.112  0.00  0.00    +0.037 C 
ATOM     18  C   UNL     1      30.117 -24.204 -13.156  0.00  0.00    +0.000 C 
ATOM     19  C   UNL     1      29.518 -23.373 -14.106  0.00  0.00    +0.003 C 
ENDROOT
BRANCH   3  21
ATOM     20  S   UNL     1      36.833 -18.643 -21.116  0.00  0.00    -0.019 S 
ATOM     21  C   UNL     1      35.419 -19.479 -20.793  0.00  0.00    +0.135 C 
BRANCH  21  22
ATOM     22  N   UNL     1      34.331 -19.381 -21.624  0.00  0.00    -0.312 N 
ATOM     23  H   UNL     1      33.450 -19.576 -21.231  0.00  0.00    +0.149 HD
BRANCH  22  24
ATOM     24  C   UNL     1      34.360 -19.016 -23.027  0.00  0.00    +0.116 C 
BRANCH  24  27
ATOM     25  O   UNL     1      32.976 -15.084 -25.673  0.00  0.00    -0.435 OA
ATOM     26  O   UNL     1      33.539 -13.550 -23.903  0.00  0.00    -0.435 OA
ATOM     27  C   UNL     1      34.152 -17.543 -23.228  0.00  0.00    +0.001 C 
ATOM     28  C   UNL     1      33.637 -17.083 -24.436  0.00  0.00    +0.038 C 
ATOM     29  C   UNL     1      34.481 -16.657 -22.194  0.00  0.00    +0.001 C 
ATOM     30  C   UNL     1      33.463 -15.721 -24.573  0.00  0.00    +0.176 C 
ATOM     31  C   UNL     1      33.784 -14.845 -23.562  0.00  0.00    +0.176 C 
ATOM     32  C   UNL     1      34.297 -15.283 -22.358  0.00  0.00    +0.040 C 
ATOM     33  C   UNL     1      33.026 -13.709 -25.241  0.00  0.00    +0.429 C 
ENDBRANCH  24  27
ENDBRANCH  22  24
ENDBRANCH  21  22
ENDBRANCH   3  21
TORSDOF 4
ENDMDL
MODEL 4
REMARK VINA RESULT:     -11.6      3.297      5.432
REMARK  Name = 11282283
REMARK  4 active torsions:
REMARK  status: ('A' for Active; 'I' for Inactive)
REMARK    1  A    between atoms: N_3  and  C_21
REMARK    2  A    between atoms: C_21  and  N_22
REMARK    3  A    between atoms: N_22  and  C_24
REMARK    4  A    between atoms: C_24  and  C_27
REMARK                            x       y       z     vdW  Elec       q    Type
REMARK                         _______ _______ _______ _____ _____    ______ ____
ROOT
ATOM      1  O   UNL     1      32.860 -14.013 -21.684  0.00  0.00    -0.466 OA
ATOM      2  N   UNL     1      33.999 -16.486 -22.800  0.00  0.00    -0.290 N 
ATOM      3  N   UNL     1      34.666 -18.796 -21.217  0.00  0.00    -0.288 N 
ATOM      4  N   UNL     1      33.879 -15.360 -24.904  0.00  0.00    -0.230 NA
ATOM      5  N   UNL     1      33.014 -13.084 -25.099  0.00  0.00    -0.245 NA
ATOM      6  C   UNL     1      33.932 -17.834 -23.374  0.00  0.00    +0.113 C 
ATOM      7  C   UNL     1      34.413 -16.342 -21.400  0.00  0.00    +0.113 C 
ATOM      8  C   UNL     1      33.679 -18.874 -22.283  0.00  0.00    +0.114 C 
ATOM      9  C   UNL     1      35.302 -17.510 -20.977  0.00  0.00    +0.114 C 
ATOM     10  C   UNL     1      33.679 -15.368 -23.567  0.00  0.00    +0.152 C 
ATOM     11  C   UNL     1      33.145 -14.233 -22.993  0.00  0.00    +0.258 C 
ATOM     12  C   UNL     1      32.824 -13.120 -23.757  0.00  0.00    +0.106 C 
ATOM     13  C   UNL     1      32.307 -12.151 -22.858  0.00  0.00    +0.051 C 
ATOM     14  C   UNL     1      32.350 -12.749 -21.599  0.00  0.00    +0.141 C 
ATOM     15  C   UNL     1      33.539 -14.234 -25.578  0.00  0.00    +0.251 C 
ATOM     16  C   UNL     1      31.809 -10.842 -22.963  0.00  0.00    +0.004 C 
ATOM     17  C   UNL     1      31.927 -12.125 -20.427  0.00  0.00    +0.037 C 
ATOM     18  C   UNL     1      31.377 -10.190 -21.800  0.00  0.00    +0.000 C 
ATOM     19  C   UNL     1      31.436 -10.823 -20.556  0.00  0.00    +0.003 C 
ENDROOT
BRANCH   3  21
ATOM     20  S   UNL     1      36.462 -20.009 -19.704  0.00  0.00    -0.019 S 
ATOM     21  C   UNL     1      34.981 -19.886 -20.472  0.00  0.00    +0.135 C 
BRANCH  21  22
ATOM     22  N   UNL     1      34.043 -20.881 -20.370  0.00  0.00    -0.312 N 
ATOM     23  H   UNL     1      34.211 -21.708 -20.877  0.00  0.00    +0.149 HD
BRANCH  22  24
ATOM     24  C   UNL     1      32.827 -20.828 -19.582  0.00  0.00    +0.116 C 
BRANCH  24  27
ATOM     25  O   UNL     1      35.412 -23.050 -16.010  0.00  0.00    -0.435 OA
ATOM     26  O   UNL     1      33.422 -23.731 -14.834  0.00  0.00    -0.435 OA
ATOM     27  C   UNL     1      32.950 -21.608 -18.305  0.00  0.00    +0.001 C 
ATOM     28  C   UNL     1      34.213 -21.927 -17.817  0.00  0.00    +0.038 C 
ATOM     29  C   UNL     1      31.788 -22.001 -17.626  0.00  0.00    +0.001 C 
ATOM     30  C   UNL     1      34.276 -22.645 -16.640  0.00  0.00    +0.176 C 
ATOM     31  C   UNL     1      33.139 -23.034 -15.968  0.00  0.00    +0.176 C 
ATOM     32  C   UNL     1      31.878 -22.726 -16.437  0.00  0.00    +0.040 C 
ATOM     33  C   UNL     1      34.863 -23.736 -14.866  0.00  0.00    +0.429 C 
ENDBRANCH  24  27
ENDBRANCH  22  24
ENDBRANCH  21  22
ENDBRANCH   3  21
TORSDOF 4
ENDMDL
MODEL 5
REMARK VINA RESULT:     -11.5      6.087     13.353
REMARK  Name = 11282283
REMARK  4 active torsions:
REMARK  status: ('A' for Active; 'I' for Inactive)
REMARK    1  A    between atoms: N_3  and  C_21
REMARK    2  A    between atoms: C_21  and  N_22
REMARK    3  A    between atoms: N_22  and  C_24
REMARK    4  A    between atoms: C_24  and  C_27
REMARK                            x       y       z     vdW  Elec       q    Type
REMARK                         _______ _______ _______ _____ _____    ______ ____
ROOT
ATOM      1  O   UNL     1      37.127 -23.801 -15.440  0.00  0.00    -0.466 OA
ATOM      2  N   UNL     1      34.562 -22.545 -16.145  0.00  0.00    -0.290 N 
ATOM      3  N   UNL     1      34.053 -21.254 -18.667  0.00  0.00    -0.288 N 
ATOM      4  N   UNL     1      33.852 -23.230 -13.968  0.00  0.00    -0.230 NA
ATOM      5  N   UNL     1      35.334 -24.442 -12.452  0.00  0.00    -0.245 NA
ATOM      6  C   UNL     1      33.212 -22.521 -16.717  0.00  0.00    +0.113 C 
ATOM      7  C   UNL     1      35.648 -21.897 -16.889  0.00  0.00    +0.113 C 
ATOM      8  C   UNL     1      33.272 -22.404 -18.239  0.00  0.00    +0.114 C 
ATOM      9  C   UNL     1      35.102 -20.780 -17.777  0.00  0.00    +0.114 C 
ATOM     10  C   UNL     1      34.807 -23.168 -14.923  0.00  0.00    +0.152 C 
ATOM     11  C   UNL     1      36.029 -23.743 -14.643  0.00  0.00    +0.258 C 
ATOM     12  C   UNL     1      36.274 -24.364 -13.427  0.00  0.00    +0.106 C 
ATOM     13  C   UNL     1      37.610 -24.837 -13.479  0.00  0.00    +0.051 C 
ATOM     14  C   UNL     1      38.090 -24.466 -14.735  0.00  0.00    +0.141 C 
ATOM     15  C   UNL     1      34.170 -23.854 -12.809  0.00  0.00    +0.251 C 
ATOM     16  C   UNL     1      38.469 -25.533 -12.611  0.00  0.00    +0.004 C 
ATOM     17  C   UNL     1      39.378 -24.745 -15.190  0.00  0.00    +0.037 C 
ATOM     18  C   UNL     1      39.770 -25.826 -13.043  0.00  0.00    +0.000 C 
ATOM     19  C   UNL     1      40.214 -25.438 -14.309  0.00  0.00    +0.003 C 
ENDROOT
BRANCH   3  21
ATOM     20  S   UNL     1      32.260 -20.207 -20.304  0.00  0.00    -0.019 S 
ATOM     21  C   UNL     1      33.812 -20.645 -19.856  0.00  0.00    +0.135 C 
BRANCH  21  22
ATOM     22  N   UNL     1      34.884 -20.399 -20.675  0.00  0.00    -0.312 N 
ATOM     23  H   UNL     1      35.263 -21.168 -21.158  0.00  0.00    +0.149 HD
BRANCH  22  24
ATOM     24  C   UNL     1      35.510 -19.110 -20.897  0.00  0.00    +0.116 C 
BRANCH  24  27
ATOM     25  O   UNL     1      34.204 -14.990 -23.285  0.00  0.00    -0.435 OA
ATOM     26  O   UNL     1      33.174 -16.219 -25.082  0.00  0.00    -0.435 OA
ATOM     27  C   UNL     1      34.874 -18.366 -22.036  0.00  0.00    +0.001 C 
ATOM     28  C   UNL     1      34.888 -16.974 -22.038  0.00  0.00    +0.038 C 
ATOM     29  C   UNL     1      34.277 -19.088 -23.078  0.00  0.00    +0.001 C 
ATOM     30  C   UNL     1      34.292 -16.336 -23.106  0.00  0.00    +0.176 C 
ATOM     31  C   UNL     1      33.704 -17.038 -24.133  0.00  0.00    +0.176 C 
ATOM     32  C   UNL     1      33.680 -18.418 -24.148  0.00  0.00    +0.040 C 
ATOM     33  C   UNL     1      33.496 -14.923 -24.539  0.00  0.00    +0.429 C 
ENDBRANCH  24  27
ENDBRANCH  22  24
ENDBRANCH  21  22
ENDBRANCH   3  21
TORSDOF 4
ENDMDL
MODEL 6
REMARK VINA RESULT:     -11.3      2.513      4.517
REMARK  Name = 11282283
REMARK  4 active torsions:
REMARK  status: ('A' for Active; 'I' for Inactive)
REMARK    1  A    between atoms: N_3  and  C_21
REMARK    2  A    between atoms: C_21  and  N_22
REMARK    3  A    between atoms: N_22  and  C_24
REMARK    4  A    between atoms: C_24  and  C_27
REMARK                            x       y       z     vdW  Elec       q    Type
REMARK                         _______ _______ _______ _____ _____    ______ ____
ROOT
ATOM      1  O   UNL     1      33.055  -6.345 -24.248  0.00  0.00    -0.466 OA
ATOM      2  N   UNL     1      31.406  -7.916 -22.386  0.00  0.00    -0.290 N 
ATOM      3  N   UNL     1      31.747 -10.740 -21.938  0.00  0.00    -0.288 N 
ATOM      4  N   UNL     1      30.281  -5.854 -21.951  0.00  0.00    -0.230 NA
ATOM      5  N   UNL     1      30.923  -3.776 -23.062  0.00  0.00    -0.245 NA
ATOM      6  C   UNL     1      31.079  -8.516 -21.088  0.00  0.00    +0.113 C 
ATOM      7  C   UNL     1      31.912  -8.789 -23.451  0.00  0.00    +0.113 C 
ATOM      8  C   UNL     1      31.902  -9.781 -20.854  0.00  0.00    +0.114 C 
ATOM      9  C   UNL     1      31.416 -10.221 -23.257  0.00  0.00    +0.114 C 
ATOM     10  C   UNL     1      31.238  -6.550 -22.603  0.00  0.00    +0.152 C 
ATOM     11  C   UNL     1      32.040  -5.860 -23.488  0.00  0.00    +0.258 C 
ATOM     12  C   UNL     1      31.874  -4.500 -23.703  0.00  0.00    +0.106 C 
ATOM     13  C   UNL     1      32.852  -4.122 -24.659  0.00  0.00    +0.051 C 
ATOM     14  C   UNL     1      33.551  -5.291 -24.961  0.00  0.00    +0.141 C 
ATOM     15  C   UNL     1      30.184  -4.529 -22.217  0.00  0.00    +0.251 C 
ATOM     16  C   UNL     1      33.227  -2.931 -25.303  0.00  0.00    +0.004 C 
ATOM     17  C   UNL     1      34.607  -5.354 -25.868  0.00  0.00    +0.037 C 
ATOM     18  C   UNL     1      34.286  -2.965 -26.221  0.00  0.00    +0.000 C 
ATOM     19  C   UNL     1      34.962  -4.157 -26.496  0.00  0.00    +0.003 C 
ENDROOT
BRANCH   3  21
ATOM     20  S   UNL     1      31.886 -12.708 -20.180  0.00  0.00    -0.019 S 
ATOM     21  C   UNL     1      31.907 -12.070 -21.726  0.00  0.00    +0.135 C 
BRANCH  21  22
ATOM     22  N   UNL     1      32.083 -12.874 -22.824  0.00  0.00    -0.312 N 
ATOM     23  H   UNL     1      31.277 -13.287 -23.209  0.00  0.00    +0.149 HD
BRANCH  22  24
ATOM     24  C   UNL     1      33.347 -13.171 -23.470  0.00  0.00    +0.116 C 
BRANCH  24  27
ATOM     25  O   UNL     1      35.032 -16.866 -20.662  0.00  0.00    -0.435 OA
ATOM     26  O   UNL     1      34.969 -18.437 -22.488  0.00  0.00    -0.435 OA
ATOM     27  C   UNL     1      33.775 -14.591 -23.241  0.00  0.00    +0.001 C 
ATOM     28  C   UNL     1      34.203 -14.983 -21.977  0.00  0.00    +0.038 C 
ATOM     29  C   UNL     1      33.735 -15.499 -24.309  0.00  0.00    +0.001 C 
ATOM     30  C   UNL     1      34.585 -16.299 -21.816  0.00  0.00    +0.176 C 
ATOM     31  C   UNL     1      34.549 -17.196 -22.859  0.00  0.00    +0.176 C 
ATOM     32  C   UNL     1      34.128 -16.826 -24.120  0.00  0.00    +0.040 C 
ATOM     33  C   UNL     1      35.272 -18.220 -21.095  0.00  0.00    +0.429 C 
ENDBRANCH  24  27
ENDBRANCH  22  24
ENDBRANCH  21  22
ENDBRANCH   3  21
TORSDOF 4
ENDMDL
MODEL 7
REMARK VINA RESULT:     -11.3      8.637     14.216
REMARK  Name = 11282283
REMARK  4 active torsions:
REMARK  status: ('A' for Active; 'I' for Inactive)
REMARK    1  A    between atoms: N_3  and  C_21
REMARK    2  A    between atoms: C_21  and  N_22
REMARK    3  A    between atoms: N_22  and  C_24
REMARK    4  A    between atoms: C_24  and  C_27
REMARK                            x       y       z     vdW  Elec       q    Type
REMARK                         _______ _______ _______ _____ _____    ______ ____
ROOT
ATOM      1  O   UNL     1      36.571 -24.324 -14.365  0.00  0.00    -0.466 OA
ATOM      2  N   UNL     1      33.845 -23.504 -13.623  0.00  0.00    -0.290 N 
ATOM      3  N   UNL     1      31.822 -22.760 -15.531  0.00  0.00    -0.288 N 
ATOM      4  N   UNL     1      34.566 -23.850 -11.370  0.00  0.00    -0.230 NA
ATOM      5  N   UNL     1      36.830 -24.595 -10.843  0.00  0.00    -0.245 NA
ATOM      6  C   UNL     1      32.424 -23.731 -13.338  0.00  0.00    +0.113 C 
ATOM      7  C   UNL     1      34.211 -22.890 -14.903  0.00  0.00    +0.113 C 
ATOM      8  C   UNL     1      31.632 -23.890 -14.634  0.00  0.00    +0.114 C 
ATOM      9  C   UNL     1      33.071 -22.021 -15.432  0.00  0.00    +0.114 C 
ATOM     10  C   UNL     1      34.824 -23.861 -12.697  0.00  0.00    +0.152 C 
ATOM     11  C   UNL     1      36.087 -24.240 -13.099  0.00  0.00    +0.258 C 
ATOM     12  C   UNL     1      37.062 -24.597 -12.178  0.00  0.00    +0.106 C 
ATOM     13  C   UNL     1      38.221 -24.924 -12.928  0.00  0.00    +0.051 C 
ATOM     14  C   UNL     1      37.867 -24.741 -14.264  0.00  0.00    +0.141 C 
ATOM     15  C   UNL     1      35.570 -24.212 -10.537  0.00  0.00    +0.251 C 
ATOM     16  C   UNL     1      39.527 -25.352 -12.631  0.00  0.00    +0.004 C 
ATOM     17  C   UNL     1      38.733 -24.957 -15.335  0.00  0.00    +0.037 C 
ATOM     18  C   UNL     1      40.418 -25.578 -13.689  0.00  0.00    +0.000 C 
ATOM     19  C   UNL     1      40.026 -25.383 -15.016  0.00  0.00    +0.003 C 
ENDROOT
BRANCH   3  21
ATOM     20  S   UNL     1      29.243 -22.469 -16.033  0.00  0.00    -0.019 S 
ATOM     21  C   UNL     1      30.868 -22.410 -16.429  0.00  0.00    +0.135 C 
BRANCH  21  22
ATOM     22  N   UNL     1      31.281 -22.003 -17.673  0.00  0.00    -0.312 N 
ATOM     23  H   UNL     1      30.711 -21.352 -18.142  0.00  0.00    +0.149 HD
BRANCH  22  24
ATOM     24  C   UNL     1      32.480 -22.442 -18.359  0.00  0.00    +0.116 C 
BRANCH  24  27
ATOM     25  O   UNL     1      36.267 -19.719 -19.977  0.00  0.00    -0.435 OA
ATOM     26  O   UNL     1      34.853 -18.394 -21.409  0.00  0.00    -0.435 OA
ATOM     27  C   UNL     1      33.084 -21.348 -19.191  0.00  0.00    +0.001 C 
ATOM     28  C   UNL     1      34.454 -21.114 -19.124  0.00  0.00    +0.038 C 
ATOM     29  C   UNL     1      32.255 -20.582 -20.022  0.00  0.00    +0.001 C 
ATOM     30  C   UNL     1      34.962 -20.098 -19.908  0.00  0.00    +0.176 C 
ATOM     31  C   UNL     1      34.154 -19.341 -20.726  0.00  0.00    +0.176 C 
ATOM     32  C   UNL     1      32.794 -19.559 -20.805  0.00  0.00    +0.040 C 
ATOM     33  C   UNL     1      36.191 -18.640 -20.931  0.00  0.00    +0.429 C 
ENDBRANCH  24  27
ENDBRANCH  22  24
ENDBRANCH  21  22
ENDBRANCH   3  21
TORSDOF 4
ENDMDL
MODEL 8
REMARK VINA RESULT:     -11.2      3.687      6.435
REMARK  Name = 11282283
REMARK  4 active torsions:
REMARK  status: ('A' for Active; 'I' for Inactive)
REMARK    1  A    between atoms: N_3  and  C_21
REMARK    2  A    between atoms: C_21  and  N_22
REMARK    3  A    between atoms: N_22  and  C_24
REMARK    4  A    between atoms: C_24  and  C_27
REMARK                            x       y       z     vdW  Elec       q    Type
REMARK                         _______ _______ _______ _____ _____    ______ ____
ROOT
ATOM      1  O   UNL     1      32.279  -5.586 -25.599  0.00  0.00    -0.466 OA
ATOM      2  N   UNL     1      31.068  -5.989 -22.948  0.00  0.00    -0.290 N 
ATOM      3  N   UNL     1      31.133  -8.490 -21.524  0.00  0.00    -0.288 N 
ATOM      4  N   UNL     1      30.423  -3.694 -23.111  0.00  0.00    -0.230 NA
ATOM      5  N   UNL     1      30.982  -2.333 -25.060  0.00  0.00    -0.245 NA
ATOM      6  C   UNL     1      31.068  -6.018 -21.482  0.00  0.00    +0.113 C 
ATOM      7  C   UNL     1      31.102  -7.265 -23.672  0.00  0.00    +0.113 C 
ATOM      8  C   UNL     1      31.739  -7.289 -20.966  0.00  0.00    +0.114 C 
ATOM      9  C   UNL     1      30.495  -8.382 -22.827  0.00  0.00    +0.114 C 
ATOM     10  C   UNL     1      31.032  -4.779 -23.638  0.00  0.00    +0.152 C 
ATOM     11  C   UNL     1      31.619  -4.643 -24.879  0.00  0.00    +0.258 C 
ATOM     12  C   UNL     1      31.586  -3.437 -25.566  0.00  0.00    +0.106 C 
ATOM     13  C   UNL     1      32.272  -3.652 -26.788  0.00  0.00    +0.051 C 
ATOM     14  C   UNL     1      32.678  -4.986 -26.759  0.00  0.00    +0.141 C 
ATOM     15  C   UNL     1      30.435  -2.554 -23.844  0.00  0.00    +0.251 C 
ATOM     16  C   UNL     1      32.597  -2.876 -27.913  0.00  0.00    +0.004 C 
ATOM     17  C   UNL     1      33.392  -5.605 -27.785  0.00  0.00    +0.037 C 
ATOM     18  C   UNL     1      33.314  -3.472 -28.960  0.00  0.00    +0.000 C 
ATOM     19  C   UNL     1      33.703  -4.812 -28.894  0.00  0.00    +0.003 C 
ENDROOT
BRANCH   3  21
ATOM     20  S   UNL     1      31.246  -9.708 -19.180  0.00  0.00    -0.019 S 
ATOM     21  C   UNL     1      31.163  -9.667 -20.851  0.00  0.00    +0.135 C 
BRANCH  21  22
ATOM     22  N   UNL     1      31.121 -10.824 -21.588  0.00  0.00    -0.312 N 
ATOM     23  H   UNL     1      30.330 -11.399 -21.472  0.00  0.00    +0.149 HD
BRANCH  22  24
ATOM     24  C   UNL     1      32.132 -11.277 -22.523  0.00  0.00    +0.116 C 
BRANCH  24  27
ATOM     25  O   UNL     1      34.661 -15.440 -23.333  0.00  0.00    -0.435 OA
ATOM     26  O   UNL     1      34.525 -16.108 -21.022  0.00  0.00    -0.435 OA
ATOM     27  C   UNL     1      32.763 -12.567 -22.086  0.00  0.00    +0.001 C 
ATOM     28  C   UNL     1      33.419 -13.360 -23.022  0.00  0.00    +0.038 C 
ATOM     29  C   UNL     1      32.681 -12.949 -20.740  0.00  0.00    +0.001 C 
ATOM     30  C   UNL     1      33.984 -14.536 -22.573  0.00  0.00    +0.176 C 
ATOM     31  C   UNL     1      33.907 -14.918 -21.253  0.00  0.00    +0.176 C 
ATOM     32  C   UNL     1      33.260 -14.145 -20.310  0.00  0.00    +0.040 C 
ATOM     33  C   UNL     1      35.002 -16.432 -22.344  0.00  0.00    +0.429 C 
ENDBRANCH  24  27
ENDBRANCH  22  24
ENDBRANCH  21  22
ENDBRANCH   3  21
TORSDOF 4
ENDMDL
MODEL 9
REMARK VINA RESULT:     -11.2      4.811      7.846
REMARK  Name = 11282283
REMARK  4 active torsions:
REMARK  status: ('A' for Active; 'I' for Inactive)
REMARK    1  A    between atoms: N_3  and  C_21
REMARK    2  A    between atoms: C_21  and  N_22
REMARK    3  A    between atoms: N_22  and  C_24
REMARK    4  A    between atoms: C_24  and  C_27
REMARK                            x       y       z     vdW  Elec       q    Type
REMARK                         _______ _______ _______ _____ _____    ______ ____
ROOT
ATOM      1  O   UNL     1      34.321 -16.486 -21.287  0.00  0.00    -0.466 OA
ATOM      2  N   UNL     1      34.640 -19.409 -21.171  0.00  0.00    -0.290 N 
ATOM      3  N   UNL     1      35.251 -20.857 -18.759  0.00  0.00    -0.288 N 
ATOM      4  N   UNL     1      34.188 -19.355 -23.517  0.00  0.00    -0.230 NA
ATOM      5  N   UNL     1      33.748 -17.262 -24.695  0.00  0.00    -0.245 NA
ATOM      6  C   UNL     1      34.173 -20.787 -20.983  0.00  0.00    +0.113 C 
ATOM      7  C   UNL     1      35.426 -18.786 -20.100  0.00  0.00    +0.113 C 
ATOM      8  C   UNL     1      34.023 -21.109 -19.498  0.00  0.00    +0.114 C 
ATOM      9  C   UNL     1      36.159 -19.846 -19.280  0.00  0.00    +0.114 C 
ATOM     10  C   UNL     1      34.347 -18.709 -22.340  0.00  0.00    +0.152 C 
ATOM     11  C   UNL     1      34.206 -17.337 -22.339  0.00  0.00    +0.258 C 
ATOM     12  C   UNL     1      33.913 -16.640 -23.502  0.00  0.00    +0.106 C 
ATOM     13  C   UNL     1      33.841 -15.270 -23.141  0.00  0.00    +0.051 C 
ATOM     14  C   UNL     1      34.099 -15.229 -21.771  0.00  0.00    +0.141 C 
ATOM     15  C   UNL     1      33.902 -18.602 -24.606  0.00  0.00    +0.251 C 
ATOM     16  C   UNL     1      33.589 -14.062 -23.813  0.00  0.00    +0.004 C 
ATOM     17  C   UNL     1      34.123 -14.056 -21.019  0.00  0.00    +0.037 C 
ATOM     18  C   UNL     1      33.608 -12.867 -23.081  0.00  0.00    +0.000 C 
ATOM     19  C   UNL     1      33.870 -12.867 -21.708  0.00  0.00    +0.003 C 
ENDROOT
BRANCH   3  21
ATOM     20  S   UNL     1      36.968 -21.278 -16.793  0.00  0.00    -0.019 S 
ATOM     21  C   UNL     1      35.539 -21.541 -17.623  0.00  0.00    +0.135 C 
BRANCH  21  22
ATOM     22  N   UNL     1      34.617 -22.454 -17.177  0.00  0.00    -0.312 N 
ATOM     23  H   UNL     1      34.081 -22.918 -17.861  0.00  0.00    +0.149 HD
BRANCH  22  24
ATOM     24  C   UNL     1      34.360 -22.800 -15.793  0.00  0.00    +0.116 C 
BRANCH  24  27
ATOM     25  O   UNL     1      29.604 -22.160 -16.957  0.00  0.00    -0.435 OA
ATOM     26  O   UNL     1      28.868 -22.664 -14.719  0.00  0.00    -0.435 OA
ATOM     27  C   UNL     1      32.894 -22.773 -15.471  0.00  0.00    +0.001 C 
ATOM     28  C   UNL     1      31.978 -22.457 -16.470  0.00  0.00    +0.038 C 
ATOM     29  C   UNL     1      32.473 -23.068 -14.166  0.00  0.00    +0.001 C 
ATOM     30  C   UNL     1      30.642 -22.445 -16.125  0.00  0.00    +0.176 C 
ATOM     31  C   UNL     1      30.222 -22.733 -14.846  0.00  0.00    +0.176 C 
ATOM     32  C   UNL     1      31.115 -23.049 -13.843  0.00  0.00    +0.040 C 
ATOM     33  C   UNL     1      28.484 -22.301 -16.060  0.00  0.00    +0.429 C 
ENDBRANCH  24  27
ENDBRANCH  22  24
ENDBRANCH  21  22
ENDBRANCH   3  21
TORSDOF 4
ENDMDL
