MODEL 1
REMARK VINA RESULT:     -11.0      0.000      0.000
REMARK  Name = 3034285
REMARK  9 active torsions:
REMARK  status: ('A' for Active; 'I' for Inactive)
REMARK    1  A    between atoms: O_1  and  C_4
REMARK    2  A    between atoms: O_1  and  C_18
REMARK    3  A    between atoms: C_6  and  O_8
REMARK    4  A    between atoms: O_8  and  C_9
REMARK    5  A    between atoms: C_10  and  C_16
REMARK    6  A    between atoms: C_17  and  C_23
REMARK    7  A    between atoms: C_23  and  C_28
REMARK    8  A    between atoms: C_24  and  O_25
REMARK    9  A    between atoms: C_28  and  O_29
REMARK                            x       y       z     vdW  Elec       q    Type
REMARK                         _______ _______ _______ _____ _____    ______ ____
ROOT
ATOM      1  O   UNL     1      34.026 -22.737 -17.867  0.00  0.00    -0.440 OA
ENDROOT
BRANCH   1   4
ATOM      2  N   UNL     1      32.403 -21.461 -18.921  0.00  0.00    -0.214 NA
ATOM      3  N   UNL     1      33.033 -19.816 -20.566  0.00  0.00    -0.214 NA
ATOM      4  C   UNL     1      33.707 -21.749 -18.782  0.00  0.00    +0.213 C 
ATOM      5  C   UNL     1      34.723 -21.139 -19.475  0.00  0.00    +0.170 C 
ATOM      6  C   UNL     1      34.321 -20.165 -20.367  0.00  0.00    +0.213 C 
ATOM      7  C   UNL     1      32.139 -20.495 -19.822  0.00  0.00    +0.256 C 
BRANCH   6   8
ATOM      8  O   UNL     1      35.267 -19.501 -21.102  0.00  0.00    -0.439 OA
BRANCH   8   9
ATOM      9  C   UNL     1      34.906 -18.287 -21.653  0.00  0.00    +0.156 C 
ATOM     10  C   UNL     1      34.550 -18.196 -22.989  0.00  0.00    +0.103 C 
ATOM     11  C   UNL     1      34.909 -17.170 -20.832  0.00  0.00    +0.038 C 
ATOM     12  C   UNL     1      34.188 -16.958 -23.518  0.00  0.00    +0.013 C 
ATOM     13  C   UNL     1      34.547 -15.930 -21.361  0.00  0.00    +0.003 C 
ATOM     14  C   UNL     1      34.186 -15.824 -22.704  0.00  0.00    +0.001 C 
BRANCH  10  16
ATOM     15  N   UNL     1      34.540 -20.279 -24.529  0.00  0.00    -0.191 NA
ATOM     16  C   UNL     1      34.545 -19.347 -23.840  0.00  0.00    +0.103 C 
ENDBRANCH  10  16
ENDBRANCH   8   9
ENDBRANCH   6   8
ENDBRANCH   1   4
BRANCH   1  18
ATOM     17  C   UNL     1      33.870 -23.130 -15.502  0.00  0.00    +0.044 C 
ATOM     18  C   UNL     1      33.294 -22.796 -16.718  0.00  0.00    +0.147 C 
ATOM     19  C   UNL     1      33.113 -23.185 -14.341  0.00  0.00    +0.003 C 
ATOM     20  C   UNL     1      31.929 -22.512 -16.776  0.00  0.00    +0.038 C 
ATOM     21  C   UNL     1      31.749 -22.902 -14.399  0.00  0.00    +0.000 C 
ATOM     22  C   UNL     1      31.156 -22.565 -15.616  0.00  0.00    +0.003 C 
BRANCH  17  23
ATOM     23  C   UNL     1      35.309 -23.433 -15.415  0.00  0.00    +0.115 C 
ATOM     24  C   UNL     1      36.226 -22.478 -15.634  0.00  0.00    +0.179 C 
BRANCH  24  25
ATOM     25  O   UNL     1      35.928 -21.177 -15.948  0.00  0.00    -0.468 OA
ATOM     26  C   UNL     1      37.020 -20.545 -16.596  0.00  0.00    +0.253 C 
ENDBRANCH  24  25
BRANCH  23  28
ATOM     27  O   UNL     1      35.340 -25.838 -15.469  0.00  0.00    -0.245 OA
ATOM     28  C   UNL     1      35.823 -24.789 -15.065  0.00  0.00    +0.345 C 
BRANCH  28  29
ATOM     29  O   UNL     1      36.892 -24.671 -14.231  0.00  0.00    -0.441 OA
ATOM     30  C   UNL     1      37.037 -25.709 -13.257  0.00  0.00    +0.256 C 
ENDBRANCH  28  29
ENDBRANCH  23  28
ENDBRANCH  17  23
ENDBRANCH   1  18
TORSDOF 9
ENDMDL
MODEL 2
REMARK VINA RESULT:     -10.9      7.322     12.724
REMARK  Name = 3034285
REMARK  9 active torsions:
REMARK  status: ('A' for Active; 'I' for Inactive)
REMARK    1  A    between atoms: O_1  and  C_4
REMARK    2  A    between atoms: O_1  and  C_18
REMARK    3  A    between atoms: C_6  and  O_8
REMARK    4  A    between atoms: O_8  and  C_9
REMARK    5  A    between atoms: C_10  and  C_16
REMARK    6  A    between atoms: C_17  and  C_23
REMARK    7  A    between atoms: C_23  and  C_28
REMARK    8  A    between atoms: C_24  and  O_25
REMARK    9  A    between atoms: C_28  and  O_29
REMARK                            x       y       z     vdW  Elec       q    Type
REMARK                         _______ _______ _______ _____ _____    ______ ____
ROOT
ATOM      1  O   UNL     1      31.902 -10.602 -22.879  0.00  0.00    -0.440 OA
ENDROOT
BRANCH   1   4
ATOM      2  N   UNL     1      31.641 -12.126 -21.151  0.00  0.00    -0.214 NA
ATOM      3  N   UNL     1      33.063 -14.067 -21.022  0.00  0.00    -0.214 NA
ATOM      4  C   UNL     1      32.305 -11.773 -22.263  0.00  0.00    +0.213 C 
ATOM      5  C   UNL     1      33.339 -12.487 -22.818  0.00  0.00    +0.170 C 
ATOM      6  C   UNL     1      33.681 -13.643 -22.145  0.00  0.00    +0.213 C 
ATOM      7  C   UNL     1      32.067 -13.272 -20.586  0.00  0.00    +0.256 C 
BRANCH   6   8
ATOM      8  O   UNL     1      34.701 -14.420 -22.626  0.00  0.00    -0.439 OA
BRANCH   8   9
ATOM      9  C   UNL     1      34.445 -15.766 -22.801  0.00  0.00    +0.156 C 
ATOM     10  C   UNL     1      33.821 -16.223 -23.950  0.00  0.00    +0.103 C 
ATOM     11  C   UNL     1      34.831 -16.641 -21.797  0.00  0.00    +0.038 C 
ATOM     12  C   UNL     1      33.577 -17.587 -24.100  0.00  0.00    +0.013 C 
ATOM     13  C   UNL     1      34.588 -18.007 -21.946  0.00  0.00    +0.003 C 
ATOM     14  C   UNL     1      33.960 -18.480 -23.099  0.00  0.00    +0.001 C 
BRANCH  10  16
ATOM     15  N   UNL     1      33.097 -14.596 -25.832  0.00  0.00    -0.191 NA
ATOM     16  C   UNL     1      33.421 -15.324 -24.990  0.00  0.00    +0.103 C 
ENDBRANCH  10  16
ENDBRANCH   8   9
ENDBRANCH   6   8
ENDBRANCH   1   4
BRANCH   1  18
ATOM     17  C   UNL     1      32.770  -8.368 -22.704  0.00  0.00    +0.044 C 
ATOM     18  C   UNL     1      32.860  -9.674 -23.162  0.00  0.00    +0.147 C 
ATOM     19  C   UNL     1      33.752  -7.435 -23.000  0.00  0.00    +0.003 C 
ATOM     20  C   UNL     1      33.957 -10.056 -23.934  0.00  0.00    +0.038 C 
ATOM     21  C   UNL     1      34.849  -7.817 -23.772  0.00  0.00    +0.000 C 
ATOM     22  C   UNL     1      34.953  -9.127 -24.239  0.00  0.00    +0.003 C 
BRANCH  17  23
ATOM     23  C   UNL     1      31.621  -7.941 -21.887  0.00  0.00    +0.115 C 
ATOM     24  C   UNL     1      30.509  -7.461 -22.464  0.00  0.00    +0.179 C 
BRANCH  24  25
ATOM     25  O   UNL     1      30.336  -7.326 -23.818  0.00  0.00    -0.468 OA
ATOM     26  C   UNL     1      30.536  -5.983 -24.226  0.00  0.00    +0.253 C 
ENDBRANCH  24  25
BRANCH  23  28
ATOM     27  O   UNL     1      32.224  -7.270 -19.656  0.00  0.00    -0.245 OA
ATOM     28  C   UNL     1      31.618  -8.032 -20.398  0.00  0.00    +0.345 C 
BRANCH  28  29
ATOM     29  O   UNL     1      30.854  -9.088 -20.007  0.00  0.00    -0.441 OA
ATOM     30  C   UNL     1      31.233  -9.704 -18.771  0.00  0.00    +0.256 C 
ENDBRANCH  28  29
ENDBRANCH  23  28
ENDBRANCH  17  23
ENDBRANCH   1  18
TORSDOF 9
ENDMDL
MODEL 3
REMARK VINA RESULT:     -10.7      7.388     12.684
REMARK  Name = 3034285
REMARK  9 active torsions:
REMARK  status: ('A' for Active; 'I' for Inactive)
REMARK    1  A    between atoms: O_1  and  C_4
REMARK    2  A    between atoms: O_1  and  C_18
REMARK    3  A    between atoms: C_6  and  O_8
REMARK    4  A    between atoms: O_8  and  C_9
REMARK    5  A    between atoms: C_10  and  C_16
REMARK    6  A    between atoms: C_17  and  C_23
REMARK    7  A    between atoms: C_23  and  C_28
REMARK    8  A    between atoms: C_24  and  O_25
REMARK    9  A    between atoms: C_28  and  O_29
REMARK                            x       y       z     vdW  Elec       q    Type
REMARK                         _______ _______ _______ _____ _____    ______ ____
ROOT
ATOM      1  O   UNL     1      31.498 -10.741 -22.134  0.00  0.00    -0.440 OA
ENDROOT
BRANCH   1   4
ATOM      2  N   UNL     1      31.508 -12.472 -20.593  0.00  0.00    -0.214 NA
ATOM      3  N   UNL     1      33.055 -14.305 -20.838  0.00  0.00    -0.214 NA
ATOM      4  C   UNL     1      32.034 -11.943 -21.709  0.00  0.00    +0.213 C 
ATOM      5  C   UNL     1      33.048 -12.509 -22.442  0.00  0.00    +0.170 C 
ATOM      6  C   UNL     1      33.527 -13.707 -21.952  0.00  0.00    +0.213 C 
ATOM      7  C   UNL     1      32.060 -13.642 -20.217  0.00  0.00    +0.256 C 
BRANCH   6   8
ATOM      8  O   UNL     1      34.540 -14.345 -22.619  0.00  0.00    -0.439 OA
BRANCH   8   9
ATOM      9  C   UNL     1      34.397 -15.700 -22.844  0.00  0.00    +0.156 C 
ATOM     10  C   UNL     1      33.838 -16.166 -24.022  0.00  0.00    +0.103 C 
ATOM     11  C   UNL     1      34.829 -16.575 -21.858  0.00  0.00    +0.038 C 
ATOM     12  C   UNL     1      33.708 -17.540 -24.222  0.00  0.00    +0.013 C 
ATOM     13  C   UNL     1      34.699 -17.950 -22.058  0.00  0.00    +0.003 C 
ATOM     14  C   UNL     1      34.138 -18.432 -23.240  0.00  0.00    +0.001 C 
BRANCH  10  16
ATOM     15  N   UNL     1      33.028 -14.539 -25.868  0.00  0.00    -0.191 NA
ATOM     16  C   UNL     1      33.391 -15.267 -25.043  0.00  0.00    +0.103 C 
ENDBRANCH  10  16
ENDBRANCH   8   9
ENDBRANCH   6   8
ENDBRANCH   1   4
BRANCH   1  18
ATOM     17  C   UNL     1      31.825  -8.418 -21.611  0.00  0.00    +0.044 C 
ATOM     18  C   UNL     1      31.474  -9.708 -21.243  0.00  0.00    +0.147 C 
ATOM     19  C   UNL     1      31.795  -7.378 -20.694  0.00  0.00    +0.003 C 
ATOM     20  C   UNL     1      31.086  -9.966 -19.928  0.00  0.00    +0.038 C 
ATOM     21  C   UNL     1      31.407  -7.635 -19.379  0.00  0.00    +0.000 C 
ATOM     22  C   UNL     1      31.052  -8.928 -18.996  0.00  0.00    +0.003 C 
BRANCH  17  23
ATOM     23  C   UNL     1      32.238  -8.121 -22.993  0.00  0.00    +0.115 C 
ATOM     24  C   UNL     1      31.365  -7.610 -23.876  0.00  0.00    +0.179 C 
BRANCH  24  25
ATOM     25  O   UNL     1      30.055  -7.324 -23.590  0.00  0.00    -0.468 OA
ATOM     26  C   UNL     1      29.873  -5.937 -23.361  0.00  0.00    +0.253 C 
ENDBRANCH  24  25
BRANCH  23  28
ATOM     27  O   UNL     1      34.188  -9.437 -23.499  0.00  0.00    -0.245 OA
ATOM     28  C   UNL     1      33.629  -8.349 -23.481  0.00  0.00    +0.345 C 
BRANCH  28  29
ATOM     29  O   UNL     1      34.170  -7.167 -23.887  0.00  0.00    -0.441 OA
ATOM     30  C   UNL     1      34.447  -6.223 -22.847  0.00  0.00    +0.256 C 
ENDBRANCH  28  29
ENDBRANCH  23  28
ENDBRANCH  17  23
ENDBRANCH   1  18
TORSDOF 9
ENDMDL
MODEL 4
REMARK VINA RESULT:     -10.6      2.634      5.144
REMARK  Name = 3034285
REMARK  9 active torsions:
REMARK  status: ('A' for Active; 'I' for Inactive)
REMARK    1  A    between atoms: O_1  and  C_4
REMARK    2  A    between atoms: O_1  and  C_18
REMARK    3  A    between atoms: C_6  and  O_8
REMARK    4  A    between atoms: O_8  and  C_9
REMARK    5  A    between atoms: C_10  and  C_16
REMARK    6  A    between atoms: C_17  and  C_23
REMARK    7  A    between atoms: C_23  and  C_28
REMARK    8  A    between atoms: C_24  and  O_25
REMARK    9  A    between atoms: C_28  and  O_29
REMARK                            x       y       z     vdW  Elec       q    Type
REMARK                         _______ _______ _______ _____ _____    ______ ____
ROOT
ATOM      1  O   UNL     1      37.020 -22.308 -14.106  0.00  0.00    -0.440 OA
ENDROOT
BRANCH   1   4
ATOM      2  N   UNL     1      37.545 -20.631 -15.618  0.00  0.00    -0.214 NA
ATOM      3  N   UNL     1      36.472 -20.566 -17.775  0.00  0.00    -0.214 NA
ATOM      4  C   UNL     1      36.824 -21.732 -15.347  0.00  0.00    +0.213 C 
ATOM      5  C   UNL     1      35.924 -22.309 -16.208  0.00  0.00    +0.170 C 
ATOM      6  C   UNL     1      35.786 -21.675 -17.426  0.00  0.00    +0.213 C 
ATOM      7  C   UNL     1      37.322 -20.105 -16.838  0.00  0.00    +0.256 C 
BRANCH   6   8
ATOM      8  O   UNL     1      34.909 -22.181 -18.349  0.00  0.00    -0.439 OA
BRANCH   8   9
ATOM      9  C   UNL     1      34.283 -21.283 -19.189  0.00  0.00    +0.156 C 
ATOM     10  C   UNL     1      32.920 -21.056 -19.092  0.00  0.00    +0.103 C 
ATOM     11  C   UNL     1      35.057 -20.617 -20.128  0.00  0.00    +0.038 C 
ATOM     12  C   UNL     1      32.315 -20.141 -19.953  0.00  0.00    +0.013 C 
ATOM     13  C   UNL     1      34.452 -19.702 -20.990  0.00  0.00    +0.003 C 
ATOM     14  C   UNL     1      33.081 -19.464 -20.902  0.00  0.00    +0.001 C 
BRANCH  10  16
ATOM     15  N   UNL     1      31.467 -22.294 -17.341  0.00  0.00    -0.191 NA
ATOM     16  C   UNL     1      32.117 -21.740 -18.124  0.00  0.00    +0.103 C 
ENDBRANCH  10  16
ENDBRANCH   8   9
ENDBRANCH   6   8
ENDBRANCH   1   4
BRANCH   1  18
ATOM     17  C   UNL     1      36.188 -24.492 -13.545  0.00  0.00    +0.044 C 
ATOM     18  C   UNL     1      37.176 -23.662 -14.054  0.00  0.00    +0.147 C 
ATOM     19  C   UNL     1      36.361 -25.868 -13.500  0.00  0.00    +0.003 C 
ATOM     20  C   UNL     1      38.364 -24.220 -14.528  0.00  0.00    +0.038 C 
ATOM     21  C   UNL     1      37.548 -26.425 -13.973  0.00  0.00    +0.000 C 
ATOM     22  C   UNL     1      38.550 -25.602 -14.487  0.00  0.00    +0.003 C 
BRANCH  17  23
ATOM     23  C   UNL     1      34.926 -23.927 -13.040  0.00  0.00    +0.115 C 
ATOM     24  C   UNL     1      34.866 -23.356 -11.827  0.00  0.00    +0.179 C 
BRANCH  24  25
ATOM     25  O   UNL     1      35.931 -23.245 -10.971  0.00  0.00    -0.468 OA
ATOM     26  C   UNL     1      35.627 -23.801  -9.702  0.00  0.00    +0.253 C 
ENDBRANCH  24  25
BRANCH  23  28
ATOM     27  O   UNL     1      33.619 -24.010 -15.059  0.00  0.00    -0.245 OA
ATOM     28  C   UNL     1      33.665 -23.939 -13.838  0.00  0.00    +0.345 C 
BRANCH  28  29
ATOM     29  O   UNL     1      32.595 -23.848 -13.002  0.00  0.00    -0.441 OA
ATOM     30  C   UNL     1      31.459 -24.643 -13.360  0.00  0.00    +0.256 C 
ENDBRANCH  28  29
ENDBRANCH  23  28
ENDBRANCH  17  23
ENDBRANCH   1  18
TORSDOF 9
ENDMDL
MODEL 5
REMARK VINA RESULT:     -10.6      1.203      3.120
REMARK  Name = 3034285
REMARK  9 active torsions:
REMARK  status: ('A' for Active; 'I' for Inactive)
REMARK    1  A    between atoms: O_1  and  C_4
REMARK    2  A    between atoms: O_1  and  C_18
REMARK    3  A    between atoms: C_6  and  O_8
REMARK    4  A    between atoms: O_8  and  C_9
REMARK    5  A    between atoms: C_10  and  C_16
REMARK    6  A    between atoms: C_17  and  C_23
REMARK    7  A    between atoms: C_23  and  C_28
REMARK    8  A    between atoms: C_24  and  O_25
REMARK    9  A    between atoms: C_28  and  O_29
REMARK                            x       y       z     vdW  Elec       q    Type
REMARK                         _______ _______ _______ _____ _____    ______ ____
ROOT
ATOM      1  O   UNL     1      34.165 -22.509 -17.880  0.00  0.00    -0.440 OA
ENDROOT
BRANCH   1   4
ATOM      2  N   UNL     1      32.474 -21.312 -18.921  0.00  0.00    -0.214 NA
ATOM      3  N   UNL     1      33.002 -19.748 -20.677  0.00  0.00    -0.214 NA
ATOM      4  C   UNL     1      33.788 -21.576 -18.828  0.00  0.00    +0.213 C 
ATOM      5  C   UNL     1      34.761 -20.990 -19.600  0.00  0.00    +0.170 C 
ATOM      6  C   UNL     1      34.303 -20.069 -20.521  0.00  0.00    +0.213 C 
ATOM      7  C   UNL     1      32.154 -20.398 -19.857  0.00  0.00    +0.256 C 
BRANCH   6   8
ATOM      8  O   UNL     1      35.204 -19.433 -21.334  0.00  0.00    -0.439 OA
BRANCH   8   9
ATOM      9  C   UNL     1      34.835 -18.207 -21.852  0.00  0.00    +0.156 C 
ATOM     10  C   UNL     1      34.425 -18.090 -23.169  0.00  0.00    +0.103 C 
ATOM     11  C   UNL     1      34.887 -17.102 -21.015  0.00  0.00    +0.038 C 
ATOM     12  C   UNL     1      34.058 -16.840 -23.664  0.00  0.00    +0.013 C 
ATOM     13  C   UNL     1      34.519 -15.850 -21.509  0.00  0.00    +0.003 C 
ATOM     14  C   UNL     1      34.104 -15.719 -22.834  0.00  0.00    +0.001 C 
BRANCH  10  16
ATOM     15  N   UNL     1      34.325 -20.149 -24.739  0.00  0.00    -0.191 NA
ATOM     16  C   UNL     1      34.370 -19.228 -24.037  0.00  0.00    +0.103 C 
ENDBRANCH  10  16
ENDBRANCH   8   9
ENDBRANCH   6   8
ENDBRANCH   1   4
BRANCH   1  18
ATOM     17  C   UNL     1      35.140 -22.638 -15.688  0.00  0.00    +0.044 C 
ATOM     18  C   UNL     1      35.128 -22.148 -16.984  0.00  0.00    +0.147 C 
ATOM     19  C   UNL     1      36.126 -22.262 -14.787  0.00  0.00    +0.003 C 
ATOM     20  C   UNL     1      36.124 -21.260 -17.391  0.00  0.00    +0.038 C 
ATOM     21  C   UNL     1      37.122 -21.375 -15.194  0.00  0.00    +0.000 C 
ATOM     22  C   UNL     1      37.122 -20.873 -16.496  0.00  0.00    +0.003 C 
BRANCH  17  23
ATOM     23  C   UNL     1      34.099 -23.577 -15.234  0.00  0.00    +0.115 C 
ATOM     24  C   UNL     1      34.351 -24.893 -15.152  0.00  0.00    +0.179 C 
BRANCH  24  25
ATOM     25  O   UNL     1      35.553 -25.472 -15.468  0.00  0.00    -0.468 OA
ATOM     26  C   UNL     1      36.214 -25.944 -14.305  0.00  0.00    +0.253 C 
ENDBRANCH  24  25
BRANCH  23  28
ATOM     27  O   UNL     1      32.410 -22.848 -13.684  0.00  0.00    -0.245 OA
ATOM     28  C   UNL     1      32.735 -23.129 -14.829  0.00  0.00    +0.345 C 
BRANCH  28  29
ATOM     29  O   UNL     1      31.924 -23.094 -15.922  0.00  0.00    -0.441 OA
ATOM     30  C   UNL     1      30.575 -22.680 -15.680  0.00  0.00    +0.256 C 
ENDBRANCH  28  29
ENDBRANCH  23  28
ENDBRANCH  17  23
ENDBRANCH   1  18
TORSDOF 9
ENDMDL
MODEL 6
REMARK VINA RESULT:     -10.5      7.443     13.128
REMARK  Name = 3034285
REMARK  9 active torsions:
REMARK  status: ('A' for Active; 'I' for Inactive)
REMARK    1  A    between atoms: O_1  and  C_4
REMARK    2  A    between atoms: O_1  and  C_18
REMARK    3  A    between atoms: C_6  and  O_8
REMARK    4  A    between atoms: O_8  and  C_9
REMARK    5  A    between atoms: C_10  and  C_16
REMARK    6  A    between atoms: C_17  and  C_23
REMARK    7  A    between atoms: C_23  and  C_28
REMARK    8  A    between atoms: C_24  and  O_25
REMARK    9  A    between atoms: C_28  and  O_29
REMARK                            x       y       z     vdW  Elec       q    Type
REMARK                         _______ _______ _______ _____ _____    ______ ____
ROOT
ATOM      1  O   UNL     1      31.809 -10.447 -22.846  0.00  0.00    -0.440 OA
ENDROOT
BRANCH   1   4
ATOM      2  N   UNL     1      31.552 -12.027 -21.169  0.00  0.00    -0.214 NA
ATOM      3  N   UNL     1      32.991 -13.960 -21.094  0.00  0.00    -0.214 NA
ATOM      4  C   UNL     1      32.219 -11.634 -22.266  0.00  0.00    +0.213 C 
ATOM      5  C   UNL     1      33.261 -12.322 -22.837  0.00  0.00    +0.170 C 
ATOM      6  C   UNL     1      33.610 -13.495 -22.200  0.00  0.00    +0.213 C 
ATOM      7  C   UNL     1      31.986 -13.187 -20.639  0.00  0.00    +0.256 C 
BRANCH   6   8
ATOM      8  O   UNL     1      34.639 -14.248 -22.700  0.00  0.00    -0.439 OA
BRANCH   8   9
ATOM      9  C   UNL     1      34.416 -15.602 -22.858  0.00  0.00    +0.156 C 
ATOM     10  C   UNL     1      33.809 -16.089 -24.003  0.00  0.00    +0.103 C 
ATOM     11  C   UNL     1      34.819 -16.453 -21.840  0.00  0.00    +0.038 C 
ATOM     12  C   UNL     1      33.598 -17.461 -24.136  0.00  0.00    +0.013 C 
ATOM     13  C   UNL     1      34.609 -17.827 -21.973  0.00  0.00    +0.003 C 
ATOM     14  C   UNL     1      33.998 -18.330 -23.121  0.00  0.00    +0.001 C 
BRANCH  10  16
ATOM     15  N   UNL     1      33.054 -14.506 -25.910  0.00  0.00    -0.191 NA
ATOM     16  C   UNL     1      33.392 -15.214 -25.057  0.00  0.00    +0.103 C 
ENDBRANCH  10  16
ENDBRANCH   8   9
ENDBRANCH   6   8
ENDBRANCH   1   4
BRANCH   1  18
ATOM     17  C   UNL     1      32.597  -8.180 -22.736  0.00  0.00    +0.044 C 
ATOM     18  C   UNL     1      32.762  -9.507 -23.105  0.00  0.00    +0.147 C 
ATOM     19  C   UNL     1      33.576  -7.235 -23.005  0.00  0.00    +0.003 C 
ATOM     20  C   UNL     1      33.931  -9.897 -23.758  0.00  0.00    +0.038 C 
ATOM     21  C   UNL     1      34.744  -7.625 -23.658  0.00  0.00    +0.000 C 
ATOM     22  C   UNL     1      34.923  -8.956 -24.035  0.00  0.00    +0.003 C 
BRANCH  17  23
ATOM     23  C   UNL     1      31.373  -7.744 -22.044  0.00  0.00    +0.115 C 
ATOM     24  C   UNL     1      31.179  -8.027 -20.746  0.00  0.00    +0.179 C 
BRANCH  24  25
ATOM     25  O   UNL     1      32.066  -8.723 -19.966  0.00  0.00    -0.468 OA
ATOM     26  C   UNL     1      31.403  -9.370 -18.892  0.00  0.00    +0.253 C 
ENDBRANCH  24  25
BRANCH  23  28
ATOM     27  O   UNL     1      29.705  -7.327 -23.727  0.00  0.00    -0.245 OA
ATOM     28  C   UNL     1      30.303  -6.959 -22.726  0.00  0.00    +0.345 C 
BRANCH  28  29
ATOM     29  O   UNL     1      30.112  -5.781 -22.069  0.00  0.00    -0.441 OA
ATOM     30  C   UNL     1      30.762  -4.640 -22.639  0.00  0.00    +0.256 C 
ENDBRANCH  28  29
ENDBRANCH  23  28
ENDBRANCH  17  23
ENDBRANCH   1  18
TORSDOF 9
ENDMDL
MODEL 7
REMARK VINA RESULT:     -10.5      8.145     13.649
REMARK  Name = 3034285
REMARK  9 active torsions:
REMARK  status: ('A' for Active; 'I' for Inactive)
REMARK    1  A    between atoms: O_1  and  C_4
REMARK    2  A    between atoms: O_1  and  C_18
REMARK    3  A    between atoms: C_6  and  O_8
REMARK    4  A    between atoms: O_8  and  C_9
REMARK    5  A    between atoms: C_10  and  C_16
REMARK    6  A    between atoms: C_17  and  C_23
REMARK    7  A    between atoms: C_23  and  C_28
REMARK    8  A    between atoms: C_24  and  O_25
REMARK    9  A    between atoms: C_28  and  O_29
REMARK                            x       y       z     vdW  Elec       q    Type
REMARK                         _______ _______ _______ _____ _____    ______ ____
ROOT
ATOM      1  O   UNL     1      31.438  -9.650 -22.599  0.00  0.00    -0.440 OA
ENDROOT
BRANCH   1   4
ATOM      2  N   UNL     1      31.136 -11.490 -21.221  0.00  0.00    -0.214 NA
ATOM      3  N   UNL     1      32.596 -13.398 -21.410  0.00  0.00    -0.214 NA
ATOM      4  C   UNL     1      31.841 -10.915 -22.209  0.00  0.00    +0.213 C 
ATOM      5  C   UNL     1      32.914 -11.490 -22.843  0.00  0.00    +0.170 C 
ATOM      6  C   UNL     1      33.252 -12.752 -22.397  0.00  0.00    +0.213 C 
ATOM      7  C   UNL     1      31.564 -12.719 -20.874  0.00  0.00    +0.256 C 
BRANCH   6   8
ATOM      8  O   UNL     1      34.310 -13.404 -22.973  0.00  0.00    -0.439 OA
BRANCH   8   9
ATOM      9  C   UNL     1      34.176 -14.760 -23.193  0.00  0.00    +0.156 C 
ATOM     10  C   UNL     1      33.615 -15.234 -24.367  0.00  0.00    +0.103 C 
ATOM     11  C   UNL     1      34.619 -15.629 -22.207  0.00  0.00    +0.038 C 
ATOM     12  C   UNL     1      33.493 -16.609 -24.562  0.00  0.00    +0.013 C 
ATOM     13  C   UNL     1      34.498 -17.005 -22.401  0.00  0.00    +0.003 C 
ATOM     14  C   UNL     1      33.935 -17.495 -23.579  0.00  0.00    +0.001 C 
BRANCH  10  16
ATOM     15  N   UNL     1      32.784 -13.619 -26.214  0.00  0.00    -0.191 NA
ATOM     16  C   UNL     1      33.156 -14.341 -25.388  0.00  0.00    +0.103 C 
ENDBRANCH  10  16
ENDBRANCH   8   9
ENDBRANCH   6   8
ENDBRANCH   1   4
BRANCH   1  18
ATOM     17  C   UNL     1      31.834  -7.341 -22.067  0.00  0.00    +0.044 C 
ATOM     18  C   UNL     1      31.545  -8.642 -21.687  0.00  0.00    +0.147 C 
ATOM     19  C   UNL     1      31.940  -6.325 -21.128  0.00  0.00    +0.003 C 
ATOM     20  C   UNL     1      31.357  -8.936 -20.336  0.00  0.00    +0.038 C 
ATOM     21  C   UNL     1      31.752  -6.620 -19.778  0.00  0.00    +0.000 C 
ATOM     22  C   UNL     1      31.460  -7.924 -19.381  0.00  0.00    +0.003 C 
BRANCH  17  23
ATOM     23  C   UNL     1      32.036  -7.005 -23.487  0.00  0.00    +0.115 C 
ATOM     24  C   UNL     1      33.258  -7.065 -24.039  0.00  0.00    +0.179 C 
BRANCH  24  25
ATOM     25  O   UNL     1      34.395  -7.431 -23.365  0.00  0.00    -0.468 OA
ATOM     26  C   UNL     1      34.988  -8.578 -23.950  0.00  0.00    +0.253 C 
ENDBRANCH  24  25
BRANCH  23  28
ATOM     27  O   UNL     1      30.702  -7.087 -25.487  0.00  0.00    -0.245 OA
ATOM     28  C   UNL     1      30.914  -6.603 -24.384  0.00  0.00    +0.345 C 
BRANCH  28  29
ATOM     29  O   UNL     1      30.183  -5.621 -23.789  0.00  0.00    -0.441 OA
ATOM     30  C   UNL     1      30.622  -4.282 -24.042  0.00  0.00    +0.256 C 
ENDBRANCH  28  29
ENDBRANCH  23  28
ENDBRANCH  17  23
ENDBRANCH   1  18
TORSDOF 9
ENDMDL
MODEL 8
REMARK VINA RESULT:     -10.4      2.240      3.691
REMARK  Name = 3034285
REMARK  9 active torsions:
REMARK  status: ('A' for Active; 'I' for Inactive)
REMARK    1  A    between atoms: O_1  and  C_4
REMARK    2  A    between atoms: O_1  and  C_18
REMARK    3  A    between atoms: C_6  and  O_8
REMARK    4  A    between atoms: O_8  and  C_9
REMARK    5  A    between atoms: C_10  and  C_16
REMARK    6  A    between atoms: C_17  and  C_23
REMARK    7  A    between atoms: C_23  and  C_28
REMARK    8  A    between atoms: C_24  and  O_25
REMARK    9  A    between atoms: C_28  and  O_29
REMARK                            x       y       z     vdW  Elec       q    Type
REMARK                         _______ _______ _______ _____ _____    ______ ____
ROOT
ATOM      1  O   UNL     1      36.283 -22.991 -15.344  0.00  0.00    -0.440 OA
ENDROOT
BRANCH   1   4
ATOM      2  N   UNL     1      37.114 -20.898 -15.894  0.00  0.00    -0.214 NA
ATOM      3  N   UNL     1      36.726 -19.977 -18.087  0.00  0.00    -0.214 NA
ATOM      4  C   UNL     1      36.424 -21.983 -16.280  0.00  0.00    +0.213 C 
ATOM      5  C   UNL     1      35.860 -22.152 -17.521  0.00  0.00    +0.170 C 
ATOM      6  C   UNL     1      36.046 -21.101 -18.397  0.00  0.00    +0.213 C 
ATOM      7  C   UNL     1      37.226 -19.943 -16.837  0.00  0.00    +0.256 C 
BRANCH   6   8
ATOM      8  O   UNL     1      35.519 -21.182 -19.659  0.00  0.00    -0.439 OA
BRANCH   8   9
ATOM      9  C   UNL     1      35.318 -19.998 -20.340  0.00  0.00    +0.156 C 
ATOM     10  C   UNL     1      34.037 -19.538 -20.595  0.00  0.00    +0.103 C 
ATOM     11  C   UNL     1      36.434 -19.287 -20.758  0.00  0.00    +0.038 C 
ATOM     12  C   UNL     1      33.865 -18.338 -21.284  0.00  0.00    +0.013 C 
ATOM     13  C   UNL     1      36.262 -18.086 -21.447  0.00  0.00    +0.003 C 
ATOM     14  C   UNL     1      34.978 -17.611 -21.710  0.00  0.00    +0.001 C 
BRANCH  10  16
ATOM     15  N   UNL     1      31.948 -20.858 -19.818  0.00  0.00    -0.191 NA
ATOM     16  C   UNL     1      32.883 -20.267 -20.166  0.00  0.00    +0.103 C 
ENDBRANCH  10  16
ENDBRANCH   8   9
ENDBRANCH   6   8
ENDBRANCH   1   4
BRANCH   1  18
ATOM     17  C   UNL     1      34.933 -23.701 -13.488  0.00  0.00    +0.044 C 
ATOM     18  C   UNL     1      35.066 -23.134 -14.746  0.00  0.00    +0.147 C 
ATOM     19  C   UNL     1      33.688 -23.839 -12.891  0.00  0.00    +0.003 C 
ATOM     20  C   UNL     1      33.929 -22.695 -15.425  0.00  0.00    +0.038 C 
ATOM     21  C   UNL     1      32.551 -23.401 -13.570  0.00  0.00    +0.000 C 
ATOM     22  C   UNL     1      32.670 -22.829 -14.836  0.00  0.00    +0.003 C 
BRANCH  17  23
ATOM     23  C   UNL     1      36.118 -24.171 -12.751  0.00  0.00    +0.115 C 
ATOM     24  C   UNL     1      36.610 -25.403 -12.955  0.00  0.00    +0.179 C 
BRANCH  24  25
ATOM     25  O   UNL     1      36.080 -26.311 -13.836  0.00  0.00    -0.468 OA
ATOM     26  C   UNL     1      36.868 -26.401 -15.012  0.00  0.00    +0.253 C 
ENDBRANCH  24  25
BRANCH  23  28
ATOM     27  O   UNL     1      37.401 -22.263 -12.040  0.00  0.00    -0.245 OA
ATOM     28  C   UNL     1      36.841 -23.316 -11.765  0.00  0.00    +0.345 C 
BRANCH  28  29
ATOM     29  O   UNL     1      36.785 -23.893 -10.533  0.00  0.00    -0.441 OA
ATOM     30  C   UNL     1      35.549 -23.735  -9.829  0.00  0.00    +0.256 C 
ENDBRANCH  28  29
ENDBRANCH  23  28
ENDBRANCH  17  23
ENDBRANCH   1  18
TORSDOF 9
ENDMDL
MODEL 9
REMARK VINA RESULT:     -10.4      0.677      2.232
REMARK  Name = 3034285
REMARK  9 active torsions:
REMARK  status: ('A' for Active; 'I' for Inactive)
REMARK    1  A    between atoms: O_1  and  C_4
REMARK    2  A    between atoms: O_1  and  C_18
REMARK    3  A    between atoms: C_6  and  O_8
REMARK    4  A    between atoms: O_8  and  C_9
REMARK    5  A    between atoms: C_10  and  C_16
REMARK    6  A    between atoms: C_17  and  C_23
REMARK    7  A    between atoms: C_23  and  C_28
REMARK    8  A    between atoms: C_24  and  O_25
REMARK    9  A    between atoms: C_28  and  O_29
REMARK                            x       y       z     vdW  Elec       q    Type
REMARK                         _______ _______ _______ _____ _____    ______ ____
ROOT
ATOM      1  O   UNL     1      34.285 -22.696 -17.676  0.00  0.00    -0.440 OA
ENDROOT
BRANCH   1   4
ATOM      2  N   UNL     1      32.576 -21.506 -18.694  0.00  0.00    -0.214 NA
ATOM      3  N   UNL     1      33.069 -19.961 -20.477  0.00  0.00    -0.214 NA
ATOM      4  C   UNL     1      33.890 -21.771 -18.626  0.00  0.00    +0.213 C 
ATOM      5  C   UNL     1      34.848 -21.195 -19.423  0.00  0.00    +0.170 C 
ATOM      6  C   UNL     1      34.373 -20.283 -20.345  0.00  0.00    +0.213 C 
ATOM      7  C   UNL     1      32.238 -20.601 -19.633  0.00  0.00    +0.256 C 
BRANCH   6   8
ATOM      8  O   UNL     1      35.258 -19.657 -21.182  0.00  0.00    -0.439 OA
BRANCH   8   9
ATOM      9  C   UNL     1      34.901 -18.415 -21.668  0.00  0.00    +0.156 C 
ATOM     10  C   UNL     1      34.502 -18.260 -22.985  0.00  0.00    +0.103 C 
ATOM     11  C   UNL     1      34.953 -17.334 -20.800  0.00  0.00    +0.038 C 
ATOM     12  C   UNL     1      34.146 -16.993 -23.448  0.00  0.00    +0.013 C 
ATOM     13  C   UNL     1      34.596 -16.067 -21.263  0.00  0.00    +0.003 C 
ATOM     14  C   UNL     1      34.193 -15.897 -22.587  0.00  0.00    +0.001 C 
BRANCH  10  16
ATOM     15  N   UNL     1      34.403 -20.273 -24.613  0.00  0.00    -0.191 NA
ATOM     16  C   UNL     1      34.447 -19.372 -23.885  0.00  0.00    +0.103 C 
ENDBRANCH  10  16
ENDBRANCH   8   9
ENDBRANCH   6   8
ENDBRANCH   1   4
BRANCH   1  18
ATOM     17  C   UNL     1      34.123 -23.052 -15.305  0.00  0.00    +0.044 C 
ATOM     18  C   UNL     1      33.542 -22.788 -16.536  0.00  0.00    +0.147 C 
ATOM     19  C   UNL     1      33.355 -23.143 -14.153  0.00  0.00    +0.003 C 
ATOM     20  C   UNL     1      32.161 -22.611 -16.618  0.00  0.00    +0.038 C 
ATOM     21  C   UNL     1      31.974 -22.966 -14.236  0.00  0.00    +0.000 C 
ATOM     22  C   UNL     1      31.376 -22.700 -15.468  0.00  0.00    +0.003 C 
BRANCH  17  23
ATOM     23  C   UNL     1      35.579 -23.243 -15.192  0.00  0.00    +0.115 C 
ATOM     24  C   UNL     1      36.116 -24.472 -15.235  0.00  0.00    +0.179 C 
BRANCH  24  25
ATOM     25  O   UNL     1      35.393 -25.627 -15.383  0.00  0.00    -0.468 OA
ATOM     26  C   UNL     1      36.178 -26.766 -15.068  0.00  0.00    +0.253 C 
ENDBRANCH  24  25
BRANCH  23  28
ATOM     27  O   UNL     1      36.721 -21.491 -14.001  0.00  0.00    -0.245 OA
ATOM     28  C   UNL     1      36.528 -22.101 -15.044  0.00  0.00    +0.345 C 
BRANCH  28  29
ATOM     29  O   UNL     1      37.127 -21.848 -16.240  0.00  0.00    -0.441 OA
ATOM     30  C   UNL     1      36.963 -20.519 -16.746  0.00  0.00    +0.256 C 
ENDBRANCH  28  29
ENDBRANCH  23  28
ENDBRANCH  17  23
ENDBRANCH   1  18
TORSDOF 9
ENDMDL
