MODEL 1
REMARK VINA RESULT:     -11.5      0.000      0.000
REMARK  Name = 11963512
REMARK  10 active torsions:
REMARK  status: ('A' for Active; 'I' for Inactive)
REMARK    1  A    between atoms: C_1  and  N_7
REMARK    2  A    between atoms: C_4  and  C_17
REMARK    3  A    between atoms: N_7  and  C_9
REMARK    4  A    between atoms: C_9  and  C_10
REMARK    5  A    between atoms: C_10  and  C_11
REMARK    6  A    between atoms: C_11  and  C_12
REMARK    7  A    between atoms: C_12  and  C_14
REMARK    8  A    between atoms: C_14  and  O_15
REMARK    9  A    between atoms: C_18  and  C_19
REMARK   10  A    between atoms: C_22  and  N_27
REMARK                            x       y       z     vdW  Elec       q    Type
REMARK                         _______ _______ _______ _____ _____    ______ ____
ROOT
ATOM      1  C   UNL     1      35.472 -22.704 -16.166  0.00  0.00    +0.048 C 
ATOM      2  C   UNL     1      34.173 -22.778 -16.680  0.00  0.00    +0.015 C 
ATOM      3  C   UNL     1      36.416 -21.889 -16.799  0.00  0.00    +0.015 C 
ATOM      4  C   UNL     1      34.770 -21.238 -18.443  0.00  0.00    +0.000 C 
ATOM      5  C   UNL     1      33.823 -22.047 -17.816  0.00  0.00    +0.001 C 
ATOM      6  C   UNL     1      36.067 -21.159 -17.935  0.00  0.00    +0.001 C 
ENDROOT
BRANCH   1   7
ATOM      7  N   UNL     1      35.824 -23.439 -15.024  0.00  0.00    -0.306 N 
ATOM      8  C   UNL     1      35.281 -24.783 -14.823  0.00  0.00    +0.112 C 
BRANCH   7   9
ATOM      9  C   UNL     1      36.730 -22.906 -14.036  0.00  0.00    +0.091 C 
BRANCH   9  10
ATOM     10  C   UNL     1      36.877 -23.858 -12.852  0.00  0.00    +0.022 C 
BRANCH  10  11
ATOM     11  C   UNL     1      38.318 -24.345 -12.656  0.00  0.00    +0.013 C 
BRANCH  11  12
ATOM     12  C   UNL     1      38.729 -25.381 -13.700  0.00  0.00    +0.109 C 
BRANCH  12  14
ATOM     13  O   UNL     1      40.656 -24.025 -14.233  0.00  0.00    -0.250 OA
ATOM     14  C   UNL     1      39.875 -24.910 -14.559  0.00  0.00    +0.314 C 
BRANCH  14  15
ATOM     15  O   UNL     1      39.954 -25.578 -15.737  0.00  0.00    -0.480 OA
ATOM     16  H   UNL     1      39.177 -25.913 -16.138  0.00  0.00    +0.295 HD
ENDBRANCH  14  15
ENDBRANCH  12  14
ENDBRANCH  11  12
ENDBRANCH  10  11
ENDBRANCH   9  10
ENDBRANCH   7   9
ENDBRANCH   1   7
BRANCH   4  17
ATOM     17  C   UNL     1      34.406 -20.476 -19.627  0.00  0.00    +0.000 C 
ATOM     18  C   UNL     1      35.072 -19.396 -20.097  0.00  0.00    +0.000 C 
BRANCH  18  19
ATOM     19  C   UNL     1      34.714 -18.635 -21.307  0.00  0.00    +0.000 C 
ATOM     20  C   UNL     1      34.950 -17.270 -21.345  0.00  0.00    +0.002 C 
ATOM     21  C   UNL     1      34.151 -19.300 -22.383  0.00  0.00    +0.002 C 
ATOM     22  C   UNL     1      34.045 -17.206 -23.584  0.00  0.00    +0.143 C 
ATOM     23  C   UNL     1      34.612 -16.551 -22.492  0.00  0.00    +0.024 C 
ATOM     24  C   UNL     1      33.815 -18.581 -23.531  0.00  0.00    +0.024 C 
BRANCH  22  27
ATOM     25  O   UNL     1      32.616 -16.730 -25.330  0.00  0.00    -0.126 OA
ATOM     26  O   UNL     1      34.489 -15.594 -25.172  0.00  0.00    -0.126 OA
ATOM     27  N   UNL     1      33.700 -16.475 -24.752  0.00  0.00    +0.058 N 
ENDBRANCH  22  27
ENDBRANCH  18  19
ENDBRANCH   4  17
TORSDOF 10
ENDMDL
MODEL 2
REMARK VINA RESULT:     -11.2      2.114     11.024
REMARK  Name = 11963512
REMARK  10 active torsions:
REMARK  status: ('A' for Active; 'I' for Inactive)
REMARK    1  A    between atoms: C_1  and  N_7
REMARK    2  A    between atoms: C_4  and  C_17
REMARK    3  A    between atoms: N_7  and  C_9
REMARK    4  A    between atoms: C_9  and  C_10
REMARK    5  A    between atoms: C_10  and  C_11
REMARK    6  A    between atoms: C_11  and  C_12
REMARK    7  A    between atoms: C_12  and  C_14
REMARK    8  A    between atoms: C_14  and  O_15
REMARK    9  A    between atoms: C_18  and  C_19
REMARK   10  A    between atoms: C_22  and  N_27
REMARK                            x       y       z     vdW  Elec       q    Type
REMARK                         _______ _______ _______ _____ _____    ______ ____
ROOT
ATOM      1  C   UNL     1      34.675 -19.161 -21.167  0.00  0.00    +0.048 C 
ATOM      2  C   UNL     1      33.541 -19.792 -20.644  0.00  0.00    +0.015 C 
ATOM      3  C   UNL     1      35.927 -19.414 -20.596  0.00  0.00    +0.015 C 
ATOM      4  C   UNL     1      34.909 -20.911 -18.997  0.00  0.00    +0.000 C 
ATOM      5  C   UNL     1      33.658 -20.664 -19.561  0.00  0.00    +0.001 C 
ATOM      6  C   UNL     1      36.043 -20.286 -19.514  0.00  0.00    +0.001 C 
ENDROOT
BRANCH   1   7
ATOM      7  N   UNL     1      34.558 -18.284 -22.255  0.00  0.00    -0.306 N 
ATOM      8  C   UNL     1      33.771 -18.672 -23.426  0.00  0.00    +0.112 C 
BRANCH   7   9
ATOM      9  C   UNL     1      35.188 -16.986 -22.247  0.00  0.00    +0.091 C 
BRANCH   9  10
ATOM     10  C   UNL     1      34.422 -16.007 -21.361  0.00  0.00    +0.022 C 
BRANCH  10  11
ATOM     11  C   UNL     1      33.929 -14.772 -22.126  0.00  0.00    +0.013 C 
BRANCH  11  12
ATOM     12  C   UNL     1      34.385 -14.772 -23.583  0.00  0.00    +0.109 C 
BRANCH  12  14
ATOM     13  O   UNL     1      33.088 -15.387 -25.526  0.00  0.00    -0.250 OA
ATOM     14  C   UNL     1      33.231 -14.664 -24.548  0.00  0.00    +0.314 C 
BRANCH  14  15
ATOM     15  O   UNL     1      32.360 -13.680 -24.213  0.00  0.00    -0.480 OA
ATOM     16  H   UNL     1      32.569 -13.086 -23.520  0.00  0.00    +0.295 HD
ENDBRANCH  14  15
ENDBRANCH  12  14
ENDBRANCH  11  12
ENDBRANCH  10  11
ENDBRANCH   9  10
ENDBRANCH   7   9
ENDBRANCH   1   7
BRANCH   4  17
ATOM     17  C   UNL     1      35.030 -21.820 -17.868  0.00  0.00    +0.000 C 
ATOM     18  C   UNL     1      35.974 -21.743 -16.901  0.00  0.00    +0.000 C 
BRANCH  18  19
ATOM     19  C   UNL     1      36.085 -22.653 -15.747  0.00  0.00    +0.000 C 
ATOM     20  C   UNL     1      34.937 -23.219 -15.216  0.00  0.00    +0.002 C 
ATOM     21  C   UNL     1      37.335 -22.929 -15.219  0.00  0.00    +0.002 C 
ATOM     22  C   UNL     1      36.294 -24.369 -13.582  0.00  0.00    +0.143 C 
ATOM     23  C   UNL     1      35.042 -24.082 -14.125  0.00  0.00    +0.024 C 
ATOM     24  C   UNL     1      37.441 -23.793 -14.128  0.00  0.00    +0.024 C 
BRANCH  22  27
ATOM     25  O   UNL     1      37.177 -26.233 -12.549  0.00  0.00    -0.126 OA
ATOM     26  O   UNL     1      35.724 -25.013 -11.442  0.00  0.00    -0.126 OA
ATOM     27  N   UNL     1      36.403 -25.247 -12.471  0.00  0.00    +0.058 N 
ENDBRANCH  22  27
ENDBRANCH  18  19
ENDBRANCH   4  17
TORSDOF 10
ENDMDL
MODEL 3
REMARK VINA RESULT:     -10.9      2.352     11.048
REMARK  Name = 11963512
REMARK  10 active torsions:
REMARK  status: ('A' for Active; 'I' for Inactive)
REMARK    1  A    between atoms: C_1  and  N_7
REMARK    2  A    between atoms: C_4  and  C_17
REMARK    3  A    between atoms: N_7  and  C_9
REMARK    4  A    between atoms: C_9  and  C_10
REMARK    5  A    between atoms: C_10  and  C_11
REMARK    6  A    between atoms: C_11  and  C_12
REMARK    7  A    between atoms: C_12  and  C_14
REMARK    8  A    between atoms: C_14  and  O_15
REMARK    9  A    between atoms: C_18  and  C_19
REMARK   10  A    between atoms: C_22  and  N_27
REMARK                            x       y       z     vdW  Elec       q    Type
REMARK                         _______ _______ _______ _____ _____    ______ ____
ROOT
ATOM      1  C   UNL     1      34.622 -18.464 -21.788  0.00  0.00    +0.048 C 
ATOM      2  C   UNL     1      35.904 -18.588 -21.240  0.00  0.00    +0.015 C 
ATOM      3  C   UNL     1      33.588 -19.271 -21.302  0.00  0.00    +0.015 C 
ATOM      4  C   UNL     1      35.112 -20.310 -19.743  0.00  0.00    +0.000 C 
ATOM      5  C   UNL     1      36.148 -19.508 -20.221  0.00  0.00    +0.001 C 
ATOM      6  C   UNL     1      33.832 -20.191 -20.283  0.00  0.00    +0.001 C 
ENDROOT
BRANCH   1   7
ATOM      7  N   UNL     1      34.376 -17.540 -22.812  0.00  0.00    -0.306 N 
ATOM      8  C   UNL     1      33.775 -17.985 -24.071  0.00  0.00    +0.112 C 
BRANCH   7   9
ATOM      9  C   UNL     1      34.689 -16.140 -22.654  0.00  0.00    +0.091 C 
BRANCH   9  10
ATOM     10  C   UNL     1      34.247 -15.627 -21.286  0.00  0.00    +0.022 C 
BRANCH  10  11
ATOM     11  C   UNL     1      33.850 -14.146 -21.305  0.00  0.00    +0.013 C 
BRANCH  11  12
ATOM     12  C   UNL     1      33.805 -13.575 -22.721  0.00  0.00    +0.109 C 
BRANCH  12  14
ATOM     13  O   UNL     1      32.030 -12.019 -22.203  0.00  0.00    -0.250 OA
ATOM     14  C   UNL     1      33.081 -12.253 -22.786  0.00  0.00    +0.314 C 
BRANCH  14  15
ATOM     15  O   UNL     1      33.725 -11.343 -23.558  0.00  0.00    -0.480 OA
ATOM     16  H   UNL     1      33.660 -11.391 -24.492  0.00  0.00    +0.295 HD
ENDBRANCH  14  15
ENDBRANCH  12  14
ENDBRANCH  11  12
ENDBRANCH  10  11
ENDBRANCH   9  10
ENDBRANCH   7   9
ENDBRANCH   1   7
BRANCH   4  17
ATOM     17  C   UNL     1      35.367 -21.269 -18.679  0.00  0.00    +0.000 C 
ATOM     18  C   UNL     1      36.105 -21.028 -17.570  0.00  0.00    +0.000 C 
BRANCH  18  19
ATOM     19  C   UNL     1      36.347 -21.994 -16.484  0.00  0.00    +0.000 C 
ATOM     20  C   UNL     1      37.643 -22.209 -16.044  0.00  0.00    +0.002 C 
ATOM     21  C   UNL     1      35.273 -22.665 -15.922  0.00  0.00    +0.002 C 
ATOM     22  C   UNL     1      36.801 -23.805 -14.438  0.00  0.00    +0.143 C 
ATOM     23  C   UNL     1      37.872 -23.122 -15.013  0.00  0.00    +0.024 C 
ATOM     24  C   UNL     1      35.502 -23.577 -14.891  0.00  0.00    +0.024 C 
BRANCH  22  27
ATOM     25  O   UNL     1      36.905 -25.962 -13.626  0.00  0.00    -0.126 OA
ATOM     26  O   UNL     1      37.359 -24.305 -12.257  0.00  0.00    -0.126 OA
ATOM     27  N   UNL     1      37.033 -24.735 -13.389  0.00  0.00    +0.058 N 
ENDBRANCH  22  27
ENDBRANCH  18  19
ENDBRANCH   4  17
TORSDOF 10
ENDMDL
MODEL 4
REMARK VINA RESULT:     -10.7      5.794      8.789
REMARK  Name = 11963512
REMARK  10 active torsions:
REMARK  status: ('A' for Active; 'I' for Inactive)
REMARK    1  A    between atoms: C_1  and  N_7
REMARK    2  A    between atoms: C_4  and  C_17
REMARK    3  A    between atoms: N_7  and  C_9
REMARK    4  A    between atoms: C_9  and  C_10
REMARK    5  A    between atoms: C_10  and  C_11
REMARK    6  A    between atoms: C_11  and  C_12
REMARK    7  A    between atoms: C_12  and  C_14
REMARK    8  A    between atoms: C_14  and  O_15
REMARK    9  A    between atoms: C_18  and  C_19
REMARK   10  A    between atoms: C_22  and  N_27
REMARK                            x       y       z     vdW  Elec       q    Type
REMARK                         _______ _______ _______ _____ _____    ______ ____
ROOT
ATOM      1  C   UNL     1      34.550 -17.078 -22.214  0.00  0.00    +0.048 C 
ATOM      2  C   UNL     1      34.417 -16.357 -21.023  0.00  0.00    +0.015 C 
ATOM      3  C   UNL     1      34.329 -16.433 -23.436  0.00  0.00    +0.015 C 
ATOM      4  C   UNL     1      33.844 -14.372 -22.274  0.00  0.00    +0.000 C 
ATOM      5  C   UNL     1      34.064 -15.008 -21.053  0.00  0.00    +0.001 C 
ATOM      6  C   UNL     1      33.976 -15.084 -23.466  0.00  0.00    +0.001 C 
ENDROOT
BRANCH   1   7
ATOM      7  N   UNL     1      34.905 -18.434 -22.184  0.00  0.00    -0.306 N 
ATOM      8  C   UNL     1      34.604 -19.294 -23.331  0.00  0.00    +0.112 C 
BRANCH   7   9
ATOM      9  C   UNL     1      35.580 -19.011 -21.047  0.00  0.00    +0.091 C 
BRANCH   9  10
ATOM     10  C   UNL     1      34.713 -20.071 -20.370  0.00  0.00    +0.022 C 
BRANCH  10  11
ATOM     11  C   UNL     1      35.490 -20.910 -19.348  0.00  0.00    +0.013 C 
BRANCH  11  12
ATOM     12  C   UNL     1      34.573 -21.567 -18.319  0.00  0.00    +0.109 C 
BRANCH  12  14
ATOM     13  O   UNL     1      33.599 -23.446 -19.485  0.00  0.00    -0.250 OA
ATOM     14  C   UNL     1      33.454 -22.349 -18.960  0.00  0.00    +0.314 C 
BRANCH  14  15
ATOM     15  O   UNL     1      32.261 -21.708 -18.888  0.00  0.00    -0.480 OA
ATOM     16  H   UNL     1      32.015 -21.263 -18.102  0.00  0.00    +0.295 HD
ENDBRANCH  14  15
ENDBRANCH  12  14
ENDBRANCH  11  12
ENDBRANCH  10  11
ENDBRANCH   9  10
ENDBRANCH   7   9
ENDBRANCH   1   7
BRANCH   4  17
ATOM     17  C   UNL     1      33.476 -12.965 -22.306  0.00  0.00    +0.000 C 
ATOM     18  C   UNL     1      32.277 -12.462 -21.930  0.00  0.00    +0.000 C 
BRANCH  18  19
ATOM     19  C   UNL     1      31.912 -11.034 -21.943  0.00  0.00    +0.000 C 
ATOM     20  C   UNL     1      32.269 -10.253 -23.030  0.00  0.00    +0.002 C 
ATOM     21  C   UNL     1      31.215 -10.503 -20.871  0.00  0.00    +0.002 C 
ATOM     22  C   UNL     1      31.220  -8.352 -21.971  0.00  0.00    +0.143 C 
ATOM     23  C   UNL     1      31.921  -8.901 -23.044  0.00  0.00    +0.024 C 
ATOM     24  C   UNL     1      30.867  -9.152 -20.885  0.00  0.00    +0.024 C 
BRANCH  22  27
ATOM     25  O   UNL     1      31.144  -6.268 -20.984  0.00  0.00    -0.126 OA
ATOM     26  O   UNL     1      30.287  -6.507 -22.992  0.00  0.00    -0.126 OA
ATOM     27  N   UNL     1      30.866  -6.976 -21.983  0.00  0.00    +0.058 N 
ENDBRANCH  22  27
ENDBRANCH  18  19
ENDBRANCH   4  17
TORSDOF 10
ENDMDL
MODEL 5
REMARK VINA RESULT:     -10.7      1.329      2.164
REMARK  Name = 11963512
REMARK  10 active torsions:
REMARK  status: ('A' for Active; 'I' for Inactive)
REMARK    1  A    between atoms: C_1  and  N_7
REMARK    2  A    between atoms: C_4  and  C_17
REMARK    3  A    between atoms: N_7  and  C_9
REMARK    4  A    between atoms: C_9  and  C_10
REMARK    5  A    between atoms: C_10  and  C_11
REMARK    6  A    between atoms: C_11  and  C_12
REMARK    7  A    between atoms: C_12  and  C_14
REMARK    8  A    between atoms: C_14  and  O_15
REMARK    9  A    between atoms: C_18  and  C_19
REMARK   10  A    between atoms: C_22  and  N_27
REMARK                            x       y       z     vdW  Elec       q    Type
REMARK                         _______ _______ _______ _____ _____    ______ ____
ROOT
ATOM      1  C   UNL     1      35.455 -22.743 -16.110  0.00  0.00    +0.048 C 
ATOM      2  C   UNL     1      36.407 -21.954 -16.765  0.00  0.00    +0.015 C 
ATOM      3  C   UNL     1      34.148 -22.796 -16.606  0.00  0.00    +0.015 C 
ATOM      4  C   UNL     1      34.751 -21.282 -18.389  0.00  0.00    +0.000 C 
ATOM      5  C   UNL     1      36.056 -21.225 -17.901  0.00  0.00    +0.001 C 
ATOM      6  C   UNL     1      33.797 -22.067 -17.742  0.00  0.00    +0.001 C 
ENDROOT
BRANCH   1   7
ATOM      7  N   UNL     1      35.808 -23.476 -14.968  0.00  0.00    -0.306 N 
ATOM      8  C   UNL     1      35.443 -24.890 -14.864  0.00  0.00    +0.112 C 
BRANCH   7   9
ATOM      9  C   UNL     1      36.544 -22.872 -13.883  0.00  0.00    +0.091 C 
BRANCH   9  10
ATOM     10  C   UNL     1      35.676 -22.742 -12.634  0.00  0.00    +0.022 C 
BRANCH  10  11
ATOM     11  C   UNL     1      36.308 -23.397 -11.399  0.00  0.00    +0.013 C 
BRANCH  11  12
ATOM     12  C   UNL     1      37.675 -24.007 -11.701  0.00  0.00    +0.109 C 
BRANCH  12  14
ATOM     13  O   UNL     1      36.743 -26.234 -11.590  0.00  0.00    -0.250 OA
ATOM     14  C   UNL     1      37.588 -25.473 -12.046  0.00  0.00    +0.314 C 
BRANCH  14  15
ATOM     15  O   UNL     1      38.547 -25.860 -12.924  0.00  0.00    -0.480 OA
ATOM     16  H   UNL     1      38.671 -25.385 -13.721  0.00  0.00    +0.295 HD
ENDBRANCH  14  15
ENDBRANCH  12  14
ENDBRANCH  11  12
ENDBRANCH  10  11
ENDBRANCH   9  10
ENDBRANCH   7   9
ENDBRANCH   1   7
BRANCH   4  17
ATOM     17  C   UNL     1      34.385 -20.522 -19.574  0.00  0.00    +0.000 C 
ATOM     18  C   UNL     1      35.079 -19.474 -20.076  0.00  0.00    +0.000 C 
BRANCH  18  19
ATOM     19  C   UNL     1      34.719 -18.717 -21.287  0.00  0.00    +0.000 C 
ATOM     20  C   UNL     1      34.081 -19.369 -22.330  0.00  0.00    +0.002 C 
ATOM     21  C   UNL     1      35.022 -17.368 -21.358  0.00  0.00    +0.002 C 
ATOM     22  C   UNL     1      34.037 -17.292 -23.563  0.00  0.00    +0.143 C 
ATOM     23  C   UNL     1      33.738 -18.652 -23.477  0.00  0.00    +0.024 C 
ATOM     24  C   UNL     1      34.678 -16.650 -22.505  0.00  0.00    +0.024 C 
BRANCH  22  27
ATOM     25  O   UNL     1      34.466 -15.665 -25.140  0.00  0.00    -0.126 OA
ATOM     26  O   UNL     1      32.614 -16.831 -25.319  0.00  0.00    -0.126 OA
ATOM     27  N   UNL     1      33.688 -16.561 -24.730  0.00  0.00    +0.058 N 
ENDBRANCH  22  27
ENDBRANCH  18  19
ENDBRANCH   4  17
TORSDOF 10
ENDMDL
MODEL 6
REMARK VINA RESULT:     -10.6      5.943      8.983
REMARK  Name = 11963512
REMARK  10 active torsions:
REMARK  status: ('A' for Active; 'I' for Inactive)
REMARK    1  A    between atoms: C_1  and  N_7
REMARK    2  A    between atoms: C_4  and  C_17
REMARK    3  A    between atoms: N_7  and  C_9
REMARK    4  A    between atoms: C_9  and  C_10
REMARK    5  A    between atoms: C_10  and  C_11
REMARK    6  A    between atoms: C_11  and  C_12
REMARK    7  A    between atoms: C_12  and  C_14
REMARK    8  A    between atoms: C_14  and  O_15
REMARK    9  A    between atoms: C_18  and  C_19
REMARK   10  A    between atoms: C_22  and  N_27
REMARK                            x       y       z     vdW  Elec       q    Type
REMARK                         _______ _______ _______ _____ _____    ______ ____
ROOT
ATOM      1  C   UNL     1      34.675 -16.654 -21.898  0.00  0.00    +0.048 C 
ATOM      2  C   UNL     1      34.340 -15.901 -20.768  0.00  0.00    +0.015 C 
ATOM      3  C   UNL     1      34.603 -16.063 -23.163  0.00  0.00    +0.015 C 
ATOM      4  C   UNL     1      33.867 -13.989 -22.166  0.00  0.00    +0.000 C 
ATOM      5  C   UNL     1      33.937 -14.572 -20.901  0.00  0.00    +0.001 C 
ATOM      6  C   UNL     1      34.200 -14.734 -23.297  0.00  0.00    +0.001 C 
ENDROOT
BRANCH   1   7
ATOM      7  N   UNL     1      35.080 -17.990 -21.764  0.00  0.00    -0.306 N 
ATOM      8  C   UNL     1      36.497 -18.310 -21.581  0.00  0.00    +0.112 C 
BRANCH   7   9
ATOM      9  C   UNL     1      34.125 -19.072 -21.785  0.00  0.00    +0.091 C 
BRANCH   9  10
ATOM     10  C   UNL     1      34.053 -19.770 -20.429  0.00  0.00    +0.022 C 
BRANCH  10  11
ATOM     11  C   UNL     1      32.697 -20.441 -20.177  0.00  0.00    +0.013 C 
BRANCH  11  12
ATOM     12  C   UNL     1      32.617 -21.092 -18.798  0.00  0.00    +0.109 C 
BRANCH  12  14
ATOM     13  O   UNL     1      34.614 -22.077 -17.859  0.00  0.00    -0.250 OA
ATOM     14  C   UNL     1      33.652 -22.173 -18.612  0.00  0.00    +0.314 C 
BRANCH  14  15
ATOM     15  O   UNL     1      33.400 -23.272 -19.365  0.00  0.00    -0.480 OA
ATOM     16  H   UNL     1      34.108 -23.810 -19.660  0.00  0.00    +0.295 HD
ENDBRANCH  14  15
ENDBRANCH  12  14
ENDBRANCH  11  12
ENDBRANCH  10  11
ENDBRANCH   9  10
ENDBRANCH   7   9
ENDBRANCH   1   7
BRANCH   4  17
ATOM     17  C   UNL     1      33.448 -12.603 -22.306  0.00  0.00    +0.000 C 
ATOM     18  C   UNL     1      32.267 -12.098 -21.878  0.00  0.00    +0.000 C 
BRANCH  18  19
ATOM     19  C   UNL     1      31.850 -10.690 -22.002  0.00  0.00    +0.000 C 
ATOM     20  C   UNL     1      31.287 -10.051 -20.909  0.00  0.00    +0.002 C 
ATOM     21  C   UNL     1      32.034 -10.032 -23.207  0.00  0.00    +0.002 C 
ATOM     22  C   UNL     1      31.071  -8.041 -22.233  0.00  0.00    +0.143 C 
ATOM     23  C   UNL     1      30.894  -8.717 -21.026  0.00  0.00    +0.024 C 
ATOM     24  C   UNL     1      31.641  -8.698 -23.324  0.00  0.00    +0.024 C 
BRANCH  22  27
ATOM     25  O   UNL     1      30.399  -6.230 -23.492  0.00  0.00    -0.126 OA
ATOM     26  O   UNL     1      30.600  -5.977 -21.320  0.00  0.00    -0.126 OA
ATOM     27  N   UNL     1      30.671  -6.684 -22.354  0.00  0.00    +0.058 N 
ENDBRANCH  22  27
ENDBRANCH  18  19
ENDBRANCH   4  17
TORSDOF 10
ENDMDL
MODEL 7
REMARK VINA RESULT:      -9.9      6.918     10.448
REMARK  Name = 11963512
REMARK  10 active torsions:
REMARK  status: ('A' for Active; 'I' for Inactive)
REMARK    1  A    between atoms: C_1  and  N_7
REMARK    2  A    between atoms: C_4  and  C_17
REMARK    3  A    between atoms: N_7  and  C_9
REMARK    4  A    between atoms: C_9  and  C_10
REMARK    5  A    between atoms: C_10  and  C_11
REMARK    6  A    between atoms: C_11  and  C_12
REMARK    7  A    between atoms: C_12  and  C_14
REMARK    8  A    between atoms: C_14  and  O_15
REMARK    9  A    between atoms: C_18  and  C_19
REMARK   10  A    between atoms: C_22  and  N_27
REMARK                            x       y       z     vdW  Elec       q    Type
REMARK                         _______ _______ _______ _____ _____    ______ ____
ROOT
ATOM      1  C   UNL     1      33.803 -15.207 -23.290  0.00  0.00    +0.048 C 
ATOM      2  C   UNL     1      34.014 -14.469 -22.120  0.00  0.00    +0.015 C 
ATOM      3  C   UNL     1      33.235 -14.580 -24.404  0.00  0.00    +0.015 C 
ATOM      4  C   UNL     1      33.092 -12.503 -23.179  0.00  0.00    +0.000 C 
ATOM      5  C   UNL     1      33.659 -13.121 -22.065  0.00  0.00    +0.001 C 
ATOM      6  C   UNL     1      32.880 -13.232 -24.349  0.00  0.00    +0.001 C 
ENDROOT
BRANCH   1   7
ATOM      7  N   UNL     1      34.160 -16.562 -23.346  0.00  0.00    -0.306 N 
ATOM      8  C   UNL     1      33.660 -17.405 -24.433  0.00  0.00    +0.112 C 
BRANCH   7   9
ATOM      9  C   UNL     1      35.029 -17.153 -22.357  0.00  0.00    +0.091 C 
BRANCH   9  10
ATOM     10  C   UNL     1      34.644 -18.605 -22.083  0.00  0.00    +0.022 C 
BRANCH  10  11
ATOM     11  C   UNL     1      35.178 -19.117 -20.739  0.00  0.00    +0.013 C 
BRANCH  11  12
ATOM     12  C   UNL     1      34.497 -20.411 -20.298  0.00  0.00    +0.109 C 
BRANCH  12  14
ATOM     13  O   UNL     1      36.127 -20.544 -18.520  0.00  0.00    -0.250 OA
ATOM     14  C   UNL     1      35.149 -21.020 -19.082  0.00  0.00    +0.314 C 
BRANCH  14  15
ATOM     15  O   UNL     1      34.529 -22.154 -18.670  0.00  0.00    -0.480 OA
ATOM     16  H   UNL     1      33.726 -22.102 -18.192  0.00  0.00    +0.295 HD
ENDBRANCH  14  15
ENDBRANCH  12  14
ENDBRANCH  11  12
ENDBRANCH  10  11
ENDBRANCH   9  10
ENDBRANCH   7   9
ENDBRANCH   1   7
BRANCH   4  17
ATOM     17  C   UNL     1      32.723 -11.098 -23.122  0.00  0.00    +0.000 C 
ATOM     18  C   UNL     1      31.843 -10.556 -22.247  0.00  0.00    +0.000 C 
BRANCH  18  19
ATOM     19  C   UNL     1      31.483  -9.129 -22.177  0.00  0.00    +0.000 C 
ATOM     20  C   UNL     1      31.570  -8.467 -20.962  0.00  0.00    +0.002 C 
ATOM     21  C   UNL     1      31.069  -8.477 -23.326  0.00  0.00    +0.002 C 
ATOM     22  C   UNL     1      30.812  -6.444 -22.044  0.00  0.00    +0.143 C 
ATOM     23  C   UNL     1      31.231  -7.115 -20.896  0.00  0.00    +0.024 C 
ATOM     24  C   UNL     1      30.731  -7.124 -23.259  0.00  0.00    +0.024 C 
BRANCH  22  27
ATOM     25  O   UNL     1      30.401  -4.406 -23.043  0.00  0.00    -0.126 OA
ATOM     26  O   UNL     1      30.236  -4.553 -20.858  0.00  0.00    -0.126 OA
ATOM     27  N   UNL     1      30.467  -5.068 -21.978  0.00  0.00    +0.058 N 
ENDBRANCH  22  27
ENDBRANCH  18  19
ENDBRANCH   4  17
TORSDOF 10
ENDMDL
MODEL 8
REMARK VINA RESULT:      -9.7      7.947     14.546
REMARK  Name = 11963512
REMARK  10 active torsions:
REMARK  status: ('A' for Active; 'I' for Inactive)
REMARK    1  A    between atoms: C_1  and  N_7
REMARK    2  A    between atoms: C_4  and  C_17
REMARK    3  A    between atoms: N_7  and  C_9
REMARK    4  A    between atoms: C_9  and  C_10
REMARK    5  A    between atoms: C_10  and  C_11
REMARK    6  A    between atoms: C_11  and  C_12
REMARK    7  A    between atoms: C_12  and  C_14
REMARK    8  A    between atoms: C_14  and  O_15
REMARK    9  A    between atoms: C_18  and  C_19
REMARK   10  A    between atoms: C_22  and  N_27
REMARK                            x       y       z     vdW  Elec       q    Type
REMARK                         _______ _______ _______ _____ _____    ______ ____
ROOT
ATOM      1  C   UNL     1      31.289  -7.980 -23.247  0.00  0.00    +0.048 C 
ATOM      2  C   UNL     1      30.426  -8.794 -22.506  0.00  0.00    +0.015 C 
ATOM      3  C   UNL     1      32.553  -8.464 -23.603  0.00  0.00    +0.015 C 
ATOM      4  C   UNL     1      32.083 -10.551 -22.481  0.00  0.00    +0.000 C 
ATOM      5  C   UNL     1      30.822 -10.075 -22.124  0.00  0.00    +0.001 C 
ATOM      6  C   UNL     1      32.949  -9.745 -23.220  0.00  0.00    +0.001 C 
ENDROOT
BRANCH   1   7
ATOM      7  N   UNL     1      30.892  -6.691 -23.632  0.00  0.00    -0.306 N 
ATOM      8  C   UNL     1      31.247  -6.181 -24.957  0.00  0.00    +0.112 C 
BRANCH   7   9
ATOM      9  C   UNL     1      30.118  -5.848 -22.752  0.00  0.00    +0.091 C 
BRANCH   9  10
ATOM     10  C   UNL     1      30.855  -4.546 -22.448  0.00  0.00    +0.022 C 
BRANCH  10  11
ATOM     11  C   UNL     1      31.822  -4.673 -21.264  0.00  0.00    +0.013 C 
BRANCH  11  12
ATOM     12  C   UNL     1      31.279  -5.583 -20.165  0.00  0.00    +0.109 C 
BRANCH  12  14
ATOM     13  O   UNL     1      31.883  -7.694 -19.156  0.00  0.00    -0.250 OA
ATOM     14  C   UNL     1      32.173  -6.770 -19.906  0.00  0.00    +0.314 C 
BRANCH  14  15
ATOM     15  O   UNL     1      33.336  -6.710 -20.602  0.00  0.00    -0.480 OA
ATOM     16  H   UNL     1      33.321  -6.699 -21.538  0.00  0.00    +0.295 HD
ENDBRANCH  14  15
ENDBRANCH  12  14
ENDBRANCH  11  12
ENDBRANCH  10  11
ENDBRANCH   9  10
ENDBRANCH   7   9
ENDBRANCH   1   7
BRANCH   4  17
ATOM     17  C   UNL     1      32.496 -11.887 -22.082  0.00  0.00    +0.000 C 
ATOM     18  C   UNL     1      33.373 -12.668 -22.756  0.00  0.00    +0.000 C 
BRANCH  18  19
ATOM     19  C   UNL     1      33.805 -14.014 -22.342  0.00  0.00    +0.000 C 
ATOM     20  C   UNL     1      34.219 -14.919 -23.306  0.00  0.00    +0.002 C 
ATOM     21  C   UNL     1      33.793 -14.346 -20.998  0.00  0.00    +0.002 C 
ATOM     22  C   UNL     1      34.624 -16.543 -21.564  0.00  0.00    +0.143 C 
ATOM     23  C   UNL     1      34.631 -16.194 -22.914  0.00  0.00    +0.024 C 
ATOM     24  C   UNL     1      34.206 -15.620 -20.606  0.00  0.00    +0.024 C 
BRANCH  22  27
ATOM     25  O   UNL     1      36.066 -17.953 -20.444  0.00  0.00    -0.126 OA
ATOM     26  O   UNL     1      34.378 -18.836 -21.537  0.00  0.00    -0.126 OA
ATOM     27  N   UNL     1      35.043 -17.840 -21.163  0.00  0.00    +0.058 N 
ENDBRANCH  22  27
ENDBRANCH  18  19
ENDBRANCH   4  17
TORSDOF 10
ENDMDL
MODEL 9
REMARK VINA RESULT:      -9.7      7.639     14.561
REMARK  Name = 11963512
REMARK  10 active torsions:
REMARK  status: ('A' for Active; 'I' for Inactive)
REMARK    1  A    between atoms: C_1  and  N_7
REMARK    2  A    between atoms: C_4  and  C_17
REMARK    3  A    between atoms: N_7  and  C_9
REMARK    4  A    between atoms: C_9  and  C_10
REMARK    5  A    between atoms: C_10  and  C_11
REMARK    6  A    between atoms: C_11  and  C_12
REMARK    7  A    between atoms: C_12  and  C_14
REMARK    8  A    between atoms: C_14  and  O_15
REMARK    9  A    between atoms: C_18  and  C_19
REMARK   10  A    between atoms: C_22  and  N_27
REMARK                            x       y       z     vdW  Elec       q    Type
REMARK                         _______ _______ _______ _____ _____    ______ ____
ROOT
ATOM      1  C   UNL     1      31.238  -8.521 -22.062  0.00  0.00    +0.048 C 
ATOM      2  C   UNL     1      31.983  -9.028 -23.133  0.00  0.00    +0.015 C 
ATOM      3  C   UNL     1      30.850  -9.380 -21.028  0.00  0.00    +0.015 C 
ATOM      4  C   UNL     1      31.943 -11.228 -22.136  0.00  0.00    +0.000 C 
ATOM      5  C   UNL     1      32.334 -10.377 -23.170  0.00  0.00    +0.001 C 
ATOM      6  C   UNL     1      31.201 -10.729 -21.066  0.00  0.00    +0.001 C 
ENDROOT
BRANCH   1   7
ATOM      7  N   UNL     1      30.885  -7.165 -22.025  0.00  0.00    -0.306 N 
ATOM      8  C   UNL     1      31.229  -6.351 -20.857  0.00  0.00    +0.112 C 
BRANCH   7   9
ATOM      9  C   UNL     1      30.196  -6.535 -23.125  0.00  0.00    +0.091 C 
BRANCH   9  10
ATOM     10  C   UNL     1      30.558  -5.055 -23.228  0.00  0.00    +0.022 C 
BRANCH  10  11
ATOM     11  C   UNL     1      31.619  -4.776 -24.300  0.00  0.00    +0.013 C 
BRANCH  11  12
ATOM     12  C   UNL     1      33.018  -4.629 -23.708  0.00  0.00    +0.109 C 
BRANCH  12  14
ATOM     13  O   UNL     1      34.096  -6.440 -24.890  0.00  0.00    -0.250 OA
ATOM     14  C   UNL     1      33.830  -5.895 -23.826  0.00  0.00    +0.314 C 
BRANCH  14  15
ATOM     15  O   UNL     1      34.240  -6.365 -22.622  0.00  0.00    -0.480 OA
ATOM     16  H   UNL     1      34.595  -5.777 -21.985  0.00  0.00    +0.295 HD
ENDBRANCH  14  15
ENDBRANCH  12  14
ENDBRANCH  11  12
ENDBRANCH  10  11
ENDBRANCH   9  10
ENDBRANCH   7   9
ENDBRANCH   1   7
BRANCH   4  17
ATOM     17  C   UNL     1      32.309 -12.635 -22.175  0.00  0.00    +0.000 C 
ATOM     18  C   UNL     1      33.574 -13.114 -22.124  0.00  0.00    +0.000 C 
BRANCH  18  19
ATOM     19  C   UNL     1      33.944 -14.540 -22.144  0.00  0.00    +0.000 C 
ATOM     20  C   UNL     1      34.083 -15.188 -23.360  0.00  0.00    +0.002 C 
ATOM     21  C   UNL     1      34.149 -15.204 -20.945  0.00  0.00    +0.002 C 
ATOM     22  C   UNL     1      34.645 -17.220 -22.180  0.00  0.00    +0.143 C 
ATOM     23  C   UNL     1      34.435 -16.539 -23.379  0.00  0.00    +0.024 C 
ATOM     24  C   UNL     1      34.502 -16.554 -20.964  0.00  0.00    +0.024 C 
BRANCH  22  27
ATOM     25  O   UNL     1      34.576 -19.322 -23.127  0.00  0.00    -0.126 OA
ATOM     26  O   UNL     1      35.738 -19.043 -21.285  0.00  0.00    -0.126 OA
ATOM     27  N   UNL     1      35.003 -18.595 -22.198  0.00  0.00    +0.058 N 
ENDBRANCH  22  27
ENDBRANCH  18  19
ENDBRANCH   4  17
TORSDOF 10
ENDMDL
