MODEL 1
REMARK VINA RESULT:     -12.2      0.000      0.000
REMARK  Name = 71727581
REMARK  6 active torsions:
REMARK  status: ('A' for Active; 'I' for Inactive)
REMARK    1  A    between atoms: N_2  and  C_22
REMARK    2  A    between atoms: C_5  and  C_11
REMARK    3  A    between atoms: N_9  and  C_18
REMARK    4  A    between atoms: C_22  and  C_25
REMARK    5  A    between atoms: C_22  and  C_31
REMARK    6  A    between atoms: C_31  and  O_32
REMARK                            x       y       z     vdW  Elec       q    Type
REMARK                         _______ _______ _______ _____ _____    ______ ____
ROOT
ATOM      1  O   UNL     1      32.617 -19.399 -21.757  0.00  0.00    -0.270 OA
ATOM      2  N   UNL     1      34.839 -19.584 -21.057  0.00  0.00    -0.249 N 
ATOM      3  C   UNL     1      33.462 -19.809 -20.963  0.00  0.00    +0.253 C 
ATOM      4  C   UNL     1      35.724 -20.082 -20.118  0.00  0.00    +0.068 C 
ATOM      5  C   UNL     1      33.897 -21.088 -18.890  0.00  0.00    +0.036 C 
ATOM      6  C   UNL     1      33.012 -20.620 -19.789  0.00  0.00    +0.061 C 
ATOM      7  C   UNL     1      35.307 -20.804 -19.073  0.00  0.00    +0.019 C 
ENDROOT
BRANCH   5  11
ATOM      8  N   UNL     1      34.324 -22.435 -16.950  0.00  0.00    -0.337 NA
ATOM      9  N   UNL     1      34.784 -23.745 -15.059  0.00  0.00    -0.234 N 
ATOM     10  N   UNL     1      32.539 -23.383 -15.637  0.00  0.00    -0.170 NA
ATOM     11  C   UNL     1      33.391 -21.888 -17.758  0.00  0.00    +0.146 C 
ATOM     12  C   UNL     1      32.032 -22.043 -17.572  0.00  0.00    +0.055 C 
ATOM     13  C   UNL     1      33.836 -23.158 -15.925  0.00  0.00    +0.149 C 
ATOM     14  C   UNL     1      31.660 -22.807 -16.485  0.00  0.00    +0.114 C 
ATOM     15  H   UNL     1      34.382 -24.264 -14.326  0.00  0.00    +0.166 HD
BRANCH   9  18
ATOM     16  N   UNL     1      36.917 -24.847 -14.736  0.00  0.00    -0.196 N 
ATOM     17  N   UNL     1      38.247 -24.654 -14.766  0.00  0.00    -0.175 NA
ATOM     18  C   UNL     1      36.191 -23.733 -15.039  0.00  0.00    +0.130 C 
ATOM     19  C   UNL     1      37.110 -22.742 -15.285  0.00  0.00    +0.054 C 
ATOM     20  C   UNL     1      36.408 -26.158 -14.400  0.00  0.00    +0.141 C 
ATOM     21  C   UNL     1      38.358 -23.366 -15.102  0.00  0.00    +0.121 C 
ENDBRANCH   9  18
ENDBRANCH   5  11
BRANCH   2  22
ATOM     22  C   UNL     1      35.388 -18.808 -22.161  0.00  0.00    +0.132 C 
BRANCH  22  25
ATOM     23 CL   UNL     1      33.347 -13.141 -22.013  0.00  0.00    -0.080 Cl
ATOM     24  F   UNL     1      33.925 -14.871 -19.676  0.00  0.00    -0.203 F 
ATOM     25  C   UNL     1      34.876 -17.384 -22.122  0.00  0.00    +0.001 C 
ATOM     26  C   UNL     1      34.629 -16.764 -20.896  0.00  0.00    +0.028 C 
ATOM     27  C   UNL     1      34.650 -16.691 -23.311  0.00  0.00    -0.002 C 
ATOM     28  C   UNL     1      34.157 -15.453 -20.861  0.00  0.00    +0.150 C 
ATOM     29  C   UNL     1      34.178 -15.380 -23.276  0.00  0.00    +0.013 C 
ATOM     30  C   UNL     1      33.932 -14.760 -22.050  0.00  0.00    +0.085 C 
ENDBRANCH  22  25
BRANCH  22  31
ATOM     31  C   UNL     1      36.918 -18.880 -22.163  0.00  0.00    +0.162 C 
BRANCH  31  32
ATOM     32  O   UNL     1      37.446 -17.649 -21.679  0.00  0.00    -0.380 OA
ATOM     33  H   UNL     1      38.355 -17.539 -21.999  0.00  0.00    +0.211 HD
ENDBRANCH  31  32
ENDBRANCH  22  31
ENDBRANCH   2  22
TORSDOF 6
ENDMDL
MODEL 2
REMARK VINA RESULT:     -11.3      1.184      1.704
REMARK  Name = 71727581
REMARK  6 active torsions:
REMARK  status: ('A' for Active; 'I' for Inactive)
REMARK    1  A    between atoms: N_2  and  C_22
REMARK    2  A    between atoms: C_5  and  C_11
REMARK    3  A    between atoms: N_9  and  C_18
REMARK    4  A    between atoms: C_22  and  C_25
REMARK    5  A    between atoms: C_22  and  C_31
REMARK    6  A    between atoms: C_31  and  O_32
REMARK                            x       y       z     vdW  Elec       q    Type
REMARK                         _______ _______ _______ _____ _____    ______ ____
ROOT
ATOM      1  O   UNL     1      36.701 -19.945 -20.261  0.00  0.00    -0.270 OA
ATOM      2  N   UNL     1      34.565 -19.487 -21.093  0.00  0.00    -0.249 N 
ATOM      3  C   UNL     1      35.478 -20.057 -20.198  0.00  0.00    +0.253 C 
ATOM      4  C   UNL     1      33.201 -19.662 -20.951  0.00  0.00    +0.068 C 
ATOM      5  C   UNL     1      33.552 -21.015 -18.975  0.00  0.00    +0.036 C 
ATOM      6  C   UNL     1      34.885 -20.861 -19.085  0.00  0.00    +0.061 C 
ATOM      7  C   UNL     1      32.685 -20.385 -19.952  0.00  0.00    +0.019 C 
ENDROOT
BRANCH   5  11
ATOM      8  N   UNL     1      33.949 -22.345 -17.017  0.00  0.00    -0.337 NA
ATOM      9  N   UNL     1      34.379 -23.639 -15.108  0.00  0.00    -0.234 N 
ATOM     10  N   UNL     1      32.145 -23.306 -15.742  0.00  0.00    -0.170 NA
ATOM     11  C   UNL     1      33.029 -21.814 -17.850  0.00  0.00    +0.146 C 
ATOM     12  C   UNL     1      31.668 -21.984 -17.695  0.00  0.00    +0.055 C 
ATOM     13  C   UNL     1      33.445 -23.068 -16.000  0.00  0.00    +0.149 C 
ATOM     14  C   UNL     1      31.279 -22.746 -16.613  0.00  0.00    +0.114 C 
ATOM     15  H   UNL     1      33.966 -24.159 -14.382  0.00  0.00    +0.166 HD
BRANCH   9  18
ATOM     16  N   UNL     1      36.523 -24.746 -14.889  0.00  0.00    -0.196 N 
ATOM     17  N   UNL     1      37.850 -24.532 -14.864  0.00  0.00    -0.175 NA
ATOM     18  C   UNL     1      35.785 -23.611 -15.056  0.00  0.00    +0.130 C 
ATOM     19  C   UNL     1      36.692 -22.583 -15.145  0.00  0.00    +0.054 C 
ATOM     20  C   UNL     1      36.029 -26.097 -14.745  0.00  0.00    +0.141 C 
ATOM     21  C   UNL     1      37.947 -23.210 -15.020  0.00  0.00    +0.121 C 
ENDBRANCH   9  18
ENDBRANCH   5  11
BRANCH   2  22
ATOM     22  C   UNL     1      35.033 -18.683 -22.215  0.00  0.00    +0.132 C 
BRANCH  22  25
ATOM     23 CL   UNL     1      33.445 -12.914 -21.515  0.00  0.00    -0.080 Cl
ATOM     24  F   UNL     1      33.795 -14.349 -24.085  0.00  0.00    -0.203 F 
ATOM     25  C   UNL     1      34.633 -17.234 -22.040  0.00  0.00    +0.001 C 
ATOM     26  C   UNL     1      34.391 -16.437 -23.160  0.00  0.00    +0.028 C 
ATOM     27  C   UNL     1      34.506 -16.694 -20.760  0.00  0.00    -0.002 C 
ATOM     28  C   UNL     1      34.024 -15.102 -22.999  0.00  0.00    +0.150 C 
ATOM     29  C   UNL     1      34.138 -15.359 -20.600  0.00  0.00    +0.013 C 
ATOM     30  C   UNL     1      33.897 -14.563 -21.719  0.00  0.00    +0.085 C 
ENDBRANCH  22  25
BRANCH  22  31
ATOM     31  C   UNL     1      36.542 -18.855 -22.410  0.00  0.00    +0.162 C 
BRANCH  31  32
ATOM     32  O   UNL     1      37.221 -17.760 -21.803  0.00  0.00    -0.380 OA
ATOM     33  H   UNL     1      36.679 -17.404 -21.082  0.00  0.00    +0.211 HD
ENDBRANCH  31  32
ENDBRANCH  22  31
ENDBRANCH   2  22
TORSDOF 6
ENDMDL
MODEL 3
REMARK VINA RESULT:     -11.2      1.847      3.609
REMARK  Name = 71727581
REMARK  6 active torsions:
REMARK  status: ('A' for Active; 'I' for Inactive)
REMARK    1  A    between atoms: N_2  and  C_22
REMARK    2  A    between atoms: C_5  and  C_11
REMARK    3  A    between atoms: N_9  and  C_18
REMARK    4  A    between atoms: C_22  and  C_25
REMARK    5  A    between atoms: C_22  and  C_31
REMARK    6  A    between atoms: C_31  and  O_32
REMARK                            x       y       z     vdW  Elec       q    Type
REMARK                         _______ _______ _______ _____ _____    ______ ____
ROOT
ATOM      1  O   UNL     1      32.172 -20.138 -20.813  0.00  0.00    -0.270 OA
ATOM      2  N   UNL     1      34.428 -19.695 -21.232  0.00  0.00    -0.249 N 
ATOM      3  C   UNL     1      33.357 -20.199 -20.488  0.00  0.00    +0.253 C 
ATOM      4  C   UNL     1      35.735 -19.804 -20.793  0.00  0.00    +0.068 C 
ATOM      5  C   UNL     1      34.996 -20.951 -18.794  0.00  0.00    +0.036 C 
ATOM      6  C   UNL     1      33.715 -20.863 -19.196  0.00  0.00    +0.061 C 
ATOM      7  C   UNL     1      36.040 -20.398 -19.635  0.00  0.00    +0.019 C 
ENDROOT
BRANCH   5  11
ATOM      8  N   UNL     1      34.220 -22.114 -16.844  0.00  0.00    -0.337 NA
ATOM      9  N   UNL     1      33.421 -23.248 -14.952  0.00  0.00    -0.234 N 
ATOM     10  N   UNL     1      35.732 -22.885 -15.133  0.00  0.00    -0.170 NA
ATOM     11  C   UNL     1      35.285 -21.624 -17.513  0.00  0.00    +0.146 C 
ATOM     12  C   UNL     1      36.585 -21.725 -17.062  0.00  0.00    +0.055 C 
ATOM     13  C   UNL     1      34.512 -22.723 -15.679  0.00  0.00    +0.149 C 
ATOM     14  C   UNL     1      36.751 -22.372 -15.854  0.00  0.00    +0.114 C 
ATOM     15  H   UNL     1      33.681 -23.683 -14.108  0.00  0.00    +0.166 HD
BRANCH   9  18
ATOM     16  N   UNL     1      31.169 -23.929 -14.375  0.00  0.00    -0.196 N 
ATOM     17  N   UNL     1      29.883 -23.844 -14.761  0.00  0.00    -0.175 NA
ATOM     18  C   UNL     1      32.035 -23.270 -15.197  0.00  0.00    +0.130 C 
ATOM     19  C   UNL     1      31.264 -22.715 -16.189  0.00  0.00    +0.054 C 
ATOM     20  C   UNL     1      31.493 -24.677 -13.181  0.00  0.00    +0.141 C 
ATOM     21  C   UNL     1      29.949 -23.101 -15.869  0.00  0.00    +0.121 C 
ENDBRANCH   9  18
ENDBRANCH   5  11
BRANCH   2  22
ATOM     22  C   UNL     1      34.195 -19.029 -22.507  0.00  0.00    +0.132 C 
BRANCH  22  25
ATOM     23 CL   UNL     1      34.032 -13.049 -21.791  0.00  0.00    -0.080 Cl
ATOM     24  F   UNL     1      33.781 -14.528 -24.347  0.00  0.00    -0.203 F 
ATOM     25  C   UNL     1      34.153 -17.526 -22.328  0.00  0.00    +0.001 C 
ATOM     26  C   UNL     1      33.983 -16.696 -23.437  0.00  0.00    +0.028 C 
ATOM     27  C   UNL     1      34.284 -16.971 -21.056  0.00  0.00    -0.002 C 
ATOM     28  C   UNL     1      33.945 -15.312 -23.272  0.00  0.00    +0.150 C 
ATOM     29  C   UNL     1      34.246 -15.587 -20.891  0.00  0.00    +0.013 C 
ATOM     30  C   UNL     1      34.076 -14.757 -22.000  0.00  0.00    +0.085 C 
ENDBRANCH  22  25
BRANCH  22  31
ATOM     31  C   UNL     1      35.234 -19.467 -23.543  0.00  0.00    +0.162 C 
BRANCH  31  32
ATOM     32  O   UNL     1      34.579 -20.161 -24.600  0.00  0.00    -0.380 OA
ATOM     33  H   UNL     1      34.474 -19.568 -25.360  0.00  0.00    +0.211 HD
ENDBRANCH  31  32
ENDBRANCH  22  31
ENDBRANCH   2  22
TORSDOF 6
ENDMDL
MODEL 4
REMARK VINA RESULT:     -11.0      1.574      3.587
REMARK  Name = 71727581
REMARK  6 active torsions:
REMARK  status: ('A' for Active; 'I' for Inactive)
REMARK    1  A    between atoms: N_2  and  C_22
REMARK    2  A    between atoms: C_5  and  C_11
REMARK    3  A    between atoms: N_9  and  C_18
REMARK    4  A    between atoms: C_22  and  C_25
REMARK    5  A    between atoms: C_22  and  C_31
REMARK    6  A    between atoms: C_31  and  O_32
REMARK                            x       y       z     vdW  Elec       q    Type
REMARK                         _______ _______ _______ _____ _____    ______ ____
ROOT
ATOM      1  O   UNL     1      36.787 -18.934 -21.316  0.00  0.00    -0.270 OA
ATOM      2  N   UNL     1      34.540 -19.580 -21.320  0.00  0.00    -0.249 N 
ATOM      3  C   UNL     1      35.834 -19.512 -20.794  0.00  0.00    +0.253 C 
ATOM      4  C   UNL     1      33.523 -20.252 -20.668  0.00  0.00    +0.068 C 
ATOM      5  C   UNL     1      35.035 -20.856 -18.877  0.00  0.00    +0.036 C 
ATOM      6  C   UNL     1      36.044 -20.207 -19.486  0.00  0.00    +0.061 C 
ATOM      7  C   UNL     1      33.726 -20.871 -19.501  0.00  0.00    +0.019 C 
ENDROOT
BRANCH   5  11
ATOM      8  N   UNL     1      34.229 -22.002 -16.928  0.00  0.00    -0.337 NA
ATOM      9  N   UNL     1      33.400 -23.120 -15.039  0.00  0.00    -0.234 N 
ATOM     10  N   UNL     1      35.713 -22.755 -15.186  0.00  0.00    -0.170 NA
ATOM     11  C   UNL     1      35.304 -21.517 -17.585  0.00  0.00    +0.146 C 
ATOM     12  C   UNL     1      36.597 -21.611 -17.111  0.00  0.00    +0.055 C 
ATOM     13  C   UNL     1      34.502 -22.600 -15.754  0.00  0.00    +0.149 C 
ATOM     14  C   UNL     1      36.744 -22.247 -15.896  0.00  0.00    +0.114 C 
ATOM     15  H   UNL     1      33.647 -23.547 -14.188  0.00  0.00    +0.166 HD
BRANCH   9  18
ATOM     16  N   UNL     1      31.147 -23.845 -14.525  0.00  0.00    -0.196 N 
ATOM     17  N   UNL     1      29.867 -23.758 -14.927  0.00  0.00    -0.175 NA
ATOM     18  C   UNL     1      32.019 -23.146 -15.307  0.00  0.00    +0.130 C 
ATOM     19  C   UNL     1      31.257 -22.562 -16.289  0.00  0.00    +0.054 C 
ATOM     20  C   UNL     1      31.461 -24.635 -13.355  0.00  0.00    +0.141 C 
ATOM     21  C   UNL     1      29.941 -22.972 -16.005  0.00  0.00    +0.121 C 
ENDBRANCH   9  18
ENDBRANCH   5  11
BRANCH   2  22
ATOM     22  C   UNL     1      34.223 -18.937 -22.589  0.00  0.00    +0.132 C 
BRANCH  22  25
ATOM     23 CL   UNL     1      34.038 -12.947 -21.967  0.00  0.00    -0.080 Cl
ATOM     24  F   UNL     1      34.066 -14.949 -19.781  0.00  0.00    -0.203 F 
ATOM     25  C   UNL     1      34.177 -17.432 -22.431  0.00  0.00    +0.001 C 
ATOM     26  C   UNL     1      34.142 -16.865 -21.157  0.00  0.00    +0.028 C 
ATOM     27  C   UNL     1      34.170 -16.612 -23.559  0.00  0.00    -0.002 C 
ATOM     28  C   UNL     1      34.099 -15.479 -21.012  0.00  0.00    +0.150 C 
ATOM     29  C   UNL     1      34.127 -15.226 -23.414  0.00  0.00    +0.013 C 
ATOM     30  C   UNL     1      34.092 -14.659 -22.140  0.00  0.00    +0.085 C 
ENDBRANCH  22  25
BRANCH  22  31
ATOM     31  C   UNL     1      35.203 -19.382 -23.679  0.00  0.00    +0.162 C 
BRANCH  31  32
ATOM     32  O   UNL     1      34.504 -20.149 -24.653  0.00  0.00    -0.380 OA
ATOM     33  H   UNL     1      34.131 -20.940 -24.235  0.00  0.00    +0.211 HD
ENDBRANCH  31  32
ENDBRANCH  22  31
ENDBRANCH   2  22
TORSDOF 6
ENDMDL
MODEL 5
REMARK VINA RESULT:     -10.6      7.314     12.427
REMARK  Name = 71727581
REMARK  6 active torsions:
REMARK  status: ('A' for Active; 'I' for Inactive)
REMARK    1  A    between atoms: N_2  and  C_22
REMARK    2  A    between atoms: C_5  and  C_11
REMARK    3  A    between atoms: N_9  and  C_18
REMARK    4  A    between atoms: C_22  and  C_25
REMARK    5  A    between atoms: C_22  and  C_31
REMARK    6  A    between atoms: C_31  and  O_32
REMARK                            x       y       z     vdW  Elec       q    Type
REMARK                         _______ _______ _______ _____ _____    ______ ____
ROOT
ATOM      1  O   UNL     1      33.532 -12.211 -25.030  0.00  0.00    -0.270 OA
ATOM      2  N   UNL     1      33.318 -13.746 -23.280  0.00  0.00    -0.249 N 
ATOM      3  C   UNL     1      33.226 -12.481 -23.869  0.00  0.00    +0.253 C 
ATOM      4  C   UNL     1      32.952 -13.964 -21.964  0.00  0.00    +0.068 C 
ATOM      5  C   UNL     1      32.362 -11.631 -21.713  0.00  0.00    +0.036 C 
ATOM      6  C   UNL     1      32.707 -11.387 -22.990  0.00  0.00    +0.061 C 
ATOM      7  C   UNL     1      32.492 -12.977 -21.190  0.00  0.00    +0.019 C 
ENDROOT
BRANCH   5  11
ATOM      8  N   UNL     1      31.690  -9.333 -21.538  0.00  0.00    -0.337 NA
ATOM      9  N   UNL     1      31.042  -7.082 -21.411  0.00  0.00    -0.234 N 
ATOM     10  N   UNL     1      30.907  -8.387 -19.465  0.00  0.00    -0.170 NA
ATOM     11  C   UNL     1      31.850 -10.511 -20.899  0.00  0.00    +0.146 C 
ATOM     12  C   UNL     1      31.564 -10.701 -19.562  0.00  0.00    +0.055 C 
ATOM     13  C   UNL     1      31.222  -8.330 -20.774  0.00  0.00    +0.149 C 
ATOM     14  C   UNL     1      31.091  -9.594 -18.888  0.00  0.00    +0.114 C 
ATOM     15  H   UNL     1      30.699  -6.379 -20.813  0.00  0.00    +0.166 HD
BRANCH   9  18
ATOM     16  N   UNL     1      32.495  -6.285 -23.178  0.00  0.00    -0.196 N 
ATOM     17  N   UNL     1      32.516  -5.898 -24.465  0.00  0.00    -0.175 NA
ATOM     18  C   UNL     1      31.258  -6.648 -22.732  0.00  0.00    +0.130 C 
ATOM     19  C   UNL     1      30.411  -6.486 -23.801  0.00  0.00    +0.054 C 
ATOM     20  C   UNL     1      33.729  -6.280 -22.425  0.00  0.00    +0.141 C 
ATOM     21  C   UNL     1      31.240  -6.024 -24.840  0.00  0.00    +0.121 C 
ENDBRANCH   9  18
ENDBRANCH   5  11
BRANCH   2  22
ATOM     22  C   UNL     1      33.809 -14.885 -24.045  0.00  0.00    +0.132 C 
BRANCH  22  25
ATOM     23 CL   UNL     1      35.202 -19.467 -20.389  0.00  0.00    -0.080 Cl
ATOM     24  F   UNL     1      34.358 -19.664 -23.224  0.00  0.00    -0.203 F 
ATOM     25  C   UNL     1      34.160 -16.037 -23.127  0.00  0.00    +0.001 C 
ATOM     26  C   UNL     1      34.099 -17.348 -23.600  0.00  0.00    +0.028 C 
ATOM     27  C   UNL     1      34.543 -15.788 -21.810  0.00  0.00    -0.002 C 
ATOM     28  C   UNL     1      34.421 -18.409 -22.755  0.00  0.00    +0.150 C 
ATOM     29  C   UNL     1      34.866 -16.849 -20.965  0.00  0.00    +0.013 C 
ATOM     30  C   UNL     1      34.805 -18.160 -21.438  0.00  0.00    +0.085 C 
ENDBRANCH  22  25
BRANCH  22  31
ATOM     31  C   UNL     1      32.802 -15.283 -25.127  0.00  0.00    +0.162 C 
BRANCH  31  32
ATOM     32  O   UNL     1      33.064 -14.537 -26.310  0.00  0.00    -0.380 OA
ATOM     33  H   UNL     1      33.742 -14.990 -26.835  0.00  0.00    +0.211 HD
ENDBRANCH  31  32
ENDBRANCH  22  31
ENDBRANCH   2  22
TORSDOF 6
ENDMDL
MODEL 6
REMARK VINA RESULT:     -10.0      6.564     11.804
REMARK  Name = 71727581
REMARK  6 active torsions:
REMARK  status: ('A' for Active; 'I' for Inactive)
REMARK    1  A    between atoms: N_2  and  C_22
REMARK    2  A    between atoms: C_5  and  C_11
REMARK    3  A    between atoms: N_9  and  C_18
REMARK    4  A    between atoms: C_22  and  C_25
REMARK    5  A    between atoms: C_22  and  C_31
REMARK    6  A    between atoms: C_31  and  O_32
REMARK                            x       y       z     vdW  Elec       q    Type
REMARK                         _______ _______ _______ _____ _____    ______ ____
ROOT
ATOM      1  O   UNL     1      33.060 -14.373 -25.625  0.00  0.00    -0.270 OA
ATOM      2  N   UNL     1      33.801 -15.141 -23.545  0.00  0.00    -0.249 N 
ATOM      3  C   UNL     1      33.168 -14.239 -24.406  0.00  0.00    +0.253 C 
ATOM      4  C   UNL     1      33.880 -14.915 -22.184  0.00  0.00    +0.068 C 
ATOM      5  C   UNL     1      32.678 -12.829 -22.434  0.00  0.00    +0.036 C 
ATOM      6  C   UNL     1      32.583 -13.022 -23.762  0.00  0.00    +0.061 C 
ATOM      7  C   UNL     1      33.354 -13.822 -21.621  0.00  0.00    +0.019 C 
ENDROOT
BRANCH   5  11
ATOM      8  N   UNL     1      32.495 -10.436 -22.372  0.00  0.00    -0.337 NA
ATOM      9  N   UNL     1      32.346  -8.095 -22.344  0.00  0.00    -0.234 N 
ATOM     10  N   UNL     1      31.008  -9.310 -20.847  0.00  0.00    -0.170 NA
ATOM     11  C   UNL     1      32.075 -11.611 -21.857  0.00  0.00    +0.146 C 
ATOM     12  C   UNL     1      31.137 -11.714 -20.850  0.00  0.00    +0.055 C 
ATOM     13  C   UNL     1      31.929  -9.343 -21.829  0.00  0.00    +0.149 C 
ATOM     14  C   UNL     1      30.633 -10.519 -20.378  0.00  0.00    +0.114 C 
ATOM     15  H   UNL     1      31.906  -7.325 -21.917  0.00  0.00    +0.166 HD
BRANCH   9  18
ATOM     16  N   UNL     1      33.016  -6.729 -24.228  0.00  0.00    -0.196 N 
ATOM     17  N   UNL     1      34.005  -6.526 -25.117  0.00  0.00    -0.175 NA
ATOM     18  C   UNL     1      33.267  -7.739 -23.347  0.00  0.00    +0.130 C 
ATOM     19  C   UNL     1      34.504  -8.231 -23.680  0.00  0.00    +0.054 C 
ATOM     20  C   UNL     1      31.837  -5.895 -24.292  0.00  0.00    +0.141 C 
ATOM     21  C   UNL     1      34.911  -7.446 -24.776  0.00  0.00    +0.121 C 
ENDBRANCH   9  18
ENDBRANCH   5  11
BRANCH   2  22
ATOM     22  C   UNL     1      34.405 -16.361 -24.066  0.00  0.00    +0.132 C 
BRANCH  22  25
ATOM     23 CL   UNL     1      35.110 -20.437 -19.685  0.00  0.00    -0.080 Cl
ATOM     24  F   UNL     1      36.979 -18.241 -20.370  0.00  0.00    -0.203 F 
ATOM     25  C   UNL     1      34.583 -17.384 -22.964  0.00  0.00    +0.001 C 
ATOM     26  C   UNL     1      35.719 -17.347 -22.154  0.00  0.00    +0.028 C 
ATOM     27  C   UNL     1      33.612 -18.364 -22.759  0.00  0.00    -0.002 C 
ATOM     28  C   UNL     1      35.883 -18.290 -21.140  0.00  0.00    +0.150 C 
ATOM     29  C   UNL     1      33.776 -19.307 -21.745  0.00  0.00    +0.013 C 
ATOM     30  C   UNL     1      34.912 -19.269 -20.935  0.00  0.00    +0.085 C 
ENDBRANCH  22  25
BRANCH  22  31
ATOM     31  C   UNL     1      33.592 -16.905 -25.245  0.00  0.00    +0.162 C 
BRANCH  31  32
ATOM     32  O   UNL     1      32.216 -16.951 -24.884  0.00  0.00    -0.380 OA
ATOM     33  H   UNL     1      32.091 -17.592 -24.167  0.00  0.00    +0.211 HD
ENDBRANCH  31  32
ENDBRANCH  22  31
ENDBRANCH   2  22
TORSDOF 6
ENDMDL
MODEL 7
REMARK VINA RESULT:      -9.5      9.651     13.475
REMARK  Name = 71727581
REMARK  6 active torsions:
REMARK  status: ('A' for Active; 'I' for Inactive)
REMARK    1  A    between atoms: N_2  and  C_22
REMARK    2  A    between atoms: C_5  and  C_11
REMARK    3  A    between atoms: N_9  and  C_18
REMARK    4  A    between atoms: C_22  and  C_25
REMARK    5  A    between atoms: C_22  and  C_31
REMARK    6  A    between atoms: C_31  and  O_32
REMARK                            x       y       z     vdW  Elec       q    Type
REMARK                         _______ _______ _______ _____ _____    ______ ____
ROOT
ATOM      1  O   UNL     1      31.966  -5.297 -20.974  0.00  0.00    -0.270 OA
ATOM      2  N   UNL     1      31.927  -6.091 -23.172  0.00  0.00    -0.249 N 
ATOM      3  C   UNL     1      31.934  -6.226 -21.780  0.00  0.00    +0.253 C 
ATOM      4  C   UNL     1      31.890  -7.190 -24.010  0.00  0.00    +0.068 C 
ATOM      5  C   UNL     1      31.865  -8.678 -22.101  0.00  0.00    +0.036 C 
ATOM      6  C   UNL     1      31.897  -7.628 -21.260  0.00  0.00    +0.061 C 
ATOM      7  C   UNL     1      31.860  -8.438 -23.531  0.00  0.00    +0.019 C 
ENDROOT
BRANCH   5  11
ATOM      8  N   UNL     1      32.074 -11.053 -22.378  0.00  0.00    -0.337 NA
ATOM      9  N   UNL     1      32.289 -13.368 -22.691  0.00  0.00    -0.234 N 
ATOM     10  N   UNL     1      31.765 -12.583 -20.542  0.00  0.00    -0.170 NA
ATOM     11  C   UNL     1      31.823 -10.037 -21.526  0.00  0.00    +0.146 C 
ATOM     12  C   UNL     1      31.538 -10.213 -20.187  0.00  0.00    +0.055 C 
ATOM     13  C   UNL     1      32.030 -12.280 -21.828  0.00  0.00    +0.149 C 
ATOM     14  C   UNL     1      31.522 -11.520 -19.746  0.00  0.00    +0.114 C 
ATOM     15  H   UNL     1      32.245 -14.245 -22.246  0.00  0.00    +0.166 HD
BRANCH   9  18
ATOM     16  N   UNL     1      33.087 -14.582 -24.629  0.00  0.00    -0.196 N 
ATOM     17  N   UNL     1      33.323 -14.474 -25.948  0.00  0.00    -0.175 NA
ATOM     18  C   UNL     1      32.596 -13.443 -24.062  0.00  0.00    +0.130 C 
ATOM     19  C   UNL     1      32.505 -12.526 -25.080  0.00  0.00    +0.054 C 
ATOM     20  C   UNL     1      33.364 -15.838 -23.969  0.00  0.00    +0.141 C 
ATOM     21  C   UNL     1      32.965 -13.216 -26.218  0.00  0.00    +0.121 C 
ENDBRANCH   9  18
ENDBRANCH   5  11
BRANCH   2  22
ATOM     22  C   UNL     1      31.960  -4.771 -23.787  0.00  0.00    +0.132 C 
BRANCH  22  25
ATOM     23 CL   UNL     1      35.370  -4.810 -28.754  0.00  0.00    -0.080 Cl
ATOM     24  F   UNL     1      36.229  -4.020 -26.029  0.00  0.00    -0.203 F 
ATOM     25  C   UNL     1      32.818  -4.781 -25.034  0.00  0.00    +0.001 C 
ATOM     26  C   UNL     1      34.155  -4.389 -24.964  0.00  0.00    +0.028 C 
ATOM     27  C   UNL     1      32.272  -5.181 -26.254  0.00  0.00    -0.002 C 
ATOM     28  C   UNL     1      34.946  -4.398 -26.112  0.00  0.00    +0.150 C 
ATOM     29  C   UNL     1      33.062  -5.190 -27.402  0.00  0.00    +0.013 C 
ATOM     30  C   UNL     1      34.400  -4.798 -27.332  0.00  0.00    +0.085 C 
ENDBRANCH  22  25
BRANCH  22  31
ATOM     31  C   UNL     1      30.539  -4.266 -24.058  0.00  0.00    +0.162 C 
BRANCH  31  32
ATOM     32  O   UNL     1      30.051  -3.597 -22.900  0.00  0.00    -0.380 OA
ATOM     33  H   UNL     1      29.184  -3.959 -22.659  0.00  0.00    +0.211 HD
ENDBRANCH  31  32
ENDBRANCH  22  31
ENDBRANCH   2  22
TORSDOF 6
ENDMDL
MODEL 8
REMARK VINA RESULT:      -9.5      7.158     11.358
REMARK  Name = 71727581
REMARK  6 active torsions:
REMARK  status: ('A' for Active; 'I' for Inactive)
REMARK    1  A    between atoms: N_2  and  C_22
REMARK    2  A    between atoms: C_5  and  C_11
REMARK    3  A    between atoms: N_9  and  C_18
REMARK    4  A    between atoms: C_22  and  C_25
REMARK    5  A    between atoms: C_22  and  C_31
REMARK    6  A    between atoms: C_31  and  O_32
REMARK                            x       y       z     vdW  Elec       q    Type
REMARK                         _______ _______ _______ _____ _____    ______ ____
ROOT
ATOM      1  O   UNL     1      33.989  -7.995 -23.209  0.00  0.00    -0.270 OA
ATOM      2  N   UNL     1      32.291  -8.997 -21.953  0.00  0.00    -0.249 N 
ATOM      3  C   UNL     1      33.262  -8.955 -22.959  0.00  0.00    +0.253 C 
ATOM      4  C   UNL     1      31.512 -10.119 -21.738  0.00  0.00    +0.068 C 
ATOM      5  C   UNL     1      32.628 -11.273 -23.549  0.00  0.00    +0.036 C 
ATOM      6  C   UNL     1      33.403 -10.197 -23.781  0.00  0.00    +0.061 C 
ATOM      7  C   UNL     1      31.649 -11.221 -22.482  0.00  0.00    +0.019 C 
ENDROOT
BRANCH   5  11
ATOM      8  N   UNL     1      33.242 -13.584 -23.754  0.00  0.00    -0.337 NA
ATOM      9  N   UNL     1      33.849 -15.845 -23.910  0.00  0.00    -0.234 N 
ATOM     10  N   UNL     1      33.203 -14.731 -25.872  0.00  0.00    -0.170 NA
ATOM     11  C   UNL     1      32.821 -12.470 -24.390  0.00  0.00    +0.146 C 
ATOM     12  C   UNL     1      32.574 -12.411 -25.746  0.00  0.00    +0.055 C 
ATOM     13  C   UNL     1      33.409 -14.661 -24.543  0.00  0.00    +0.149 C 
ATOM     14  C   UNL     1      32.783 -13.583 -26.445  0.00  0.00    +0.114 C 
ATOM     15  H   UNL     1      33.958 -16.605 -24.526  0.00  0.00    +0.166 HD
BRANCH   9  18
ATOM     16  N   UNL     1      34.506 -17.410 -22.182  0.00  0.00    -0.196 N 
ATOM     17  N   UNL     1      34.774 -17.517 -20.869  0.00  0.00    -0.175 NA
ATOM     18  C   UNL     1      34.163 -16.149 -22.573  0.00  0.00    +0.130 C 
ATOM     19  C   UNL     1      34.207 -15.378 -21.437  0.00  0.00    +0.054 C 
ATOM     20  C   UNL     1      34.605 -18.587 -23.016  0.00  0.00    +0.141 C 
ATOM     21  C   UNL     1      34.590 -16.273 -20.419  0.00  0.00    +0.121 C 
ENDBRANCH   9  18
ENDBRANCH   5  11
BRANCH   2  22
ATOM     22  C   UNL     1      32.068  -7.842 -21.092  0.00  0.00    +0.132 C 
BRANCH  22  25
ATOM     23 CL   UNL     1      30.143  -3.123 -24.304  0.00  0.00    -0.080 Cl
ATOM     24  F   UNL     1      32.029  -3.051 -22.018  0.00  0.00    -0.203 F 
ATOM     25  C   UNL     1      31.586  -6.656 -21.898  0.00  0.00    +0.001 C 
ATOM     26  C   UNL     1      32.034  -5.372 -21.587  0.00  0.00    +0.028 C 
ATOM     27  C   UNL     1      30.694  -6.846 -22.953  0.00  0.00    -0.002 C 
ATOM     28  C   UNL     1      31.589  -4.279 -22.330  0.00  0.00    +0.150 C 
ATOM     29  C   UNL     1      30.249  -5.753 -23.696  0.00  0.00    +0.013 C 
ATOM     30  C   UNL     1      30.697  -4.469 -23.384  0.00  0.00    +0.085 C 
ENDBRANCH  22  25
BRANCH  22  31
ATOM     31  C   UNL     1      31.115  -8.198 -19.947  0.00  0.00    +0.162 C 
BRANCH  31  32
ATOM     32  O   UNL     1      31.875  -8.586 -18.807  0.00  0.00    -0.380 OA
ATOM     33  H   UNL     1      32.567  -9.210 -19.077  0.00  0.00    +0.211 HD
ENDBRANCH  31  32
ENDBRANCH  22  31
ENDBRANCH   2  22
TORSDOF 6
ENDMDL
MODEL 9
REMARK VINA RESULT:      -9.3      6.635     10.817
REMARK  Name = 71727581
REMARK  6 active torsions:
REMARK  status: ('A' for Active; 'I' for Inactive)
REMARK    1  A    between atoms: N_2  and  C_22
REMARK    2  A    between atoms: C_5  and  C_11
REMARK    3  A    between atoms: N_9  and  C_18
REMARK    4  A    between atoms: C_22  and  C_25
REMARK    5  A    between atoms: C_22  and  C_31
REMARK    6  A    between atoms: C_31  and  O_32
REMARK                            x       y       z     vdW  Elec       q    Type
REMARK                         _______ _______ _______ _____ _____    ______ ____
ROOT
ATOM      1  O   UNL     1      31.628 -11.647 -19.655  0.00  0.00    -0.270 OA
ATOM      2  N   UNL     1      31.996  -9.880 -21.141  0.00  0.00    -0.249 N 
ATOM      3  C   UNL     1      31.908 -11.228 -20.778  0.00  0.00    +0.253 C 
ATOM      4  C   UNL     1      32.318  -9.492 -22.428  0.00  0.00    +0.068 C 
ATOM      5  C   UNL     1      32.497 -11.807 -23.110  0.00  0.00    +0.036 C 
ATOM      6  C   UNL     1      32.183 -12.216 -21.866  0.00  0.00    +0.061 C 
ATOM      7  C   UNL     1      32.563 -10.386 -23.391  0.00  0.00    +0.019 C 
ENDROOT
BRANCH   5  11
ATOM      8  N   UNL     1      33.236 -14.012 -23.704  0.00  0.00    -0.337 NA
ATOM      9  N   UNL     1      33.966 -16.176 -24.243  0.00  0.00    -0.234 N 
ATOM     10  N   UNL     1      33.245 -14.782 -25.987  0.00  0.00    -0.170 NA
ATOM     11  C   UNL     1      32.750 -12.831 -24.142  0.00  0.00    +0.146 C 
ATOM     12  C   UNL     1      32.490 -12.556 -25.469  0.00  0.00    +0.055 C 
ATOM     13  C   UNL     1      33.457 -14.928 -24.665  0.00  0.00    +0.149 C 
ATOM     14  C   UNL     1      32.759 -13.578 -26.356  0.00  0.00    +0.114 C 
ATOM     15  H   UNL     1      34.112 -16.813 -24.979  0.00  0.00    +0.166 HD
BRANCH   9  18
ATOM     16  N   UNL     1      34.315 -18.024 -22.717  0.00  0.00    -0.196 N 
ATOM     17  N   UNL     1      34.664 -18.332 -21.455  0.00  0.00    -0.175 NA
ATOM     18  C   UNL     1      34.306 -16.686 -22.976  0.00  0.00    +0.130 C 
ATOM     19  C   UNL     1      34.673 -16.074 -21.803  0.00  0.00    +0.054 C 
ATOM     20  C   UNL     1      33.999 -19.095 -23.636  0.00  0.00    +0.141 C 
ATOM     21  C   UNL     1      34.882 -17.136 -20.902  0.00  0.00    +0.121 C 
ENDBRANCH   9  18
ENDBRANCH   5  11
BRANCH   2  22
ATOM     22  C   UNL     1      31.747  -8.832 -20.159  0.00  0.00    +0.132 C 
BRANCH  22  25
ATOM     23 CL   UNL     1      30.939  -3.511 -22.868  0.00  0.00    -0.080 Cl
ATOM     24  F   UNL     1      29.929  -6.138 -23.799  0.00  0.00    -0.203 F 
ATOM     25  C   UNL     1      31.543  -7.495 -20.840  0.00  0.00    +0.001 C 
ATOM     26  C   UNL     1      30.817  -7.423 -22.030  0.00  0.00    +0.028 C 
ATOM     27  C   UNL     1      32.079  -6.337 -20.279  0.00  0.00    -0.002 C 
ATOM     28  C   UNL     1      30.629  -6.192 -22.657  0.00  0.00    +0.150 C 
ATOM     29  C   UNL     1      31.892  -5.106 -20.907  0.00  0.00    +0.013 C 
ATOM     30  C   UNL     1      31.166  -5.034 -22.096  0.00  0.00    +0.085 C 
ENDBRANCH  22  25
BRANCH  22  31
ATOM     31  C   UNL     1      30.574  -9.211 -19.250  0.00  0.00    +0.162 C 
BRANCH  31  32
ATOM     32  O   UNL     1      31.075  -9.597 -17.974  0.00  0.00    -0.380 OA
ATOM     33  H   UNL     1      31.945 -10.012 -18.081  0.00  0.00    +0.211 HD
ENDBRANCH  31  32
ENDBRANCH  22  31
ENDBRANCH   2  22
TORSDOF 6
ENDMDL
