MODEL 1
REMARK VINA RESULT:      -9.4      0.000      0.000
REMARK  Name = 6452099
REMARK  4 active torsions:
REMARK  status: ('A' for Active; 'I' for Inactive)
REMARK    1  A    between atoms: C_5  and  C_18
REMARK    2  A    between atoms: C_21  and  O_24
REMARK    3  A    between atoms: C_22  and  O_26
REMARK    4  A    between atoms: C_23  and  O_28
REMARK                            x       y       z     vdW  Elec       q    Type
REMARK                         _______ _______ _______ _____ _____    ______ ____
ROOT
ATOM      1  O   UNL     1      36.128 -21.019 -18.383  0.00  0.00    -0.440 OA
ATOM      2  O   UNL     1      30.537 -23.551 -12.602  0.00  0.00    -0.435 OA
ATOM      3  O   UNL     1      29.292 -24.127 -14.583  0.00  0.00    -0.435 OA
ATOM      4  O   UNL     1      37.026 -20.652 -16.296  0.00  0.00    -0.245 OA
ATOM      5  C   UNL     1      34.552 -22.126 -15.168  0.00  0.00    +0.006 C 
ATOM      6  C   UNL     1      34.950 -21.806 -16.570  0.00  0.00    +0.075 C 
ATOM      7  C   UNL     1      33.117 -22.659 -15.080  0.00  0.00    +0.003 C 
ATOM      8  C   UNL     1      34.254 -22.101 -17.663  0.00  0.00    +0.028 C 
ATOM      9  C   UNL     1      32.941 -22.796 -17.645  0.00  0.00    -0.000 C 
ATOM     10  C   UNL     1      32.371 -22.985 -16.252  0.00  0.00    +0.003 C 
ATOM     11  C   UNL     1      34.937 -21.641 -18.883  0.00  0.00    +0.236 C 
ATOM     12  C   UNL     1      32.529 -22.826 -13.811  0.00  0.00    +0.040 C 
ATOM     13  C   UNL     1      36.152 -21.098 -17.019  0.00  0.00    +0.341 C 
ATOM     14  C   UNL     1      31.066 -23.495 -16.135  0.00  0.00    +0.040 C 
ATOM     15  C   UNL     1      31.244 -23.324 -13.743  0.00  0.00    +0.176 C 
ATOM     16  C   UNL     1      30.535 -23.653 -14.872  0.00  0.00    +0.176 C 
ATOM     17  C   UNL     1      29.303 -24.064 -13.142  0.00  0.00    +0.429 C 
ENDROOT
BRANCH   5  18
ATOM     18  C   UNL     1      35.520 -23.098 -14.566  0.00  0.00    +0.006 C 
ATOM     19  C   UNL     1      35.893 -24.231 -15.281  0.00  0.00    +0.040 C 
ATOM     20  C   UNL     1      36.038 -22.861 -13.297  0.00  0.00    +0.040 C 
ATOM     21  C   UNL     1      36.939 -23.767 -12.736  0.00  0.00    +0.175 C 
ATOM     22  C   UNL     1      36.794 -25.137 -14.720  0.00  0.00    +0.175 C 
ATOM     23  C   UNL     1      37.316 -24.905 -13.449  0.00  0.00    +0.206 C 
BRANCH  21  24
ATOM     24  O   UNL     1      37.441 -23.529 -11.493  0.00  0.00    -0.468 OA
ATOM     25  C   UNL     1      36.498 -23.272 -10.452  0.00  0.00    +0.253 C 
ENDBRANCH  21  24
BRANCH  22  26
ATOM     26  O   UNL     1      37.156 -26.245 -15.427  0.00  0.00    -0.468 OA
ATOM     27  C   UNL     1      36.109 -27.117 -15.846  0.00  0.00    +0.253 C 
ENDBRANCH  22  26
BRANCH  23  28
ATOM     28  O   UNL     1      38.198 -25.790 -12.903  0.00  0.00    -0.465 OA
ATOM     29  C   UNL     1      39.545 -25.733 -13.370  0.00  0.00    +0.253 C 
ENDBRANCH  23  28
ENDBRANCH   5  18
TORSDOF 4
ENDMDL
MODEL 2
REMARK VINA RESULT:      -9.4      0.734      2.343
REMARK  Name = 6452099
REMARK  4 active torsions:
REMARK  status: ('A' for Active; 'I' for Inactive)
REMARK    1  A    between atoms: C_5  and  C_18
REMARK    2  A    between atoms: C_21  and  O_24
REMARK    3  A    between atoms: C_22  and  O_26
REMARK    4  A    between atoms: C_23  and  O_28
REMARK                            x       y       z     vdW  Elec       q    Type
REMARK                         _______ _______ _______ _____ _____    ______ ____
ROOT
ATOM      1  O   UNL     1      35.937 -21.127 -18.667  0.00  0.00    -0.440 OA
ATOM      2  O   UNL     1      30.696 -23.550 -12.523  0.00  0.00    -0.435 OA
ATOM      3  O   UNL     1      29.259 -23.976 -14.410  0.00  0.00    -0.435 OA
ATOM      4  O   UNL     1      37.024 -20.893 -16.652  0.00  0.00    -0.245 OA
ATOM      5  C   UNL     1      34.565 -22.263 -15.369  0.00  0.00    +0.006 C 
ATOM      6  C   UNL     1      34.866 -21.913 -16.788  0.00  0.00    +0.075 C 
ATOM      7  C   UNL     1      33.113 -22.715 -15.178  0.00  0.00    +0.003 C 
ATOM      8  C   UNL     1      34.066 -22.125 -17.828  0.00  0.00    +0.028 C 
ATOM      9  C   UNL     1      32.719 -22.744 -17.723  0.00  0.00    -0.000 C 
ATOM     10  C   UNL     1      32.254 -22.952 -16.293  0.00  0.00    +0.003 C 
ATOM     11  C   UNL     1      34.672 -21.660 -19.086  0.00  0.00    +0.236 C 
ATOM     12  C   UNL     1      32.622 -22.896 -13.871  0.00  0.00    +0.040 C 
ATOM     13  C   UNL     1      36.067 -21.260 -17.313  0.00  0.00    +0.341 C 
ATOM     14  C   UNL     1      30.935 -23.390 -16.084  0.00  0.00    +0.040 C 
ATOM     15  C   UNL     1      31.319 -23.321 -13.711  0.00  0.00    +0.176 C 
ATOM     16  C   UNL     1      30.501 -23.565 -14.787  0.00  0.00    +0.176 C 
ATOM     17  C   UNL     1      29.392 -23.970 -12.974  0.00  0.00    +0.429 C 
ENDROOT
BRANCH   5  18
ATOM     18  C   UNL     1      35.519 -23.312 -14.883  0.00  0.00    +0.006 C 
ATOM     19  C   UNL     1      36.597 -22.946 -14.085  0.00  0.00    +0.040 C 
ATOM     20  C   UNL     1      35.319 -24.642 -15.236  0.00  0.00    +0.040 C 
ATOM     21  C   UNL     1      36.207 -25.619 -14.785  0.00  0.00    +0.175 C 
ATOM     22  C   UNL     1      37.486 -23.923 -13.633  0.00  0.00    +0.175 C 
ATOM     23  C   UNL     1      37.291 -25.258 -13.983  0.00  0.00    +0.206 C 
BRANCH  21  24
ATOM     24  O   UNL     1      36.006 -26.920 -15.135  0.00  0.00    -0.468 OA
ATOM     25  C   UNL     1      36.366 -27.295 -16.464  0.00  0.00    +0.253 C 
ENDBRANCH  21  24
BRANCH  22  26
ATOM     26  O   UNL     1      38.539 -23.558 -12.850  0.00  0.00    -0.468 OA
ATOM     27  C   UNL     1      38.246 -23.159 -11.514  0.00  0.00    +0.253 C 
ENDBRANCH  22  26
BRANCH  23  28
ATOM     28  O   UNL     1      38.158 -26.212 -13.540  0.00  0.00    -0.465 OA
ATOM     29  C   UNL     1      39.477 -26.190 -14.083  0.00  0.00    +0.253 C 
ENDBRANCH  23  28
ENDBRANCH   5  18
TORSDOF 4
ENDMDL
MODEL 3
REMARK VINA RESULT:      -9.1      2.166      5.314
REMARK  Name = 6452099
REMARK  4 active torsions:
REMARK  status: ('A' for Active; 'I' for Inactive)
REMARK    1  A    between atoms: C_5  and  C_18
REMARK    2  A    between atoms: C_21  and  O_24
REMARK    3  A    between atoms: C_22  and  O_26
REMARK    4  A    between atoms: C_23  and  O_28
REMARK                            x       y       z     vdW  Elec       q    Type
REMARK                         _______ _______ _______ _____ _____    ______ ____
ROOT
ATOM      1  O   UNL     1      35.279 -24.566 -13.016  0.00  0.00    -0.440 OA
ATOM      2  O   UNL     1      28.227 -22.432 -17.114  0.00  0.00    -0.435 OA
ATOM      3  O   UNL     1      27.613 -21.660 -14.915  0.00  0.00    -0.435 OA
ATOM      4  O   UNL     1      35.529 -25.132 -15.233  0.00  0.00    -0.245 OA
ATOM      5  C   UNL     1      32.825 -23.711 -15.716  0.00  0.00    +0.006 C 
ATOM      6  C   UNL     1      33.618 -23.916 -14.469  0.00  0.00    +0.075 C 
ATOM      7  C   UNL     1      31.424 -23.158 -15.429  0.00  0.00    +0.003 C 
ATOM      8  C   UNL     1      33.270 -23.512 -13.251  0.00  0.00    +0.028 C 
ATOM      9  C   UNL     1      32.006 -22.794 -12.947  0.00  0.00    -0.000 C 
ATOM     10  C   UNL     1      31.051 -22.716 -14.124  0.00  0.00    +0.003 C 
ATOM     11  C   UNL     1      34.283 -23.878 -12.247  0.00  0.00    +0.236 C 
ATOM     12  C   UNL     1      30.489 -23.090 -16.480  0.00  0.00    +0.040 C 
ATOM     13  C   UNL     1      34.902 -24.607 -14.329  0.00  0.00    +0.341 C 
ATOM     14  C   UNL     1      29.767 -22.191 -13.899  0.00  0.00    +0.040 C 
ATOM     15  C   UNL     1      29.238 -22.573 -16.214  0.00  0.00    +0.176 C 
ATOM     16  C   UNL     1      28.888 -22.133 -14.961  0.00  0.00    +0.176 C 
ATOM     17  C   UNL     1      27.202 -21.848 -16.285  0.00  0.00    +0.429 C 
ENDROOT
BRANCH   5  18
ATOM     18  C   UNL     1      33.569 -22.815 -16.659  0.00  0.00    +0.006 C 
ATOM     19  C   UNL     1      32.991 -22.460 -17.873  0.00  0.00    +0.040 C 
ATOM     20  C   UNL     1      34.833 -22.347 -16.314  0.00  0.00    +0.040 C 
ATOM     21  C   UNL     1      35.526 -21.514 -17.192  0.00  0.00    +0.175 C 
ATOM     22  C   UNL     1      33.684 -21.626 -18.751  0.00  0.00    +0.175 C 
ATOM     23  C   UNL     1      34.951 -21.154 -18.411  0.00  0.00    +0.206 C 
BRANCH  21  24
ATOM     24  O   UNL     1      36.763 -21.061 -16.848  0.00  0.00    -0.468 OA
ATOM     25  C   UNL     1      37.523 -21.870 -15.951  0.00  0.00    +0.253 C 
ENDBRANCH  21  24
BRANCH  22  26
ATOM     26  O   UNL     1      33.110 -21.281 -19.938  0.00  0.00    -0.468 OA
ATOM     27  C   UNL     1      32.215 -20.172 -19.927  0.00  0.00    +0.253 C 
ENDBRANCH  22  26
BRANCH  23  28
ATOM     28  O   UNL     1      35.626 -20.338 -19.269  0.00  0.00    -0.465 OA
ATOM     29  C   UNL     1      36.012 -20.895 -20.524  0.00  0.00    +0.253 C 
ENDBRANCH  23  28
ENDBRANCH   5  18
TORSDOF 4
ENDMDL
MODEL 4
REMARK VINA RESULT:      -9.1      2.158      5.535
REMARK  Name = 6452099
REMARK  4 active torsions:
REMARK  status: ('A' for Active; 'I' for Inactive)
REMARK    1  A    between atoms: C_5  and  C_18
REMARK    2  A    between atoms: C_21  and  O_24
REMARK    3  A    between atoms: C_22  and  O_26
REMARK    4  A    between atoms: C_23  and  O_28
REMARK                            x       y       z     vdW  Elec       q    Type
REMARK                         _______ _______ _______ _____ _____    ______ ____
ROOT
ATOM      1  O   UNL     1      35.281 -24.591 -12.973  0.00  0.00    -0.440 OA
ATOM      2  O   UNL     1      28.242 -22.439 -17.086  0.00  0.00    -0.435 OA
ATOM      3  O   UNL     1      27.627 -21.662 -14.889  0.00  0.00    -0.435 OA
ATOM      4  O   UNL     1      35.533 -25.160 -15.189  0.00  0.00    -0.245 OA
ATOM      5  C   UNL     1      32.833 -23.732 -15.679  0.00  0.00    +0.006 C 
ATOM      6  C   UNL     1      33.624 -23.937 -14.430  0.00  0.00    +0.075 C 
ATOM      7  C   UNL     1      31.434 -23.173 -15.394  0.00  0.00    +0.003 C 
ATOM      8  C   UNL     1      33.276 -23.531 -13.213  0.00  0.00    +0.028 C 
ATOM      9  C   UNL     1      32.013 -22.808 -12.912  0.00  0.00    -0.000 C 
ATOM     10  C   UNL     1      31.061 -22.728 -14.090  0.00  0.00    +0.003 C 
ATOM     11  C   UNL     1      34.285 -23.899 -12.207  0.00  0.00    +0.236 C 
ATOM     12  C   UNL     1      30.502 -23.103 -16.447  0.00  0.00    +0.040 C 
ATOM     13  C   UNL     1      34.905 -24.632 -14.287  0.00  0.00    +0.341 C 
ATOM     14  C   UNL     1      29.778 -22.199 -13.869  0.00  0.00    +0.040 C 
ATOM     15  C   UNL     1      29.252 -22.582 -16.184  0.00  0.00    +0.176 C 
ATOM     16  C   UNL     1      28.901 -22.139 -14.932  0.00  0.00    +0.176 C 
ATOM     17  C   UNL     1      27.218 -21.850 -16.259  0.00  0.00    +0.429 C 
ENDROOT
BRANCH   5  18
ATOM     18  C   UNL     1      33.582 -22.839 -16.621  0.00  0.00    +0.006 C 
ATOM     19  C   UNL     1      34.851 -22.383 -16.278  0.00  0.00    +0.040 C 
ATOM     20  C   UNL     1      33.003 -22.473 -17.832  0.00  0.00    +0.040 C 
ATOM     21  C   UNL     1      33.700 -21.641 -18.709  0.00  0.00    +0.175 C 
ATOM     22  C   UNL     1      35.547 -21.551 -17.155  0.00  0.00    +0.175 C 
ATOM     23  C   UNL     1      34.972 -21.180 -18.370  0.00  0.00    +0.206 C 
BRANCH  21  24
ATOM     24  O   UNL     1      33.126 -21.286 -19.892  0.00  0.00    -0.468 OA
ATOM     25  C   UNL     1      32.259 -20.152 -19.876  0.00  0.00    +0.253 C 
ENDBRANCH  21  24
BRANCH  22  26
ATOM     26  O   UNL     1      36.790 -21.109 -16.812  0.00  0.00    -0.468 OA
ATOM     27  C   UNL     1      37.546 -21.926 -15.922  0.00  0.00    +0.253 C 
ENDBRANCH  22  26
BRANCH  23  28
ATOM     28  O   UNL     1      35.655 -20.370 -19.227  0.00  0.00    -0.465 OA
ATOM     29  C   UNL     1      36.021 -20.925 -20.489  0.00  0.00    +0.253 C 
ENDBRANCH  23  28
ENDBRANCH   5  18
TORSDOF 4
ENDMDL
MODEL 5
REMARK VINA RESULT:      -7.1      1.750      6.228
REMARK  Name = 6452099
REMARK  4 active torsions:
REMARK  status: ('A' for Active; 'I' for Inactive)
REMARK    1  A    between atoms: C_5  and  C_18
REMARK    2  A    between atoms: C_21  and  O_24
REMARK    3  A    between atoms: C_22  and  O_26
REMARK    4  A    between atoms: C_23  and  O_28
REMARK                            x       y       z     vdW  Elec       q    Type
REMARK                         _______ _______ _______ _____ _____    ______ ____
ROOT
ATOM      1  O   UNL     1      34.406 -20.831 -19.725  0.00  0.00    -0.440 OA
ATOM      2  O   UNL     1      36.555 -25.617 -13.124  0.00  0.00    -0.435 OA
ATOM      3  O   UNL     1      38.390 -24.057 -13.050  0.00  0.00    -0.435 OA
ATOM      4  O   UNL     1      32.801 -22.458 -19.455  0.00  0.00    -0.245 OA
ATOM      5  C   UNL     1      34.285 -23.242 -16.857  0.00  0.00    +0.006 C 
ATOM      6  C   UNL     1      34.567 -22.181 -17.868  0.00  0.00    +0.075 C 
ATOM      7  C   UNL     1      35.436 -23.413 -15.859  0.00  0.00    +0.003 C 
ATOM      8  C   UNL     1      35.592 -21.335 -17.843  0.00  0.00    +0.028 C 
ATOM      9  C   UNL     1      36.635 -21.331 -16.785  0.00  0.00    -0.000 C 
ATOM     10  C   UNL     1      36.533 -22.501 -15.824  0.00  0.00    +0.003 C 
ATOM     11  C   UNL     1      35.570 -20.419 -18.994  0.00  0.00    +0.236 C 
ATOM     12  C   UNL     1      35.405 -24.499 -14.963  0.00  0.00    +0.040 C 
ATOM     13  C   UNL     1      33.804 -21.876 -19.081  0.00  0.00    +0.341 C 
ATOM     14  C   UNL     1      37.561 -22.673 -14.881  0.00  0.00    +0.040 C 
ATOM     15  C   UNL     1      36.437 -24.634 -14.058  0.00  0.00    +0.176 C 
ATOM     16  C   UNL     1      37.482 -23.744 -14.015  0.00  0.00    +0.176 C 
ATOM     17  C   UNL     1      37.792 -25.242 -12.486  0.00  0.00    +0.429 C 
ENDROOT
BRANCH   5  18
ATOM     18  C   UNL     1      33.001 -22.944 -16.144  0.00  0.00    +0.006 C 
ATOM     19  C   UNL     1      32.962 -22.973 -14.754  0.00  0.00    +0.040 C 
ATOM     20  C   UNL     1      31.858 -22.642 -16.877  0.00  0.00    +0.040 C 
ATOM     21  C   UNL     1      30.663 -22.367 -16.212  0.00  0.00    +0.175 C 
ATOM     22  C   UNL     1      31.767 -22.697 -14.089  0.00  0.00    +0.175 C 
ATOM     23  C   UNL     1      30.617 -22.394 -14.818  0.00  0.00    +0.206 C 
BRANCH  21  24
ATOM     24  O   UNL     1      29.547 -22.073 -16.937  0.00  0.00    -0.468 OA
ATOM     25  C   UNL     1      28.500 -23.043 -16.935  0.00  0.00    +0.253 C 
ENDBRANCH  21  24
BRANCH  22  26
ATOM     26  O   UNL     1      31.737 -22.726 -12.727  0.00  0.00    -0.468 OA
ATOM     27  C   UNL     1      32.905 -23.202 -12.063  0.00  0.00    +0.253 C 
ENDBRANCH  22  26
BRANCH  23  28
ATOM     28  O   UNL     1      29.451 -22.122 -14.168  0.00  0.00    -0.465 OA
ATOM     29  C   UNL     1      28.676 -23.239 -13.734  0.00  0.00    +0.253 C 
ENDBRANCH  23  28
ENDBRANCH   5  18
TORSDOF 4
ENDMDL
MODEL 6
REMARK VINA RESULT:      -7.1      1.774      5.960
REMARK  Name = 6452099
REMARK  4 active torsions:
REMARK  status: ('A' for Active; 'I' for Inactive)
REMARK    1  A    between atoms: C_5  and  C_18
REMARK    2  A    between atoms: C_21  and  O_24
REMARK    3  A    between atoms: C_22  and  O_26
REMARK    4  A    between atoms: C_23  and  O_28
REMARK                            x       y       z     vdW  Elec       q    Type
REMARK                         _______ _______ _______ _____ _____    ______ ____
ROOT
ATOM      1  O   UNL     1      34.291 -20.818 -19.799  0.00  0.00    -0.440 OA
ATOM      2  O   UNL     1      36.566 -25.557 -13.207  0.00  0.00    -0.435 OA
ATOM      3  O   UNL     1      38.392 -23.985 -13.167  0.00  0.00    -0.435 OA
ATOM      4  O   UNL     1      32.700 -22.454 -19.498  0.00  0.00    -0.245 OA
ATOM      5  C   UNL     1      34.227 -23.215 -16.918  0.00  0.00    +0.006 C 
ATOM      6  C   UNL     1      34.488 -22.158 -17.938  0.00  0.00    +0.075 C 
ATOM      7  C   UNL     1      35.394 -23.375 -15.936  0.00  0.00    +0.003 C 
ATOM      8  C   UNL     1      35.507 -21.305 -17.932  0.00  0.00    +0.028 C 
ATOM      9  C   UNL     1      36.566 -21.289 -16.890  0.00  0.00    -0.000 C 
ATOM     10  C   UNL     1      36.485 -22.455 -15.921  0.00  0.00    +0.003 C 
ATOM     11  C   UNL     1      35.462 -20.395 -19.088  0.00  0.00    +0.236 C 
ATOM     12  C   UNL     1      35.383 -24.456 -15.035  0.00  0.00    +0.040 C 
ATOM     13  C   UNL     1      33.706 -21.864 -19.142  0.00  0.00    +0.341 C 
ATOM     14  C   UNL     1      37.527 -22.616 -14.992  0.00  0.00    +0.040 C 
ATOM     15  C   UNL     1      36.429 -24.579 -14.143  0.00  0.00    +0.176 C 
ATOM     16  C   UNL     1      37.469 -23.683 -14.120  0.00  0.00    +0.176 C 
ATOM     17  C   UNL     1      37.810 -25.171 -12.588  0.00  0.00    +0.429 C 
ENDROOT
BRANCH   5  18
ATOM     18  C   UNL     1      32.951 -22.922 -16.187  0.00  0.00    +0.006 C 
ATOM     19  C   UNL     1      31.799 -22.620 -16.906  0.00  0.00    +0.040 C 
ATOM     20  C   UNL     1      32.930 -22.954 -14.797  0.00  0.00    +0.040 C 
ATOM     21  C   UNL     1      31.743 -22.680 -14.117  0.00  0.00    +0.175 C 
ATOM     22  C   UNL     1      30.612 -22.347 -16.226  0.00  0.00    +0.175 C 
ATOM     23  C   UNL     1      30.584 -22.376 -14.832  0.00  0.00    +0.206 C 
BRANCH  21  24
ATOM     24  O   UNL     1      31.730 -22.712 -12.755  0.00  0.00    -0.468 OA
ATOM     25  C   UNL     1      32.899 -23.210 -12.107  0.00  0.00    +0.253 C 
ENDBRANCH  21  24
BRANCH  22  26
ATOM     26  O   UNL     1      29.487 -22.053 -16.936  0.00  0.00    -0.468 OA
ATOM     27  C   UNL     1      28.442 -23.021 -16.924  0.00  0.00    +0.253 C 
ENDBRANCH  22  26
BRANCH  23  28
ATOM     28  O   UNL     1      29.423 -22.111 -14.168  0.00  0.00    -0.465 OA
ATOM     29  C   UNL     1      28.656 -23.233 -13.733  0.00  0.00    +0.253 C 
ENDBRANCH  23  28
ENDBRANCH   5  18
TORSDOF 4
ENDMDL
MODEL 7
REMARK VINA RESULT:      -6.8      2.020      5.094
REMARK  Name = 6452099
REMARK  4 active torsions:
REMARK  status: ('A' for Active; 'I' for Inactive)
REMARK    1  A    between atoms: C_5  and  C_18
REMARK    2  A    between atoms: C_21  and  O_24
REMARK    3  A    between atoms: C_22  and  O_26
REMARK    4  A    between atoms: C_23  and  O_28
REMARK                            x       y       z     vdW  Elec       q    Type
REMARK                         _______ _______ _______ _____ _____    ______ ____
ROOT
ATOM      1  O   UNL     1      29.643 -24.308 -13.810  0.00  0.00    -0.440 OA
ATOM      2  O   UNL     1      34.966 -21.790 -19.845  0.00  0.00    -0.435 OA
ATOM      3  O   UNL     1      33.153 -20.271 -20.307  0.00  0.00    -0.435 OA
ATOM      4  O   UNL     1      31.572 -25.551 -13.640  0.00  0.00    -0.245 OA
ATOM      5  C   UNL     1      32.742 -23.708 -15.831  0.00  0.00    +0.006 C 
ATOM      6  C   UNL     1      31.403 -23.724 -15.173  0.00  0.00    +0.075 C 
ATOM      7  C   UNL     1      32.784 -22.760 -17.036  0.00  0.00    +0.003 C 
ATOM      8  C   UNL     1      30.393 -22.903 -15.442  0.00  0.00    +0.028 C 
ATOM      9  C   UNL     1      30.449 -21.833 -16.471  0.00  0.00    -0.000 C 
ATOM     10  C   UNL     1      31.705 -21.871 -17.323  0.00  0.00    +0.003 C 
ATOM     11  C   UNL     1      29.216 -23.195 -14.608  0.00  0.00    +0.236 C 
ATOM     12  C   UNL     1      33.915 -22.776 -17.875  0.00  0.00    +0.040 C 
ATOM     13  C   UNL     1      30.928 -24.641 -14.134  0.00  0.00    +0.341 C 
ATOM     14  C   UNL     1      31.786 -20.998 -18.421  0.00  0.00    +0.040 C 
ATOM     15  C   UNL     1      33.950 -21.906 -18.946  0.00  0.00    +0.176 C 
ATOM     16  C   UNL     1      32.917 -21.040 -19.209  0.00  0.00    +0.176 C 
ATOM     17  C   UNL     1      34.456 -20.748 -20.701  0.00  0.00    +0.429 C 
ENDROOT
BRANCH   5  18
ATOM     18  C   UNL     1      33.802 -23.350 -14.834  0.00  0.00    +0.006 C 
ATOM     19  C   UNL     1      35.011 -22.821 -15.273  0.00  0.00    +0.040 C 
ATOM     20  C   UNL     1      33.569 -23.549 -13.477  0.00  0.00    +0.040 C 
ATOM     21  C   UNL     1      34.556 -23.217 -12.549  0.00  0.00    +0.175 C 
ATOM     22  C   UNL     1      35.999 -22.489 -14.346  0.00  0.00    +0.175 C 
ATOM     23  C   UNL     1      35.771 -22.687 -12.984  0.00  0.00    +0.206 C 
BRANCH  21  24
ATOM     24  O   UNL     1      34.322 -23.417 -11.223  0.00  0.00    -0.468 OA
ATOM     25  C   UNL     1      34.989 -24.517 -10.606  0.00  0.00    +0.253 C 
ENDBRANCH  21  24
BRANCH  22  26
ATOM     26  O   UNL     1      37.180 -21.971 -14.783  0.00  0.00    -0.468 OA
ATOM     27  C   UNL     1      37.202 -21.431 -16.102  0.00  0.00    +0.253 C 
ENDBRANCH  22  26
BRANCH  23  28
ATOM     28  O   UNL     1      36.736 -22.360 -12.078  0.00  0.00    -0.465 OA
ATOM     29  C   UNL     1      37.780 -23.310 -11.872  0.00  0.00    +0.253 C 
ENDBRANCH  23  28
ENDBRANCH   5  18
TORSDOF 4
ENDMDL
MODEL 8
REMARK VINA RESULT:      -6.7      2.005      5.310
REMARK  Name = 6452099
REMARK  4 active torsions:
REMARK  status: ('A' for Active; 'I' for Inactive)
REMARK    1  A    between atoms: C_5  and  C_18
REMARK    2  A    between atoms: C_21  and  O_24
REMARK    3  A    between atoms: C_22  and  O_26
REMARK    4  A    between atoms: C_23  and  O_28
REMARK                            x       y       z     vdW  Elec       q    Type
REMARK                         _______ _______ _______ _____ _____    ______ ____
ROOT
ATOM      1  O   UNL     1      29.609 -24.224 -13.844  0.00  0.00    -0.440 OA
ATOM      2  O   UNL     1      34.981 -21.809 -19.877  0.00  0.00    -0.435 OA
ATOM      3  O   UNL     1      33.193 -20.262 -20.347  0.00  0.00    -0.435 OA
ATOM      4  O   UNL     1      31.519 -25.497 -13.667  0.00  0.00    -0.245 OA
ATOM      5  C   UNL     1      32.720 -23.678 -15.862  0.00  0.00    +0.006 C 
ATOM      6  C   UNL     1      31.380 -23.672 -15.205  0.00  0.00    +0.075 C 
ATOM      7  C   UNL     1      32.780 -22.736 -17.069  0.00  0.00    +0.003 C 
ATOM      8  C   UNL     1      30.384 -22.836 -15.479  0.00  0.00    +0.028 C 
ATOM      9  C   UNL     1      30.458 -21.770 -16.511  0.00  0.00    -0.000 C 
ATOM     10  C   UNL     1      31.715 -21.831 -17.360  0.00  0.00    +0.003 C 
ATOM     11  C   UNL     1      29.201 -23.107 -14.646  0.00  0.00    +0.236 C 
ATOM     12  C   UNL     1      33.911 -22.772 -17.907  0.00  0.00    +0.040 C 
ATOM     13  C   UNL     1      30.890 -24.578 -14.164  0.00  0.00    +0.341 C 
ATOM     14  C   UNL     1      31.811 -20.963 -18.462  0.00  0.00    +0.040 C 
ATOM     15  C   UNL     1      33.962 -21.906 -18.980  0.00  0.00    +0.176 C 
ATOM     16  C   UNL     1      32.943 -21.024 -19.247  0.00  0.00    +0.176 C 
ATOM     17  C   UNL     1      34.489 -20.761 -20.737  0.00  0.00    +0.429 C 
ENDROOT
BRANCH   5  18
ATOM     18  C   UNL     1      33.784 -23.334 -14.864  0.00  0.00    +0.006 C 
ATOM     19  C   UNL     1      33.540 -23.514 -13.506  0.00  0.00    +0.040 C 
ATOM     20  C   UNL     1      35.007 -22.837 -15.303  0.00  0.00    +0.040 C 
ATOM     21  C   UNL     1      35.997 -22.515 -14.374  0.00  0.00    +0.175 C 
ATOM     22  C   UNL     1      34.530 -23.193 -12.577  0.00  0.00    +0.175 C 
ATOM     23  C   UNL     1      35.758 -22.693 -13.011  0.00  0.00    +0.206 C 
BRANCH  21  24
ATOM     24  O   UNL     1      37.191 -22.027 -14.811  0.00  0.00    -0.468 OA
ATOM     25  C   UNL     1      37.218 -21.457 -16.119  0.00  0.00    +0.253 C 
ENDBRANCH  21  24
BRANCH  22  26
ATOM     26  O   UNL     1      34.285 -23.372 -11.249  0.00  0.00    -0.468 OA
ATOM     27  C   UNL     1      34.943 -24.464 -10.610  0.00  0.00    +0.253 C 
ENDBRANCH  22  26
BRANCH  23  28
ATOM     28  O   UNL     1      36.725 -22.382 -12.103  0.00  0.00    -0.465 OA
ATOM     29  C   UNL     1      37.777 -23.330 -11.926  0.00  0.00    +0.253 C 
ENDBRANCH  23  28
ENDBRANCH   5  18
TORSDOF 4
ENDMDL
