MODEL 1
REMARK VINA RESULT:     -11.6      0.000      0.000
REMARK  Name = 9547945
REMARK  2 active torsions:
REMARK  status: ('A' for Active; 'I' for Inactive)
REMARK    1  A    between atoms: C_2  and  C_11
REMARK    2  A    between atoms: C_8  and  C_20
REMARK                            x       y       z     vdW  Elec       q    Type
REMARK                         _______ _______ _______ _____ _____    ______ ____
ROOT
ATOM      1  N   UNL     1      33.039 -13.770 -23.186  0.00  0.00    -0.313 N 
ATOM      2  C   UNL     1      32.816 -13.041 -22.049  0.00  0.00    +0.048 C 
ATOM      3  C   UNL     1      33.896 -14.947 -21.496  0.00  0.00    +0.015 C 
ATOM      4  C   UNL     1      33.697 -14.939 -22.879  0.00  0.00    +0.048 C 
ATOM      5  C   UNL     1      33.334 -13.743 -20.986  0.00  0.00    +0.016 C 
ATOM      6  C   UNL     1      34.557 -16.047 -20.912  0.00  0.00    +0.004 C 
ATOM      7  C   UNL     1      34.127 -15.980 -23.709  0.00  0.00    +0.015 C 
ATOM      8  C   UNL     1      34.992 -17.095 -21.732  0.00  0.00    +0.031 C 
ATOM      9  C   UNL     1      34.779 -17.060 -23.109  0.00  0.00    +0.004 C 
ATOM     10  H   UNL     1      32.768 -13.497 -24.093  0.00  0.00    +0.152 HD
ENDROOT
BRANCH   2  11
ATOM     11  C   UNL     1      32.141 -11.766 -22.078  0.00  0.00    +0.009 C 
ATOM     12  C   UNL     1      32.511 -10.772 -22.986  0.00  0.00    -0.021 C 
ATOM     13  C   UNL     1      31.100 -11.532 -21.178  0.00  0.00    +0.001 C 
ATOM     14  C   UNL     1      31.842  -9.547 -22.993  0.00  0.00    -0.004 C 
ATOM     15  C   UNL     1      33.621 -10.984 -23.965  0.00  0.00    +0.031 C 
ATOM     16  C   UNL     1      30.431 -10.308 -21.187  0.00  0.00    +0.000 C 
ATOM     17  C   UNL     1      30.802  -9.315 -22.094  0.00  0.00    -0.000 C 
ENDBRANCH   2  11
BRANCH   8  20
ATOM     18  N   UNL     1      34.964 -19.287 -20.565  0.00  0.00    -0.343 N 
ATOM     19  N   UNL     1      36.995 -18.277 -21.128  0.00  0.00    -0.285 NA
ATOM     20  C   UNL     1      35.675 -18.233 -21.137  0.00  0.00    +0.117 C 
ATOM     21  H   UNL     1      35.447 -20.047 -20.168  0.00  0.00    +0.144 HD
ATOM     22  H   UNL     1      33.980 -19.271 -20.559  0.00  0.00    +0.144 HD
ATOM     23  H   UNL     1      37.460 -19.046 -20.726  0.00  0.00    +0.188 HD
ENDBRANCH   8  20
TORSDOF 2
ENDMDL
MODEL 2
REMARK VINA RESULT:     -11.0      4.388      7.039
REMARK  Name = 9547945
REMARK  2 active torsions:
REMARK  status: ('A' for Active; 'I' for Inactive)
REMARK    1  A    between atoms: C_2  and  C_11
REMARK    2  A    between atoms: C_8  and  C_20
REMARK                            x       y       z     vdW  Elec       q    Type
REMARK                         _______ _______ _______ _____ _____    ______ ____
ROOT
ATOM      1  N   UNL     1      35.221 -19.581 -20.612  0.00  0.00    -0.313 N 
ATOM      2  C   UNL     1      34.051 -19.235 -21.232  0.00  0.00    +0.048 C 
ATOM      3  C   UNL     1      33.591 -20.659 -19.538  0.00  0.00    +0.015 C 
ATOM      4  C   UNL     1      34.971 -20.449 -19.575  0.00  0.00    +0.048 C 
ATOM      5  C   UNL     1      33.024 -19.887 -20.590  0.00  0.00    +0.016 C 
ATOM      6  C   UNL     1      33.061 -21.519 -18.555  0.00  0.00    +0.004 C 
ATOM      7  C   UNL     1      35.852 -21.059 -18.674  0.00  0.00    +0.015 C 
ATOM      8  C   UNL     1      33.931 -22.136 -17.647  0.00  0.00    +0.031 C 
ATOM      9  C   UNL     1      35.304 -21.908 -17.708  0.00  0.00    +0.004 C 
ATOM     10  H   UNL     1      36.114 -19.255 -20.872  0.00  0.00    +0.152 HD
ENDROOT
BRANCH   2  11
ATOM     11  C   UNL     1      34.018 -18.334 -22.358  0.00  0.00    +0.009 C 
ATOM     12  C   UNL     1      34.313 -16.978 -22.208  0.00  0.00    -0.021 C 
ATOM     13  C   UNL     1      33.685 -18.837 -23.617  0.00  0.00    +0.001 C 
ATOM     14  C   UNL     1      34.274 -16.127 -23.313  0.00  0.00    -0.004 C 
ATOM     15  C   UNL     1      34.673 -16.401 -20.877  0.00  0.00    +0.031 C 
ATOM     16  C   UNL     1      33.647 -17.987 -24.722  0.00  0.00    +0.000 C 
ATOM     17  C   UNL     1      33.941 -16.631 -24.570  0.00  0.00    -0.000 C 
ENDBRANCH   2  11
BRANCH   8  20
ATOM     18  N   UNL     1      32.020 -23.114 -16.398  0.00  0.00    -0.343 N 
ATOM     19  N   UNL     1      34.209 -23.763 -15.902  0.00  0.00    -0.285 NA
ATOM     20  C   UNL     1      33.391 -23.025 -16.630  0.00  0.00    +0.117 C 
ATOM     21  H   UNL     1      31.677 -23.721 -15.704  0.00  0.00    +0.144 HD
ATOM     22  H   UNL     1      31.395 -22.568 -16.929  0.00  0.00    +0.144 HD
ATOM     23  H   UNL     1      33.847 -24.365 -15.212  0.00  0.00    +0.188 HD
ENDBRANCH   8  20
TORSDOF 2
ENDMDL
MODEL 3
REMARK VINA RESULT:     -10.8      2.610      7.606
REMARK  Name = 9547945
REMARK  2 active torsions:
REMARK  status: ('A' for Active; 'I' for Inactive)
REMARK    1  A    between atoms: C_2  and  C_11
REMARK    2  A    between atoms: C_8  and  C_20
REMARK                            x       y       z     vdW  Elec       q    Type
REMARK                         _______ _______ _______ _____ _____    ______ ____
ROOT
ATOM      1  N   UNL     1      34.263 -18.291 -22.652  0.00  0.00    -0.313 N 
ATOM      2  C   UNL     1      34.452 -18.202 -21.299  0.00  0.00    +0.048 C 
ATOM      3  C   UNL     1      34.095 -16.130 -22.127  0.00  0.00    +0.015 C 
ATOM      4  C   UNL     1      34.043 -17.041 -23.184  0.00  0.00    +0.048 C 
ATOM      5  C   UNL     1      34.354 -16.877 -20.944  0.00  0.00    +0.016 C 
ATOM      6  C   UNL     1      33.898 -14.761 -22.400  0.00  0.00    +0.004 C 
ATOM      7  C   UNL     1      33.804 -16.650 -24.506  0.00  0.00    +0.015 C 
ATOM      8  C   UNL     1      33.658 -14.356 -23.719  0.00  0.00    +0.031 C 
ATOM      9  C   UNL     1      33.613 -15.288 -24.754  0.00  0.00    +0.004 C 
ATOM     10  H   UNL     1      34.283 -19.128 -23.170  0.00  0.00    +0.152 HD
ENDROOT
BRANCH   2  11
ATOM     11  C   UNL     1      34.705 -19.366 -20.484  0.00  0.00    +0.009 C 
ATOM     12  C   UNL     1      33.662 -20.190 -20.056  0.00  0.00    -0.021 C 
ATOM     13  C   UNL     1      36.020 -19.664 -20.122  0.00  0.00    +0.001 C 
ATOM     14  C   UNL     1      33.934 -21.309 -19.268  0.00  0.00    -0.004 C 
ATOM     15  C   UNL     1      32.241 -19.903 -20.422  0.00  0.00    +0.031 C 
ATOM     16  C   UNL     1      36.290 -20.784 -19.335  0.00  0.00    +0.000 C 
ATOM     17  C   UNL     1      35.247 -21.606 -18.908  0.00  0.00    -0.000 C 
ENDBRANCH   2  11
BRANCH   8  20
ATOM     18  N   UNL     1      33.808 -11.958 -23.091  0.00  0.00    -0.343 N 
ATOM     19  N   UNL     1      32.920 -12.582 -25.161  0.00  0.00    -0.285 NA
ATOM     20  C   UNL     1      33.454 -12.946 -24.009  0.00  0.00    +0.117 C 
ATOM     21  H   UNL     1      33.660 -11.010 -23.308  0.00  0.00    +0.144 HD
ATOM     22  H   UNL     1      34.204 -12.211 -22.225  0.00  0.00    +0.144 HD
ATOM     23  H   UNL     1      32.780 -11.628 -25.360  0.00  0.00    +0.188 HD
ENDBRANCH   8  20
TORSDOF 2
ENDMDL
MODEL 4
REMARK VINA RESULT:     -10.8      5.201      9.229
REMARK  Name = 9547945
REMARK  2 active torsions:
REMARK  status: ('A' for Active; 'I' for Inactive)
REMARK    1  A    between atoms: C_2  and  C_11
REMARK    2  A    between atoms: C_8  and  C_20
REMARK                            x       y       z     vdW  Elec       q    Type
REMARK                         _______ _______ _______ _____ _____    ______ ____
ROOT
ATOM      1  N   UNL     1      36.085 -19.871 -19.421  0.00  0.00    -0.313 N 
ATOM      2  C   UNL     1      35.068 -20.679 -18.990  0.00  0.00    +0.048 C 
ATOM      3  C   UNL     1      34.414 -19.617 -20.875  0.00  0.00    +0.015 C 
ATOM      4  C   UNL     1      35.714 -19.211 -20.570  0.00  0.00    +0.048 C 
ATOM      5  C   UNL     1      34.019 -20.544 -19.869  0.00  0.00    +0.016 C 
ATOM      6  C   UNL     1      33.787 -19.085 -22.020  0.00  0.00    +0.004 C 
ATOM      7  C   UNL     1      36.422 -18.293 -21.355  0.00  0.00    +0.015 C 
ATOM      8  C   UNL     1      34.483 -18.166 -22.815  0.00  0.00    +0.031 C 
ATOM      9  C   UNL     1      35.781 -17.778 -22.485  0.00  0.00    +0.004 C 
ATOM     10  H   UNL     1      36.957 -19.775 -18.973  0.00  0.00    +0.152 HD
ENDROOT
BRANCH   2  11
ATOM     11  C   UNL     1      35.185 -21.489 -17.802  0.00  0.00    +0.009 C 
ATOM     12  C   UNL     1      34.104 -22.232 -17.324  0.00  0.00    -0.021 C 
ATOM     13  C   UNL     1      36.406 -21.525 -17.126  0.00  0.00    +0.001 C 
ATOM     14  C   UNL     1      34.243 -23.008 -16.173  0.00  0.00    -0.004 C 
ATOM     15  C   UNL     1      32.781 -22.219 -18.020  0.00  0.00    +0.031 C 
ATOM     16  C   UNL     1      36.545 -22.301 -15.975  0.00  0.00    +0.000 C 
ATOM     17  C   UNL     1      35.463 -23.042 -15.498  0.00  0.00    -0.000 C 
ENDBRANCH   2  11
BRANCH   8  20
ATOM     18  N   UNL     1      34.061 -16.292 -24.388  0.00  0.00    -0.343 N 
ATOM     19  N   UNL     1      33.036 -18.366 -24.721  0.00  0.00    -0.285 NA
ATOM     20  C   UNL     1      33.844 -17.613 -23.998  0.00  0.00    +0.117 C 
ATOM     21  H   UNL     1      33.617 -15.938 -25.192  0.00  0.00    +0.144 HD
ATOM     22  H   UNL     1      34.657 -15.715 -23.858  0.00  0.00    +0.144 HD
ATOM     23  H   UNL     1      32.601 -17.994 -25.523  0.00  0.00    +0.188 HD
ENDBRANCH   8  20
TORSDOF 2
ENDMDL
MODEL 5
REMARK VINA RESULT:     -10.8      4.537      7.054
REMARK  Name = 9547945
REMARK  2 active torsions:
REMARK  status: ('A' for Active; 'I' for Inactive)
REMARK    1  A    between atoms: C_2  and  C_11
REMARK    2  A    between atoms: C_8  and  C_20
REMARK                            x       y       z     vdW  Elec       q    Type
REMARK                         _______ _______ _______ _____ _____    ______ ____
ROOT
ATOM      1  N   UNL     1      33.320 -19.995 -20.587  0.00  0.00    -0.313 N 
ATOM      2  C   UNL     1      34.353 -19.305 -21.161  0.00  0.00    +0.048 C 
ATOM      3  C   UNL     1      35.140 -20.459 -19.385  0.00  0.00    +0.015 C 
ATOM      4  C   UNL     1      33.771 -20.708 -19.500  0.00  0.00    +0.048 C 
ATOM      5  C   UNL     1      35.493 -19.571 -20.439  0.00  0.00    +0.016 C 
ATOM      6  C   UNL     1      35.856 -21.076 -18.339  0.00  0.00    +0.004 C 
ATOM      7  C   UNL     1      33.079 -21.547 -18.619  0.00  0.00    +0.015 C 
ATOM      8  C   UNL     1      35.177 -21.918 -17.450  0.00  0.00    +0.031 C 
ATOM      9  C   UNL     1      33.809 -22.148 -17.590  0.00  0.00    +0.004 C 
ATOM     10  H   UNL     1      32.388 -19.982 -20.905  0.00  0.00    +0.152 HD
ENDROOT
BRANCH   2  11
ATOM     11  C   UNL     1      34.164 -18.469 -22.322  0.00  0.00    +0.009 C 
ATOM     12  C   UNL     1      34.334 -17.085 -22.253  0.00  0.00    -0.021 C 
ATOM     13  C   UNL     1      33.805 -19.065 -23.533  0.00  0.00    +0.001 C 
ATOM     14  C   UNL     1      34.144 -16.300 -23.390  0.00  0.00    -0.004 C 
ATOM     15  C   UNL     1      34.717 -16.410 -20.975  0.00  0.00    +0.031 C 
ATOM     16  C   UNL     1      33.617 -18.279 -24.670  0.00  0.00    +0.000 C 
ATOM     17  C   UNL     1      33.786 -16.896 -24.598  0.00  0.00    -0.000 C 
ENDBRANCH   2  11
BRANCH   8  20
ATOM     18  N   UNL     1      37.257 -22.284 -16.144  0.00  0.00    -0.343 N 
ATOM     19  N   UNL     1      35.296 -23.425 -15.583  0.00  0.00    -0.285 NA
ATOM     20  C   UNL     1      35.909 -22.559 -16.370  0.00  0.00    +0.117 C 
ATOM     21  H   UNL     1      37.733 -22.730 -15.407  0.00  0.00    +0.144 HD
ATOM     22  H   UNL     1      37.732 -21.644 -16.722  0.00  0.00    +0.144 HD
ATOM     23  H   UNL     1      35.790 -23.861 -14.851  0.00  0.00    +0.188 HD
ENDBRANCH   8  20
TORSDOF 2
ENDMDL
MODEL 6
REMARK VINA RESULT:     -10.7      2.489      7.354
REMARK  Name = 9547945
REMARK  2 active torsions:
REMARK  status: ('A' for Active; 'I' for Inactive)
REMARK    1  A    between atoms: C_2  and  C_11
REMARK    2  A    between atoms: C_8  and  C_20
REMARK                            x       y       z     vdW  Elec       q    Type
REMARK                         _______ _______ _______ _____ _____    ______ ____
ROOT
ATOM      1  N   UNL     1      32.195 -13.052 -21.510  0.00  0.00    -0.313 N 
ATOM      2  C   UNL     1      33.140 -13.401 -22.437  0.00  0.00    +0.048 C 
ATOM      3  C   UNL     1      32.549 -11.245 -22.769  0.00  0.00    +0.015 C 
ATOM      4  C   UNL     1      31.816 -11.741 -21.689  0.00  0.00    +0.048 C 
ATOM      5  C   UNL     1      33.380 -12.304 -23.231  0.00  0.00    +0.016 C 
ATOM      6  C   UNL     1      32.350  -9.908 -23.168  0.00  0.00    +0.004 C 
ATOM      7  C   UNL     1      30.890 -10.964 -20.985  0.00  0.00    +0.015 C 
ATOM      8  C   UNL     1      31.426  -9.118 -22.472  0.00  0.00    +0.031 C 
ATOM      9  C   UNL     1      30.708  -9.641 -21.398  0.00  0.00    +0.004 C 
ATOM     10  H   UNL     1      31.838 -13.652 -20.815  0.00  0.00    +0.152 HD
ENDROOT
BRANCH   2  11
ATOM     11  C   UNL     1      33.716 -14.723 -22.482  0.00  0.00    +0.009 C 
ATOM     12  C   UNL     1      33.798 -15.436 -23.679  0.00  0.00    -0.021 C 
ATOM     13  C   UNL     1      34.197 -15.291 -21.301  0.00  0.00    +0.001 C 
ATOM     14  C   UNL     1      34.360 -16.713 -23.695  0.00  0.00    -0.004 C 
ATOM     15  C   UNL     1      33.293 -14.863 -24.964  0.00  0.00    +0.031 C 
ATOM     16  C   UNL     1      34.759 -16.568 -21.318  0.00  0.00    +0.000 C 
ATOM     17  C   UNL     1      34.840 -17.279 -22.515  0.00  0.00    -0.000 C 
ENDBRANCH   2  11
BRANCH   8  20
ATOM     18  N   UNL     1      31.165  -7.377 -24.223  0.00  0.00    -0.343 N 
ATOM     19  N   UNL     1      31.072  -6.798 -21.960  0.00  0.00    -0.285 NA
ATOM     20  C   UNL     1      31.215  -7.738 -22.877  0.00  0.00    +0.117 C 
ATOM     21  H   UNL     1      31.022  -6.436 -24.474  0.00  0.00    +0.144 HD
ATOM     22  H   UNL     1      31.273  -8.063 -24.920  0.00  0.00    +0.144 HD
ATOM     23  H   UNL     1      30.930  -5.862 -22.231  0.00  0.00    +0.188 HD
ENDBRANCH   8  20
TORSDOF 2
ENDMDL
MODEL 7
REMARK VINA RESULT:     -10.6      6.098      9.224
REMARK  Name = 9547945
REMARK  2 active torsions:
REMARK  status: ('A' for Active; 'I' for Inactive)
REMARK    1  A    between atoms: C_2  and  C_11
REMARK    2  A    between atoms: C_8  and  C_20
REMARK                            x       y       z     vdW  Elec       q    Type
REMARK                         _______ _______ _______ _____ _____    ______ ____
ROOT
ATOM      1  N   UNL     1      36.350 -20.590 -18.198  0.00  0.00    -0.313 N 
ATOM      2  C   UNL     1      35.261 -20.618 -19.026  0.00  0.00    +0.048 C 
ATOM      3  C   UNL     1      34.922 -22.063 -17.322  0.00  0.00    +0.015 C 
ATOM      4  C   UNL     1      36.171 -21.462 -17.149  0.00  0.00    +0.048 C 
ATOM      5  C   UNL     1      34.359 -21.520 -18.512  0.00  0.00    +0.016 C 
ATOM      6  C   UNL     1      34.486 -23.010 -16.374  0.00  0.00    +0.004 C 
ATOM      7  C   UNL     1      37.010 -21.764 -16.070  0.00  0.00    +0.015 C 
ATOM      8  C   UNL     1      35.315 -23.321 -15.289  0.00  0.00    +0.031 C 
ATOM      9  C   UNL     1      36.557 -22.706 -15.142  0.00  0.00    +0.004 C 
ATOM     10  H   UNL     1      37.147 -20.028 -18.333  0.00  0.00    +0.152 HD
ENDROOT
BRANCH   2  11
ATOM     11  C   UNL     1      35.180 -19.799 -20.212  0.00  0.00    +0.009 C 
ATOM     12  C   UNL     1      33.966 -19.600 -20.872  0.00  0.00    -0.021 C 
ATOM     13  C   UNL     1      36.343 -19.199 -20.699  0.00  0.00    +0.001 C 
ATOM     14  C   UNL     1      33.915 -18.803 -22.016  0.00  0.00    -0.004 C 
ATOM     15  C   UNL     1      32.700 -20.226 -20.382  0.00  0.00    +0.031 C 
ATOM     16  C   UNL     1      36.290 -18.402 -21.843  0.00  0.00    +0.000 C 
ATOM     17  C   UNL     1      35.077 -18.204 -22.502  0.00  0.00    -0.000 C 
ENDBRANCH   2  11
BRANCH   8  20
ATOM     18  N   UNL     1      33.583 -24.260 -13.777  0.00  0.00    -0.343 N 
ATOM     19  N   UNL     1      35.703 -25.239 -13.894  0.00  0.00    -0.285 NA
ATOM     20  C   UNL     1      34.873 -24.297 -14.306  0.00  0.00    +0.117 C 
ATOM     21  H   UNL     1      33.306 -24.931 -13.113  0.00  0.00    +0.144 HD
ATOM     22  H   UNL     1      32.952 -23.564 -14.069  0.00  0.00    +0.144 HD
ATOM     23  H   UNL     1      35.406 -25.900 -13.228  0.00  0.00    +0.188 HD
ENDBRANCH   8  20
TORSDOF 2
ENDMDL
MODEL 8
REMARK VINA RESULT:     -10.2     10.470     12.273
REMARK  Name = 9547945
REMARK  2 active torsions:
REMARK  status: ('A' for Active; 'I' for Inactive)
REMARK    1  A    between atoms: C_2  and  C_11
REMARK    2  A    between atoms: C_8  and  C_20
REMARK                            x       y       z     vdW  Elec       q    Type
REMARK                         _______ _______ _______ _____ _____    ______ ____
ROOT
ATOM      1  N   UNL     1      34.602 -22.381 -15.373  0.00  0.00    -0.313 N 
ATOM      2  C   UNL     1      33.656 -23.293 -14.990  0.00  0.00    +0.048 C 
ATOM      3  C   UNL     1      35.704 -24.224 -14.771  0.00  0.00    +0.015 C 
ATOM      4  C   UNL     1      35.861 -22.922 -15.249  0.00  0.00    +0.048 C 
ATOM      5  C   UNL     1      34.306 -24.444 -14.612  0.00  0.00    +0.016 C 
ATOM      6  C   UNL     1      36.852 -25.011 -14.552  0.00  0.00    +0.004 C 
ATOM      7  C   UNL     1      37.116 -22.365 -15.521  0.00  0.00    +0.015 C 
ATOM      8  C   UNL     1      38.114 -24.466 -14.820  0.00  0.00    +0.031 C 
ATOM      9  C   UNL     1      38.241 -23.163 -15.297  0.00  0.00    +0.004 C 
ATOM     10  H   UNL     1      34.410 -21.469 -15.691  0.00  0.00    +0.152 HD
ENDROOT
BRANCH   2  11
ATOM     11  C   UNL     1      32.245 -22.991 -15.020  0.00  0.00    +0.009 C 
ATOM     12  C   UNL     1      31.610 -22.621 -16.207  0.00  0.00    -0.021 C 
ATOM     13  C   UNL     1      31.511 -23.073 -13.836  0.00  0.00    +0.001 C 
ATOM     14  C   UNL     1      30.245 -22.334 -16.209  0.00  0.00    -0.004 C 
ATOM     15  C   UNL     1      32.362 -22.522 -17.496  0.00  0.00    +0.031 C 
ATOM     16  C   UNL     1      30.146 -22.786 -13.839  0.00  0.00    +0.000 C 
ATOM     17  C   UNL     1      29.513 -22.416 -15.025  0.00  0.00    -0.000 C 
ENDBRANCH   2  11
BRANCH   8  20
ATOM     18  N   UNL     1      39.626 -25.752 -13.328  0.00  0.00    -0.343 N 
ATOM     19  N   UNL     1      40.106 -25.554 -15.606  0.00  0.00    -0.285 NA
ATOM     20  C   UNL     1      39.304 -25.271 -14.596  0.00  0.00    +0.117 C 
ATOM     21  H   UNL     1      40.437 -26.295 -13.199  0.00  0.00    +0.144 HD
ATOM     22  H   UNL     1      39.042 -25.549 -12.562  0.00  0.00    +0.144 HD
ATOM     23  H   UNL     1      40.913 -26.099 -15.457  0.00  0.00    +0.188 HD
ENDBRANCH   8  20
TORSDOF 2
ENDMDL
MODEL 9
REMARK VINA RESULT:     -10.1      6.088     10.543
REMARK  Name = 9547945
REMARK  2 active torsions:
REMARK  status: ('A' for Active; 'I' for Inactive)
REMARK    1  A    between atoms: C_2  and  C_11
REMARK    2  A    between atoms: C_8  and  C_20
REMARK                            x       y       z     vdW  Elec       q    Type
REMARK                         _______ _______ _______ _____ _____    ______ ____
ROOT
ATOM      1  N   UNL     1      33.671 -21.844 -17.791  0.00  0.00    -0.313 N 
ATOM      2  C   UNL     1      34.906 -22.032 -17.231  0.00  0.00    +0.048 C 
ATOM      3  C   UNL     1      35.128 -20.762 -19.088  0.00  0.00    +0.015 C 
ATOM      4  C   UNL     1      33.776 -21.073 -18.925  0.00  0.00    +0.048 C 
ATOM      5  C   UNL     1      35.829 -21.375 -18.012  0.00  0.00    +0.016 C 
ATOM      6  C   UNL     1      35.515 -19.971 -20.188  0.00  0.00    +0.004 C 
ATOM      7  C   UNL     1      32.788 -20.630 -19.812  0.00  0.00    +0.015 C 
ATOM      8  C   UNL     1      34.537 -19.521 -21.084  0.00  0.00    +0.031 C 
ATOM      9  C   UNL     1      33.195 -19.848 -20.896  0.00  0.00    +0.004 C 
ATOM     10  H   UNL     1      32.829 -22.209 -17.433  0.00  0.00    +0.152 HD
ENDROOT
BRANCH   2  11
ATOM     11  C   UNL     1      35.092 -22.806 -16.028  0.00  0.00    +0.009 C 
ATOM     12  C   UNL     1      36.339 -22.887 -15.405  0.00  0.00    -0.021 C 
ATOM     13  C   UNL     1      33.998 -23.483 -15.485  0.00  0.00    +0.001 C 
ATOM     14  C   UNL     1      36.491 -23.643 -14.242  0.00  0.00    -0.004 C 
ATOM     15  C   UNL     1      37.534 -22.178 -15.957  0.00  0.00    +0.031 C 
ATOM     16  C   UNL     1      34.152 -24.238 -14.322  0.00  0.00    +0.000 C 
ATOM     17  C   UNL     1      35.398 -24.319 -13.701  0.00  0.00    -0.000 C 
ENDBRANCH   2  11
BRANCH   8  20
ATOM     18  N   UNL     1      36.163 -18.057 -22.258  0.00  0.00    -0.343 N 
ATOM     19  N   UNL     1      34.104 -18.561 -23.243  0.00  0.00    -0.285 NA
ATOM     20  C   UNL     1      34.929 -18.704 -22.221  0.00  0.00    +0.117 C 
ATOM     21  H   UNL     1      36.407 -17.509 -23.038  0.00  0.00    +0.144 HD
ATOM     22  H   UNL     1      36.789 -18.149 -21.504  0.00  0.00    +0.144 HD
ATOM     23  H   UNL     1      34.366 -18.008 -24.014  0.00  0.00    +0.188 HD
ENDBRANCH   8  20
TORSDOF 2
ENDMDL
