MODEL 1
REMARK VINA RESULT:     -11.6      0.000      0.000
REMARK  Name = 44404226
REMARK  3 active torsions:
REMARK  status: ('A' for Active; 'I' for Inactive)
REMARK    1  A    between atoms: C_3  and  C_11
REMARK    2  A    between atoms: C_6  and  C_17
REMARK    3  A    between atoms: C_22  and  C_24
REMARK                            x       y       z     vdW  Elec       q    Type
REMARK                         _______ _______ _______ _____ _____    ______ ____
ROOT
ATOM      1  F   UNL     1      32.222 -13.359 -25.690  0.00  0.00    -0.183 F 
ATOM      2  N   UNL     1      33.340 -15.335 -25.361  0.00  0.00    -0.217 NA
ATOM      3  C   UNL     1      34.385 -15.773 -23.226  0.00  0.00    -0.005 C 
ATOM      4  C   UNL     1      33.950 -14.540 -22.751  0.00  0.00    +0.001 C 
ATOM      5  C   UNL     1      34.056 -16.122 -24.525  0.00  0.00    +0.097 C 
ATOM      6  C   UNL     1      33.212 -13.705 -23.582  0.00  0.00    +0.046 C 
ATOM      7  C   UNL     1      32.935 -14.145 -24.866  0.00  0.00    +0.222 C 
ENDROOT
BRANCH   3  11
ATOM      8  N   UNL     1      35.950 -18.786 -21.623  0.00  0.00    +0.387 N 
ATOM      9  C   UNL     1      35.430 -18.150 -22.852  0.00  0.00    -0.058 C 
ATOM     10  C   UNL     1      34.782 -18.493 -20.776  0.00  0.00    -0.062 C 
ATOM     11  C   UNL     1      35.192 -16.706 -22.348  0.00  0.00    +0.002 C 
ATOM     12  C   UNL     1      34.641 -16.973 -20.925  0.00  0.00    -0.019 C 
ATOM     13  C   UNL     1      34.131 -18.947 -23.024  0.00  0.00    -0.023 C 
ATOM     14  C   UNL     1      33.689 -19.196 -21.579  0.00  0.00    -0.023 C 
ATOM     15  H   UNL     1      36.804 -18.342 -21.282  0.00  0.00    -0.084 HD
ATOM     16  H   UNL     1      36.235 -19.763 -21.695  0.00  0.00    -0.084 HD
ENDBRANCH   3  11
BRANCH   6  17
ATOM     17  C   UNL     1      32.748 -12.419 -23.112  0.00  0.00    +0.004 C 
ATOM     18  C   UNL     1      33.274 -11.247 -23.656  0.00  0.00    +0.001 C 
ATOM     19  C   UNL     1      31.775 -12.350 -22.116  0.00  0.00    +0.001 C 
ATOM     20  C   UNL     1      32.827 -10.006 -23.202  0.00  0.00    +0.010 C 
ATOM     21  C   UNL     1      31.327 -11.109 -21.663  0.00  0.00    +0.010 C 
ATOM     22  C   UNL     1      31.853  -9.937 -22.206  0.00  0.00    +0.068 C 
BRANCH  22  24
ATOM     23  N   UNL     1      31.021  -7.633 -21.366  0.00  0.00    -0.191 NA
ATOM     24  C   UNL     1      31.394  -8.666 -21.742  0.00  0.00    +0.100 C 
ENDBRANCH  22  24
ENDBRANCH   6  17
TORSDOF 3
ENDMDL
MODEL 2
REMARK VINA RESULT:     -11.5      0.085      1.032
REMARK  Name = 44404226
REMARK  3 active torsions:
REMARK  status: ('A' for Active; 'I' for Inactive)
REMARK    1  A    between atoms: C_3  and  C_11
REMARK    2  A    between atoms: C_6  and  C_17
REMARK    3  A    between atoms: C_22  and  C_24
REMARK                            x       y       z     vdW  Elec       q    Type
REMARK                         _______ _______ _______ _____ _____    ______ ____
ROOT
ATOM      1  F   UNL     1      32.299 -13.334 -25.773  0.00  0.00    -0.183 F 
ATOM      2  N   UNL     1      33.412 -15.309 -25.423  0.00  0.00    -0.217 NA
ATOM      3  C   UNL     1      34.397 -15.756 -23.261  0.00  0.00    -0.005 C 
ATOM      4  C   UNL     1      33.947 -14.527 -22.793  0.00  0.00    +0.001 C 
ATOM      5  C   UNL     1      34.106 -16.099 -24.572  0.00  0.00    +0.097 C 
ATOM      6  C   UNL     1      33.230 -13.688 -23.640  0.00  0.00    +0.046 C 
ATOM      7  C   UNL     1      32.991 -14.122 -24.933  0.00  0.00    +0.222 C 
ENDROOT
BRANCH   3  11
ATOM      8  N   UNL     1      35.886 -18.777 -21.600  0.00  0.00    +0.387 N 
ATOM      9  C   UNL     1      35.380 -18.151 -22.841  0.00  0.00    -0.058 C 
ATOM     10  C   UNL     1      34.728 -18.435 -20.757  0.00  0.00    -0.062 C 
ATOM     11  C   UNL     1      35.181 -16.692 -22.366  0.00  0.00    +0.002 C 
ATOM     12  C   UNL     1      34.627 -16.915 -20.937  0.00  0.00    -0.019 C 
ATOM     13  C   UNL     1      34.060 -18.917 -22.994  0.00  0.00    -0.023 C 
ATOM     14  C   UNL     1      33.615 -19.125 -21.544  0.00  0.00    -0.023 C 
ATOM     15  H   UNL     1      36.752 -18.349 -21.270  0.00  0.00    -0.084 HD
ATOM     16  H   UNL     1      36.144 -19.762 -21.653  0.00  0.00    -0.084 HD
ENDBRANCH   3  11
BRANCH   6  17
ATOM     17  C   UNL     1      32.750 -12.406 -23.176  0.00  0.00    +0.004 C 
ATOM     18  C   UNL     1      31.713 -12.347 -22.245  0.00  0.00    +0.001 C 
ATOM     19  C   UNL     1      33.323 -11.230 -23.658  0.00  0.00    +0.001 C 
ATOM     20  C   UNL     1      31.248 -11.110 -21.797  0.00  0.00    +0.010 C 
ATOM     21  C   UNL     1      32.859  -9.993 -23.210  0.00  0.00    +0.010 C 
ATOM     22  C   UNL     1      31.821  -9.934 -22.279  0.00  0.00    +0.068 C 
BRANCH  22  24
ATOM     23  N   UNL     1      30.960  -7.637 -21.447  0.00  0.00    -0.191 NA
ATOM     24  C   UNL     1      31.346  -8.667 -21.820  0.00  0.00    +0.100 C 
ENDBRANCH  22  24
ENDBRANCH   6  17
TORSDOF 3
ENDMDL
MODEL 3
REMARK VINA RESULT:     -11.1      5.292     10.246
REMARK  Name = 44404226
REMARK  3 active torsions:
REMARK  status: ('A' for Active; 'I' for Inactive)
REMARK    1  A    between atoms: C_3  and  C_11
REMARK    2  A    between atoms: C_6  and  C_17
REMARK    3  A    between atoms: C_22  and  C_24
REMARK                            x       y       z     vdW  Elec       q    Type
REMARK                         _______ _______ _______ _____ _____    ______ ____
ROOT
ATOM      1  F   UNL     1      32.317 -22.035 -17.554  0.00  0.00    -0.183 F 
ATOM      2  N   UNL     1      32.226 -20.913 -19.553  0.00  0.00    -0.217 NA
ATOM      3  C   UNL     1      34.270 -20.110 -20.563  0.00  0.00    -0.005 C 
ATOM      4  C   UNL     1      35.006 -20.627 -19.503  0.00  0.00    +0.001 C 
ATOM      5  C   UNL     1      32.895 -20.278 -20.542  0.00  0.00    +0.097 C 
ATOM      6  C   UNL     1      34.353 -21.285 -18.468  0.00  0.00    +0.046 C 
ATOM      7  C   UNL     1      32.975 -21.402 -18.540  0.00  0.00    +0.222 C 
ENDROOT
BRANCH   3  11
ATOM      8  N   UNL     1      35.993 -17.569 -22.725  0.00  0.00    +0.387 N 
ATOM      9  C   UNL     1      35.783 -18.125 -21.371  0.00  0.00    -0.058 C 
ATOM     10  C   UNL     1      34.569 -17.431 -23.072  0.00  0.00    -0.062 C 
ATOM     11  C   UNL     1      34.950 -19.386 -21.706  0.00  0.00    +0.002 C 
ATOM     12  C   UNL     1      34.033 -18.848 -22.833  0.00  0.00    -0.019 C 
ATOM     13  C   UNL     1      34.944 -16.997 -20.758  0.00  0.00    -0.023 C 
ATOM     14  C   UNL     1      34.110 -16.507 -21.945  0.00  0.00    -0.023 C 
ATOM     15  H   UNL     1      36.487 -18.215 -23.343  0.00  0.00    -0.084 HD
ATOM     16  H   UNL     1      36.569 -16.730 -22.794  0.00  0.00    -0.084 HD
ENDBRANCH   3  11
BRANCH   6  17
ATOM     17  C   UNL     1      35.097 -21.833 -17.356  0.00  0.00    +0.004 C 
ATOM     18  C   UNL     1      36.443 -21.507 -17.191  0.00  0.00    +0.001 C 
ATOM     19  C   UNL     1      34.470 -22.686 -16.449  0.00  0.00    +0.001 C 
ATOM     20  C   UNL     1      37.162 -22.035 -16.118  0.00  0.00    +0.010 C 
ATOM     21  C   UNL     1      35.188 -23.213 -15.375  0.00  0.00    +0.010 C 
ATOM     22  C   UNL     1      36.534 -22.888 -15.211  0.00  0.00    +0.068 C 
BRANCH  22  24
ATOM     23  N   UNL     1      37.868 -23.867 -13.218  0.00  0.00    -0.191 NA
ATOM     24  C   UNL     1      37.270 -23.428 -14.111  0.00  0.00    +0.100 C 
ENDBRANCH  22  24
ENDBRANCH   6  17
TORSDOF 3
ENDMDL
MODEL 4
REMARK VINA RESULT:     -10.8      7.493     11.211
REMARK  Name = 44404226
REMARK  3 active torsions:
REMARK  status: ('A' for Active; 'I' for Inactive)
REMARK    1  A    between atoms: C_3  and  C_11
REMARK    2  A    between atoms: C_6  and  C_17
REMARK    3  A    between atoms: C_22  and  C_24
REMARK                            x       y       z     vdW  Elec       q    Type
REMARK                         _______ _______ _______ _____ _____    ______ ____
ROOT
ATOM      1  F   UNL     1      32.144 -22.909 -17.099  0.00  0.00    -0.183 F 
ATOM      2  N   UNL     1      33.273 -23.715 -15.272  0.00  0.00    -0.217 NA
ATOM      3  C   UNL     1      35.611 -23.174 -14.981  0.00  0.00    -0.005 C 
ATOM      4  C   UNL     1      35.595 -22.434 -16.158  0.00  0.00    +0.001 C 
ATOM      5  C   UNL     1      34.435 -23.790 -14.584  0.00  0.00    +0.097 C 
ATOM      6  C   UNL     1      34.419 -22.335 -16.892  0.00  0.00    +0.046 C 
ATOM      7  C   UNL     1      33.296 -22.988 -16.411  0.00  0.00    +0.222 C 
ENDROOT
BRANCH   3  11
ATOM      8  N   UNL     1      38.691 -24.446 -13.249  0.00  0.00    +0.387 N 
ATOM      9  C   UNL     1      37.789 -24.524 -14.418  0.00  0.00    -0.058 C 
ATOM     10  C   UNL     1      37.640 -24.528 -12.222  0.00  0.00    -0.062 C 
ATOM     11  C   UNL     1      36.875 -23.303 -14.157  0.00  0.00    +0.002 C 
ATOM     12  C   UNL     1      36.700 -23.383 -12.621  0.00  0.00    -0.019 C 
ATOM     13  C   UNL     1      37.100 -25.862 -14.122  0.00  0.00    -0.023 C 
ATOM     14  C   UNL     1      37.009 -25.869 -12.593  0.00  0.00    -0.023 C 
ATOM     15  H   UNL     1      39.209 -23.568 -13.212  0.00  0.00    -0.084 HD
ATOM     16  H   UNL     1      39.440 -25.136 -13.199  0.00  0.00    -0.084 HD
ENDBRANCH   3  11
BRANCH   6  17
ATOM     17  C   UNL     1      34.376 -21.570 -18.118  0.00  0.00    +0.004 C 
ATOM     18  C   UNL     1      35.560 -21.102 -18.688  0.00  0.00    +0.001 C 
ATOM     19  C   UNL     1      33.153 -21.300 -18.730  0.00  0.00    +0.001 C 
ATOM     20  C   UNL     1      35.519 -20.363 -19.871  0.00  0.00    +0.010 C 
ATOM     21  C   UNL     1      33.112 -20.562 -19.913  0.00  0.00    +0.010 C 
ATOM     22  C   UNL     1      34.296 -20.094 -20.483  0.00  0.00    +0.068 C 
BRANCH  22  24
ATOM     23  N   UNL     1      34.221 -18.723 -22.679  0.00  0.00    -0.191 NA
ATOM     24  C   UNL     1      34.254 -19.338 -21.695  0.00  0.00    +0.100 C 
ENDBRANCH  22  24
ENDBRANCH   6  17
TORSDOF 3
ENDMDL
MODEL 5
REMARK VINA RESULT:     -10.4      7.487     11.340
REMARK  Name = 44404226
REMARK  3 active torsions:
REMARK  status: ('A' for Active; 'I' for Inactive)
REMARK    1  A    between atoms: C_3  and  C_11
REMARK    2  A    between atoms: C_6  and  C_17
REMARK    3  A    between atoms: C_22  and  C_24
REMARK                            x       y       z     vdW  Elec       q    Type
REMARK                         _______ _______ _______ _____ _____    ______ ____
ROOT
ATOM      1  F   UNL     1      31.374 -22.256 -16.940  0.00  0.00    -0.183 F 
ATOM      2  N   UNL     1      32.171 -23.485 -15.175  0.00  0.00    -0.217 NA
ATOM      3  C   UNL     1      34.554 -23.816 -14.932  0.00  0.00    -0.005 C 
ATOM      4  C   UNL     1      34.783 -23.068 -16.082  0.00  0.00    +0.001 C 
ATOM      5  C   UNL     1      33.242 -23.993 -14.523  0.00  0.00    +0.097 C 
ATOM      6  C   UNL     1      33.707 -22.531 -16.779  0.00  0.00    +0.046 C 
ATOM      7  C   UNL     1      32.433 -22.765 -16.288  0.00  0.00    +0.222 C 
ENDROOT
BRANCH   3  11
ATOM      8  N   UNL     1      36.936 -24.859 -12.223  0.00  0.00    +0.387 N 
ATOM      9  C   UNL     1      35.545 -24.547 -12.616  0.00  0.00    -0.058 C 
ATOM     10  C   UNL     1      37.547 -23.647 -12.794  0.00  0.00    -0.062 C 
ATOM     11  C   UNL     1      35.702 -24.416 -14.150  0.00  0.00    +0.002 C 
ATOM     12  C   UNL     1      37.067 -23.690 -14.250  0.00  0.00    -0.019 C 
ATOM     13  C   UNL     1      35.378 -23.194 -11.913  0.00  0.00    -0.023 C 
ATOM     14  C   UNL     1      36.775 -22.575 -12.026  0.00  0.00    -0.023 C 
ATOM     15  H   UNL     1      37.283 -25.715 -12.658  0.00  0.00    -0.084 HD
ATOM     16  H   UNL     1      37.106 -25.040 -11.234  0.00  0.00    -0.084 HD
ENDBRANCH   3  11
BRANCH   6  17
ATOM     17  C   UNL     1      33.919 -21.749 -17.976  0.00  0.00    +0.004 C 
ATOM     18  C   UNL     1      32.827 -21.325 -18.734  0.00  0.00    +0.001 C 
ATOM     19  C   UNL     1      35.214 -21.418 -18.373  0.00  0.00    +0.001 C 
ATOM     20  C   UNL     1      33.031 -20.571 -19.890  0.00  0.00    +0.010 C 
ATOM     21  C   UNL     1      35.418 -20.663 -19.528  0.00  0.00    +0.010 C 
ATOM     22  C   UNL     1      34.326 -20.240 -20.286  0.00  0.00    +0.068 C 
BRANCH  22  24
ATOM     23  N   UNL     1      34.705 -18.838 -22.431  0.00  0.00    -0.191 NA
ATOM     24  C   UNL     1      34.535 -19.467 -21.470  0.00  0.00    +0.100 C 
ENDBRANCH  22  24
ENDBRANCH   6  17
TORSDOF 3
ENDMDL
MODEL 6
REMARK VINA RESULT:     -10.2      2.225      8.274
REMARK  Name = 44404226
REMARK  3 active torsions:
REMARK  status: ('A' for Active; 'I' for Inactive)
REMARK    1  A    between atoms: C_3  and  C_11
REMARK    2  A    between atoms: C_6  and  C_17
REMARK    3  A    between atoms: C_22  and  C_24
REMARK                            x       y       z     vdW  Elec       q    Type
REMARK                         _______ _______ _______ _____ _____    ______ ____
ROOT
ATOM      1  F   UNL     1      31.130 -12.898 -20.183  0.00  0.00    -0.183 F 
ATOM      2  N   UNL     1      30.751 -10.749 -20.891  0.00  0.00    -0.217 NA
ATOM      3  C   UNL     1      32.051  -9.850 -22.720  0.00  0.00    -0.005 C 
ATOM      4  C   UNL     1      32.743 -11.051 -22.829  0.00  0.00    +0.001 C 
ATOM      5  C   UNL     1      31.073  -9.750 -21.745  0.00  0.00    +0.097 C 
ATOM      6  C   UNL     1      32.441 -12.100 -21.969  0.00  0.00    +0.046 C 
ATOM      7  C   UNL     1      31.445 -11.901 -21.027  0.00  0.00    +0.222 C 
ENDROOT
BRANCH   3  11
ATOM      8  N   UNL     1      33.252  -6.605 -24.178  0.00  0.00    +0.387 N 
ATOM      9  C   UNL     1      33.485  -7.713 -23.227  0.00  0.00    -0.058 C 
ATOM     10  C   UNL     1      31.864  -6.327 -23.775  0.00  0.00    -0.062 C 
ATOM     11  C   UNL     1      32.356  -8.687 -23.641  0.00  0.00    +0.002 C 
ATOM     12  C   UNL     1      31.197  -7.700 -23.923  0.00  0.00    -0.019 C 
ATOM     13  C   UNL     1      33.194  -6.984 -21.909  0.00  0.00    -0.023 C 
ATOM     14  C   UNL     1      32.076  -6.012 -22.295  0.00  0.00    -0.023 C 
ATOM     15  H   UNL     1      33.326  -6.902 -25.152  0.00  0.00    -0.084 HD
ATOM     16  H   UNL     1      33.908  -5.824 -24.145  0.00  0.00    -0.084 HD
ENDBRANCH   3  11
BRANCH   6  17
ATOM     17  C   UNL     1      33.145 -13.359 -22.063  0.00  0.00    +0.004 C 
ATOM     18  C   UNL     1      33.506 -14.043 -20.902  0.00  0.00    +0.001 C 
ATOM     19  C   UNL     1      33.462 -13.889 -23.313  0.00  0.00    +0.001 C 
ATOM     20  C   UNL     1      34.186 -15.258 -20.993  0.00  0.00    +0.010 C 
ATOM     21  C   UNL     1      34.141 -15.105 -23.403  0.00  0.00    +0.010 C 
ATOM     22  C   UNL     1      34.503 -15.789 -22.243  0.00  0.00    +0.068 C 
BRANCH  22  24
ATOM     23  N   UNL     1      35.764 -18.045 -22.410  0.00  0.00    -0.191 NA
ATOM     24  C   UNL     1      35.199 -17.033 -22.335  0.00  0.00    +0.100 C 
ENDBRANCH  22  24
ENDBRANCH   6  17
TORSDOF 3
ENDMDL
MODEL 7
REMARK VINA RESULT:     -10.1      2.455      8.560
REMARK  Name = 44404226
REMARK  3 active torsions:
REMARK  status: ('A' for Active; 'I' for Inactive)
REMARK    1  A    between atoms: C_3  and  C_11
REMARK    2  A    between atoms: C_6  and  C_17
REMARK    3  A    between atoms: C_22  and  C_24
REMARK                            x       y       z     vdW  Elec       q    Type
REMARK                         _______ _______ _______ _____ _____    ______ ____
ROOT
ATOM      1  F   UNL     1      31.357 -11.979 -19.840  0.00  0.00    -0.183 F 
ATOM      2  N   UNL     1      30.891  -9.826 -20.479  0.00  0.00    -0.217 NA
ATOM      3  C   UNL     1      31.665  -9.025 -22.624  0.00  0.00    -0.005 C 
ATOM      4  C   UNL     1      32.245 -10.261 -22.885  0.00  0.00    +0.001 C 
ATOM      5  C   UNL     1      31.004  -8.859 -21.418  0.00  0.00    +0.097 C 
ATOM      6  C   UNL     1      32.150 -11.279 -21.943  0.00  0.00    +0.046 C 
ATOM      7  C   UNL     1      31.467 -11.013 -20.768  0.00  0.00    +0.222 C 
ENDROOT
BRANCH   3  11
ATOM      8  N   UNL     1      32.683  -5.975 -24.564  0.00  0.00    +0.387 N 
ATOM      9  C   UNL     1      33.099  -7.144 -23.759  0.00  0.00    -0.058 C 
ATOM     10  C   UNL     1      31.662  -5.481 -23.626  0.00  0.00    -0.062 C 
ATOM     11  C   UNL     1      31.752  -7.895 -23.628  0.00  0.00    +0.002 C 
ATOM     12  C   UNL     1      30.769  -6.714 -23.433  0.00  0.00    -0.019 C 
ATOM     13  C   UNL     1      33.516  -6.431 -22.467  0.00  0.00    -0.023 C 
ATOM     14  C   UNL     1      32.524  -5.267 -22.383  0.00  0.00    -0.023 C 
ATOM     15  H   UNL     1      32.291  -6.240 -25.468  0.00  0.00    -0.084 HD
ATOM     16  H   UNL     1      33.416  -5.320 -24.836  0.00  0.00    -0.084 HD
ENDBRANCH   3  11
BRANCH   6  17
ATOM     17  C   UNL     1      32.743 -12.573 -22.192  0.00  0.00    +0.004 C 
ATOM     18  C   UNL     1      32.703 -13.122 -23.474  0.00  0.00    +0.001 C 
ATOM     19  C   UNL     1      33.354 -13.272 -21.153  0.00  0.00    +0.001 C 
ATOM     20  C   UNL     1      33.275 -14.372 -23.715  0.00  0.00    +0.010 C 
ATOM     21  C   UNL     1      33.927 -14.521 -21.394  0.00  0.00    +0.010 C 
ATOM     22  C   UNL     1      33.887 -15.071 -22.675  0.00  0.00    +0.068 C 
BRANCH  22  24
ATOM     23  N   UNL     1      34.950 -17.390 -23.123  0.00  0.00    -0.191 NA
ATOM     24  C   UNL     1      34.474 -16.350 -22.922  0.00  0.00    +0.100 C 
ENDBRANCH  22  24
ENDBRANCH   6  17
TORSDOF 3
ENDMDL
MODEL 8
REMARK VINA RESULT:     -10.1      7.087     10.874
REMARK  Name = 44404226
REMARK  3 active torsions:
REMARK  status: ('A' for Active; 'I' for Inactive)
REMARK    1  A    between atoms: C_3  and  C_11
REMARK    2  A    between atoms: C_6  and  C_17
REMARK    3  A    between atoms: C_22  and  C_24
REMARK                            x       y       z     vdW  Elec       q    Type
REMARK                         _______ _______ _______ _____ _____    ______ ____
ROOT
ATOM      1  F   UNL     1      36.475 -21.590 -16.953  0.00  0.00    -0.183 F 
ATOM      2  N   UNL     1      35.449 -22.915 -15.387  0.00  0.00    -0.217 NA
ATOM      3  C   UNL     1      33.117 -23.493 -15.658  0.00  0.00    -0.005 C 
ATOM      4  C   UNL     1      33.064 -22.759 -16.838  0.00  0.00    +0.001 C 
ATOM      5  C   UNL     1      34.322 -23.540 -14.976  0.00  0.00    +0.097 C 
ATOM      6  C   UNL     1      34.202 -22.103 -17.292  0.00  0.00    +0.046 C 
ATOM      7  C   UNL     1      35.359 -22.212 -16.538  0.00  0.00    +0.222 C 
ENDROOT
BRANCH   3  11
ATOM      8  N   UNL     1      29.710 -24.363 -14.339  0.00  0.00    +0.387 N 
ATOM      9  C   UNL     1      30.535 -23.485 -15.198  0.00  0.00    -0.058 C 
ATOM     10  C   UNL     1      30.545 -24.247 -13.132  0.00  0.00    -0.062 C 
ATOM     11  C   UNL     1      31.896 -24.219 -15.134  0.00  0.00    +0.002 C 
ATOM     12  C   UNL     1      31.930 -24.658 -13.650  0.00  0.00    -0.019 C 
ATOM     13  C   UNL     1      30.505 -22.203 -14.358  0.00  0.00    -0.023 C 
ATOM     14  C   UNL     1      30.499 -22.735 -12.921  0.00  0.00    -0.023 C 
ATOM     15  H   UNL     1      29.659 -25.319 -14.691  0.00  0.00    -0.084 HD
ATOM     16  H   UNL     1      28.725 -24.119 -14.244  0.00  0.00    -0.084 HD
ENDBRANCH   3  11
BRANCH   6  17
ATOM     17  C   UNL     1      34.173 -21.336 -18.516  0.00  0.00    +0.004 C 
ATOM     18  C   UNL     1      32.950 -20.980 -19.086  0.00  0.00    +0.001 C 
ATOM     19  C   UNL     1      35.365 -20.951 -19.128  0.00  0.00    +0.001 C 
ATOM     20  C   UNL     1      32.920 -20.240 -20.268  0.00  0.00    +0.010 C 
ATOM     21  C   UNL     1      35.336 -20.210 -20.310  0.00  0.00    +0.010 C 
ATOM     22  C   UNL     1      34.113 -19.855 -20.879  0.00  0.00    +0.068 C 
BRANCH  22  24
ATOM     23  N   UNL     1      34.059 -18.479 -23.073  0.00  0.00    -0.191 NA
ATOM     24  C   UNL     1      34.083 -19.096 -22.090  0.00  0.00    +0.100 C 
ENDBRANCH  22  24
ENDBRANCH   6  17
TORSDOF 3
ENDMDL
MODEL 9
REMARK VINA RESULT:      -9.6     10.580     12.501
REMARK  Name = 44404226
REMARK  3 active torsions:
REMARK  status: ('A' for Active; 'I' for Inactive)
REMARK    1  A    between atoms: C_3  and  C_11
REMARK    2  A    between atoms: C_6  and  C_17
REMARK    3  A    between atoms: C_22  and  C_24
REMARK                            x       y       z     vdW  Elec       q    Type
REMARK                         _______ _______ _______ _____ _____    ______ ____
ROOT
ATOM      1  F   UNL     1      34.518 -21.296 -17.830  0.00  0.00    -0.183 F 
ATOM      2  N   UNL     1      36.604 -21.815 -17.028  0.00  0.00    -0.217 NA
ATOM      3  C   UNL     1      36.814 -23.109 -14.997  0.00  0.00    -0.005 C 
ATOM      4  C   UNL     1      35.429 -23.174 -14.887  0.00  0.00    +0.001 C 
ATOM      5  C   UNL     1      37.348 -22.424 -16.077  0.00  0.00    +0.097 C 
ATOM      6  C   UNL     1      34.632 -22.559 -15.845  0.00  0.00    +0.046 C 
ATOM      7  C   UNL     1      35.263 -21.899 -16.887  0.00  0.00    +0.222 C 
ENDROOT
BRANCH   3  11
ATOM      8  N   UNL     1      38.830 -25.561 -12.991  0.00  0.00    +0.387 N 
ATOM      9  C   UNL     1      38.314 -25.150 -14.315  0.00  0.00    -0.058 C 
ATOM     10  C   UNL     1      37.544 -25.484 -12.279  0.00  0.00    -0.062 C 
ATOM     11  C   UNL     1      37.710 -23.767 -13.970  0.00  0.00    +0.002 C 
ATOM     12  C   UNL     1      37.085 -24.052 -12.581  0.00  0.00    -0.019 C 
ATOM     13  C   UNL     1      37.249 -26.234 -14.523  0.00  0.00    -0.023 C 
ATOM     14  C   UNL     1      36.724 -26.475 -13.105  0.00  0.00    -0.023 C 
ATOM     15  H   UNL     1      39.523 -24.910 -12.621  0.00  0.00    -0.084 HD
ATOM     16  H   UNL     1      39.329 -26.449 -12.948  0.00  0.00    -0.084 HD
ENDBRANCH   3  11
BRANCH   6  17
ATOM     17  C   UNL     1      33.191 -22.614 -15.754  0.00  0.00    +0.004 C 
ATOM     18  C   UNL     1      32.417 -22.568 -16.914  0.00  0.00    +0.001 C 
ATOM     19  C   UNL     1      32.574 -22.713 -14.507  0.00  0.00    +0.001 C 
ATOM     20  C   UNL     1      31.026 -22.621 -16.826  0.00  0.00    +0.010 C 
ATOM     21  C   UNL     1      31.183 -22.767 -14.420  0.00  0.00    +0.010 C 
ATOM     22  C   UNL     1      30.409 -22.721 -15.579  0.00  0.00    +0.068 C 
BRANCH  22  24
ATOM     23  N   UNL     1      27.826 -22.820 -15.417  0.00  0.00    -0.191 NA
ATOM     24  C   UNL     1      28.984 -22.775 -15.490  0.00  0.00    +0.100 C 
ENDBRANCH  22  24
ENDBRANCH   6  17
TORSDOF 3
ENDMDL
