MODEL 1
REMARK VINA RESULT:     -11.8      0.000      0.000
REMARK  Name = 10411846
REMARK  5 active torsions:
REMARK  status: ('A' for Active; 'I' for Inactive)
REMARK    1  A    between atoms: C_2  and  S_17
REMARK    2  A    between atoms: C_3  and  C_11
REMARK    3  A    between atoms: C_4  and  S_25
REMARK    4  A    between atoms: S_17  and  C_19
REMARK    5  A    between atoms: S_25  and  C_29
REMARK                            x       y       z     vdW  Elec       q    Type
REMARK                         _______ _______ _______ _____ _____    ______ ____
ROOT
ATOM      1  N   UNL     1      30.735 -23.448 -15.940  0.00  0.00    -0.394 NA
ATOM      2  C   UNL     1      32.946 -23.179 -15.013  0.00  0.00    +0.060 C 
ATOM      3  C   UNL     1      31.995 -22.961 -15.993  0.00  0.00    +0.191 C 
ATOM      4  C   UNL     1      30.422 -24.186 -14.851  0.00  0.00    +0.145 C 
ATOM      5  C   UNL     1      32.591 -23.940 -13.909  0.00  0.00    -0.009 C 
ATOM      6  C   UNL     1      31.305 -24.458 -13.819  0.00  0.00    +0.093 C 
ENDROOT
BRANCH   3  11
ATOM      7  S   UNL     1      35.861 -21.240 -18.633  0.00  0.00    -0.060 S 
ATOM      8  O   UNL     1      31.318 -21.765 -17.865  0.00  0.00    -0.267 OA
ATOM      9  N   UNL     1      33.627 -21.981 -17.481  0.00  0.00    -0.249 N 
ATOM     10  N   UNL     1      33.493 -20.709 -19.522  0.00  0.00    -0.388 NA
ATOM     11  C   UNL     1      32.272 -22.176 -17.189  0.00  0.00    +0.282 C 
ATOM     12  C   UNL     1      34.160 -21.293 -18.575  0.00  0.00    +0.213 C 
ATOM     13  C   UNL     1      34.403 -20.153 -20.401  0.00  0.00    +0.101 C 
ATOM     14  C   UNL     1      35.733 -20.336 -20.086  0.00  0.00    +0.120 C 
ATOM     15  C   UNL     1      33.887 -19.426 -21.577  0.00  0.00    +0.063 C 
ATOM     16  H   UNL     1      34.273 -22.369 -16.847  0.00  0.00    +0.158 HD
ENDBRANCH   3  11
BRANCH   2  17
ATOM     17  S   UNL     1      34.604 -22.520 -15.113  0.00  0.00    -0.085 S 
BRANCH  17  19
ATOM     18  F   UNL     1      37.527 -26.202 -11.529  0.00  0.00    -0.204 F 
ATOM     19  C   UNL     1      35.486 -23.629 -14.032  0.00  0.00    +0.030 C 
ATOM     20  C   UNL     1      35.929 -24.863 -14.511  0.00  0.00    +0.009 C 
ATOM     21  C   UNL     1      35.731 -23.265 -12.709  0.00  0.00    +0.009 C 
ATOM     22  C   UNL     1      36.619 -25.732 -13.664  0.00  0.00    +0.030 C 
ATOM     23  C   UNL     1      36.421 -24.134 -11.863  0.00  0.00    +0.030 C 
ATOM     24  C   UNL     1      36.865 -25.368 -12.341  0.00  0.00    +0.140 C 
ENDBRANCH  17  19
ENDBRANCH   2  17
BRANCH   4  25
ATOM     25  S   UNL     1      28.760 -24.832 -14.777  0.00  0.00    -0.023 S 
BRANCH  25  29
ATOM     26  N   UNL     1      27.702 -22.468 -15.618  0.00  0.00    -0.246 N 
ATOM     27  N   UNL     1      27.470 -24.098 -17.059  0.00  0.00    -0.124 NA
ATOM     28  N   UNL     1      26.900 -22.960 -17.593  0.00  0.00    -0.128 NA
ATOM     29  C   UNL     1      27.915 -23.745 -15.916  0.00  0.00    +0.191 C 
ATOM     30  C   UNL     1      28.046 -21.701 -14.445  0.00  0.00    +0.121 C 
ATOM     31  C   UNL     1      27.049 -21.994 -16.715  0.00  0.00    +0.193 C 
ENDBRANCH  25  29
ENDBRANCH   4  25
TORSDOF 5
ENDMDL
MODEL 2
REMARK VINA RESULT:     -11.3      2.297      5.925
REMARK  Name = 10411846
REMARK  5 active torsions:
REMARK  status: ('A' for Active; 'I' for Inactive)
REMARK    1  A    between atoms: C_2  and  S_17
REMARK    2  A    between atoms: C_3  and  C_11
REMARK    3  A    between atoms: C_4  and  S_25
REMARK    4  A    between atoms: S_17  and  C_19
REMARK    5  A    between atoms: S_25  and  C_29
REMARK                            x       y       z     vdW  Elec       q    Type
REMARK                         _______ _______ _______ _____ _____    ______ ____
ROOT
ATOM      1  N   UNL     1      34.643 -22.105 -17.372  0.00  0.00    -0.394 NA
ATOM      2  C   UNL     1      35.850 -22.243 -15.288  0.00  0.00    +0.060 C 
ATOM      3  C   UNL     1      34.740 -22.482 -16.077  0.00  0.00    +0.191 C 
ATOM      4  C   UNL     1      35.712 -21.460 -17.891  0.00  0.00    +0.145 C 
ATOM      5  C   UNL     1      36.929 -21.578 -15.852  0.00  0.00    -0.009 C 
ATOM      6  C   UNL     1      36.866 -21.176 -17.181  0.00  0.00    +0.093 C 
ENDROOT
BRANCH   3  11
ATOM      7  S   UNL     1      29.765 -22.224 -16.323  0.00  0.00    -0.060 S 
ATOM      8  O   UNL     1      33.711 -24.173 -14.863  0.00  0.00    -0.267 OA
ATOM      9  N   UNL     1      32.331 -22.633 -15.981  0.00  0.00    -0.249 N 
ATOM     10  N   UNL     1      30.781 -24.153 -14.936  0.00  0.00    -0.388 NA
ATOM     11  C   UNL     1      33.558 -23.171 -15.575  0.00  0.00    +0.282 C 
ATOM     12  C   UNL     1      31.057 -23.116 -15.664  0.00  0.00    +0.213 C 
ATOM     13  C   UNL     1      29.406 -24.276 -14.878  0.00  0.00    +0.101 C 
ATOM     14  C   UNL     1      28.687 -23.323 -15.567  0.00  0.00    +0.120 C 
ATOM     15  C   UNL     1      28.835 -25.393 -14.099  0.00  0.00    +0.063 C 
ATOM     16  H   UNL     1      32.368 -21.830 -16.549  0.00  0.00    +0.158 HD
ENDBRANCH   3  11
BRANCH   2  17
ATOM     17  S   UNL     1      35.947 -22.755 -13.578  0.00  0.00    -0.085 S 
BRANCH  17  19
ATOM     18  F   UNL     1      40.686 -26.287 -13.700  0.00  0.00    -0.204 F 
ATOM     19  C   UNL     1      37.376 -23.820 -13.614  0.00  0.00    +0.030 C 
ATOM     20  C   UNL     1      38.231 -23.802 -14.717  0.00  0.00    +0.009 C 
ATOM     21  C   UNL     1      37.638 -24.671 -12.542  0.00  0.00    +0.009 C 
ATOM     22  C   UNL     1      39.349 -24.635 -14.745  0.00  0.00    +0.030 C 
ATOM     23  C   UNL     1      38.757 -25.505 -12.571  0.00  0.00    +0.030 C 
ATOM     24  C   UNL     1      39.612 -25.487 -13.673  0.00  0.00    +0.140 C 
ENDBRANCH  17  19
ENDBRANCH   2  17
BRANCH   4  25
ATOM     25  S   UNL     1      35.588 -20.961 -19.600  0.00  0.00    -0.023 S 
BRANCH  25  29
ATOM     26  N   UNL     1      33.372 -19.828 -20.705  0.00  0.00    -0.246 N 
ATOM     27  N   UNL     1      32.951 -21.033 -18.928  0.00  0.00    -0.124 NA
ATOM     28  N   UNL     1      31.760 -20.515 -19.396  0.00  0.00    -0.128 NA
ATOM     29  C   UNL     1      33.844 -20.597 -19.730  0.00  0.00    +0.191 C 
ATOM     30  C   UNL     1      34.048 -19.158 -21.790  0.00  0.00    +0.121 C 
ATOM     31  C   UNL     1      32.034 -19.796 -20.461  0.00  0.00    +0.193 C 
ENDBRANCH  25  29
ENDBRANCH   4  25
TORSDOF 5
ENDMDL
MODEL 3
REMARK VINA RESULT:     -11.3      2.285      6.731
REMARK  Name = 10411846
REMARK  5 active torsions:
REMARK  status: ('A' for Active; 'I' for Inactive)
REMARK    1  A    between atoms: C_2  and  S_17
REMARK    2  A    between atoms: C_3  and  C_11
REMARK    3  A    between atoms: C_4  and  S_25
REMARK    4  A    between atoms: S_17  and  C_19
REMARK    5  A    between atoms: S_25  and  C_29
REMARK                            x       y       z     vdW  Elec       q    Type
REMARK                         _______ _______ _______ _____ _____    ______ ____
ROOT
ATOM      1  N   UNL     1      33.888 -22.290 -17.937  0.00  0.00    -0.394 NA
ATOM      2  C   UNL     1      35.300 -22.152 -15.986  0.00  0.00    +0.060 C 
ATOM      3  C   UNL     1      34.130 -22.515 -16.626  0.00  0.00    +0.191 C 
ATOM      4  C   UNL     1      34.870 -21.672 -18.631  0.00  0.00    +0.145 C 
ATOM      5  C   UNL     1      36.288 -21.520 -16.728  0.00  0.00    -0.009 C 
ATOM      6  C   UNL     1      36.075 -21.271 -18.079  0.00  0.00    +0.093 C 
ENDROOT
BRANCH   3  11
ATOM      7  S   UNL     1      29.153 -22.386 -16.311  0.00  0.00    -0.060 S 
ATOM      8  O   UNL     1      33.300 -24.114 -15.160  0.00  0.00    -0.267 OA
ATOM      9  N   UNL     1      31.753 -22.709 -16.236  0.00  0.00    -0.249 N 
ATOM     10  N   UNL     1      30.382 -24.163 -14.892  0.00  0.00    -0.388 NA
ATOM     11  C   UNL     1      33.035 -23.182 -15.932  0.00  0.00    +0.282 C 
ATOM     12  C   UNL     1      30.539 -23.189 -15.734  0.00  0.00    +0.213 C 
ATOM     13  C   UNL     1      29.026 -24.309 -14.664  0.00  0.00    +0.101 C 
ATOM     14  C   UNL     1      28.203 -23.437 -15.343  0.00  0.00    +0.120 C 
ATOM     15  C   UNL     1      28.584 -25.365 -13.732  0.00  0.00    +0.063 C 
ATOM     16  H   UNL     1      31.700 -21.958 -16.871  0.00  0.00    +0.158 HD
ENDBRANCH   3  11
BRANCH   2  17
ATOM     17  S   UNL     1      35.589 -22.465 -14.250  0.00  0.00    -0.085 S 
BRANCH  17  19
ATOM     18  F   UNL     1      40.061 -26.323 -14.502  0.00  0.00    -0.204 F 
ATOM     19  C   UNL     1      36.938 -23.628 -14.326  0.00  0.00    +0.030 C 
ATOM     20  C   UNL     1      36.804 -24.889 -13.743  0.00  0.00    +0.009 C 
ATOM     21  C   UNL     1      38.126 -23.277 -14.967  0.00  0.00    +0.009 C 
ATOM     22  C   UNL     1      37.860 -25.800 -13.804  0.00  0.00    +0.030 C 
ATOM     23  C   UNL     1      39.181 -24.188 -15.026  0.00  0.00    +0.030 C 
ATOM     24  C   UNL     1      39.048 -25.449 -14.445  0.00  0.00    +0.140 C 
ENDBRANCH  17  19
ENDBRANCH   2  17
BRANCH   4  25
ATOM     25  S   UNL     1      34.555 -21.372 -20.362  0.00  0.00    -0.023 S 
BRANCH  25  29
ATOM     26  N   UNL     1      34.829 -18.911 -21.495  0.00  0.00    -0.246 N 
ATOM     27  N   UNL     1      36.250 -19.298 -19.876  0.00  0.00    -0.124 NA
ATOM     28  N   UNL     1      36.483 -18.029 -20.368  0.00  0.00    -0.128 NA
ATOM     29  C   UNL     1      35.281 -19.753 -20.571  0.00  0.00    +0.191 C 
ATOM     30  C   UNL     1      33.766 -19.051 -22.461  0.00  0.00    +0.121 C 
ATOM     31  C   UNL     1      35.622 -17.817 -21.337  0.00  0.00    +0.193 C 
ENDBRANCH  25  29
ENDBRANCH   4  25
TORSDOF 5
ENDMDL
MODEL 4
REMARK VINA RESULT:     -11.3      3.588      8.172
REMARK  Name = 10411846
REMARK  5 active torsions:
REMARK  status: ('A' for Active; 'I' for Inactive)
REMARK    1  A    between atoms: C_2  and  S_17
REMARK    2  A    between atoms: C_3  and  C_11
REMARK    3  A    between atoms: C_4  and  S_25
REMARK    4  A    between atoms: S_17  and  C_19
REMARK    5  A    between atoms: S_25  and  C_29
REMARK                            x       y       z     vdW  Elec       q    Type
REMARK                         _______ _______ _______ _____ _____    ______ ____
ROOT
ATOM      1  N   UNL     1      34.751 -22.385 -15.391  0.00  0.00    -0.394 NA
ATOM      2  C   UNL     1      34.769 -22.027 -17.776  0.00  0.00    +0.060 C 
ATOM      3  C   UNL     1      34.133 -22.349 -16.592  0.00  0.00    +0.191 C 
ATOM      4  C   UNL     1      36.070 -22.083 -15.385  0.00  0.00    +0.145 C 
ATOM      5  C   UNL     1      36.122 -21.722 -17.735  0.00  0.00    -0.009 C 
ATOM      6  C   UNL     1      36.793 -21.749 -16.518  0.00  0.00    +0.093 C 
ENDROOT
BRANCH   3  11
ATOM      7  S   UNL     1      30.849 -24.590 -13.578  0.00  0.00    -0.060 S 
ATOM      8  O   UNL     1      31.981 -22.332 -17.467  0.00  0.00    -0.267 OA
ATOM      9  N   UNL     1      32.306 -23.367 -15.382  0.00  0.00    -0.249 N 
ATOM     10  N   UNL     1      29.942 -23.601 -15.788  0.00  0.00    -0.388 NA
ATOM     11  C   UNL     1      32.715 -22.684 -16.533  0.00  0.00    +0.282 C 
ATOM     12  C   UNL     1      31.006 -23.779 -15.067  0.00  0.00    +0.213 C 
ATOM     13  C   UNL     1      28.875 -24.159 -15.110  0.00  0.00    +0.101 C 
ATOM     14  C   UNL     1      29.170 -24.741 -13.896  0.00  0.00    +0.120 C 
ATOM     15  C   UNL     1      27.538 -24.086 -15.730  0.00  0.00    +0.063 C 
ATOM     16  H   UNL     1      33.006 -23.580 -14.724  0.00  0.00    +0.158 HD
ENDBRANCH   3  11
BRANCH   2  17
ATOM     17  S   UNL     1      33.922 -21.988 -19.349  0.00  0.00    -0.085 S 
BRANCH  17  19
ATOM     18  F   UNL     1      36.031 -16.977 -21.672  0.00  0.00    -0.204 F 
ATOM     19  C   UNL     1      34.558 -20.477 -20.050  0.00  0.00    +0.030 C 
ATOM     20  C   UNL     1      33.691 -19.578 -20.673  0.00  0.00    +0.009 C 
ATOM     21  C   UNL     1      35.921 -20.194 -19.975  0.00  0.00    +0.009 C 
ATOM     22  C   UNL     1      34.190 -18.396 -21.221  0.00  0.00    +0.030 C 
ATOM     23  C   UNL     1      36.419 -19.012 -20.523  0.00  0.00    +0.030 C 
ATOM     24  C   UNL     1      35.553 -18.113 -21.146  0.00  0.00    +0.140 C 
ENDBRANCH  17  19
ENDBRANCH   2  17
BRANCH   4  25
ATOM     25  S   UNL     1      36.891 -22.130 -13.802  0.00  0.00    -0.023 S 
BRANCH  25  29
ATOM     26  N   UNL     1      36.378 -24.613 -12.809  0.00  0.00    -0.246 N 
ATOM     27  N   UNL     1      38.081 -24.549 -14.182  0.00  0.00    -0.124 NA
ATOM     28  N   UNL     1      37.919 -25.850 -13.748  0.00  0.00    -0.128 NA
ATOM     29  C   UNL     1      37.158 -23.885 -13.601  0.00  0.00    +0.191 C 
ATOM     30  C   UNL     1      35.247 -24.240 -11.994  0.00  0.00    +0.121 C 
ATOM     31  C   UNL     1      36.894 -25.867 -12.926  0.00  0.00    +0.193 C 
ENDBRANCH  25  29
ENDBRANCH   4  25
TORSDOF 5
ENDMDL
MODEL 5
REMARK VINA RESULT:     -11.1      3.804      6.509
REMARK  Name = 10411846
REMARK  5 active torsions:
REMARK  status: ('A' for Active; 'I' for Inactive)
REMARK    1  A    between atoms: C_2  and  S_17
REMARK    2  A    between atoms: C_3  and  C_11
REMARK    3  A    between atoms: C_4  and  S_25
REMARK    4  A    between atoms: S_17  and  C_19
REMARK    5  A    between atoms: S_25  and  C_29
REMARK                            x       y       z     vdW  Elec       q    Type
REMARK                         _______ _______ _______ _____ _____    ______ ____
ROOT
ATOM      1  N   UNL     1      35.828 -22.117 -17.109  0.00  0.00    -0.394 NA
ATOM      2  C   UNL     1      33.528 -22.589 -16.556  0.00  0.00    +0.060 C 
ATOM      3  C   UNL     1      34.507 -22.081 -17.390  0.00  0.00    +0.191 C 
ATOM      4  C   UNL     1      36.177 -22.691 -15.935  0.00  0.00    +0.145 C 
ATOM      5  C   UNL     1      33.920 -23.171 -15.359  0.00  0.00    -0.009 C 
ATOM      6  C   UNL     1      35.271 -23.227 -15.035  0.00  0.00    +0.093 C 
ENDROOT
BRANCH   3  11
ATOM      7  S   UNL     1      36.399 -18.739 -20.574  0.00  0.00    -0.060 S 
ATOM      8  O   UNL     1      33.161 -21.788 -19.260  0.00  0.00    -0.267 OA
ATOM      9  N   UNL     1      35.134 -20.519 -19.123  0.00  0.00    -0.249 N 
ATOM     10  N   UNL     1      34.164 -19.862 -21.228  0.00  0.00    -0.388 NA
ATOM     11  C   UNL     1      34.195 -21.450 -18.666  0.00  0.00    +0.282 C 
ATOM     12  C   UNL     1      35.089 -19.798 -20.321  0.00  0.00    +0.213 C 
ATOM     13  C   UNL     1      34.507 -18.990 -22.244  0.00  0.00    +0.101 C 
ATOM     14  C   UNL     1      35.683 -18.293 -22.068  0.00  0.00    +0.120 C 
ATOM     15  C   UNL     1      33.604 -18.880 -23.406  0.00  0.00    +0.063 C 
ATOM     16  H   UNL     1      35.910 -20.353 -18.539  0.00  0.00    +0.158 HD
ENDBRANCH   3  11
BRANCH   2  17
ATOM     17  S   UNL     1      31.788 -22.526 -16.958  0.00  0.00    -0.085 S 
BRANCH  17  19
ATOM     18  F   UNL     1      29.371 -24.503 -11.938  0.00  0.00    -0.204 F 
ATOM     19  C   UNL     1      31.059 -23.122 -15.444  0.00  0.00    +0.030 C 
ATOM     20  C   UNL     1      30.357 -24.328 -15.436  0.00  0.00    +0.009 C 
ATOM     21  C   UNL     1      31.190 -22.382 -14.269  0.00  0.00    +0.009 C 
ATOM     22  C   UNL     1      29.788 -24.794 -14.250  0.00  0.00    +0.030 C 
ATOM     23  C   UNL     1      30.620 -22.849 -13.085  0.00  0.00    +0.030 C 
ATOM     24  C   UNL     1      29.919 -24.055 -13.075  0.00  0.00    +0.140 C 
ENDBRANCH  17  19
ENDBRANCH   2  17
BRANCH   4  25
ATOM     25  S   UNL     1      37.921 -22.741 -15.559  0.00  0.00    -0.023 S 
BRANCH  25  29
ATOM     26  N   UNL     1      37.805 -24.073 -13.187  0.00  0.00    -0.246 N 
ATOM     27  N   UNL     1      38.254 -25.361 -14.898  0.00  0.00    -0.124 NA
ATOM     28  N   UNL     1      38.222 -26.142 -13.760  0.00  0.00    -0.128 NA
ATOM     29  C   UNL     1      38.006 -24.174 -14.496  0.00  0.00    +0.191 C 
ATOM     30  C   UNL     1      37.503 -22.927 -12.364  0.00  0.00    +0.121 C 
ATOM     31  C   UNL     1      37.951 -25.352 -12.746  0.00  0.00    +0.193 C 
ENDBRANCH  25  29
ENDBRANCH   4  25
TORSDOF 5
ENDMDL
MODEL 6
REMARK VINA RESULT:     -10.2      3.824      7.191
REMARK  Name = 10411846
REMARK  5 active torsions:
REMARK  status: ('A' for Active; 'I' for Inactive)
REMARK    1  A    between atoms: C_2  and  S_17
REMARK    2  A    between atoms: C_3  and  C_11
REMARK    3  A    between atoms: C_4  and  S_25
REMARK    4  A    between atoms: S_17  and  C_19
REMARK    5  A    between atoms: S_25  and  C_29
REMARK                            x       y       z     vdW  Elec       q    Type
REMARK                         _______ _______ _______ _____ _____    ______ ____
ROOT
ATOM      1  N   UNL     1      36.235 -22.771 -14.823  0.00  0.00    -0.394 NA
ATOM      2  C   UNL     1      34.078 -23.291 -15.768  0.00  0.00    +0.060 C 
ATOM      3  C   UNL     1      35.308 -22.661 -15.800  0.00  0.00    +0.191 C 
ATOM      4  C   UNL     1      35.906 -23.551 -13.768  0.00  0.00    +0.145 C 
ATOM      5  C   UNL     1      33.772 -24.084 -14.671  0.00  0.00    -0.009 C 
ATOM      6  C   UNL     1      34.701 -24.221 -13.646  0.00  0.00    +0.093 C 
ENDROOT
BRANCH   3  11
ATOM      7  S   UNL     1      33.450 -20.610 -19.951  0.00  0.00    -0.060 S 
ATOM      8  O   UNL     1      36.879 -21.370 -16.923  0.00  0.00    -0.267 OA
ATOM      9  N   UNL     1      34.730 -21.537 -17.859  0.00  0.00    -0.249 N 
ATOM     10  N   UNL     1      35.915 -20.087 -19.375  0.00  0.00    -0.388 NA
ATOM     11  C   UNL     1      35.720 -21.808 -16.908  0.00  0.00    +0.282 C 
ATOM     12  C   UNL     1      34.855 -20.731 -18.996  0.00  0.00    +0.213 C 
ATOM     13  C   UNL     1      35.607 -19.418 -20.545  0.00  0.00    +0.101 C 
ATOM     14  C   UNL     1      34.320 -19.580 -21.011  0.00  0.00    +0.120 C 
ATOM     15  C   UNL     1      36.660 -18.603 -21.181  0.00  0.00    +0.063 C 
ATOM     16  H   UNL     1      33.852 -21.958 -17.713  0.00  0.00    +0.158 HD
ENDBRANCH   3  11
BRANCH   2  17
ATOM     17  S   UNL     1      32.873 -23.125 -17.078  0.00  0.00    -0.085 S 
BRANCH  17  19
ATOM     18  F   UNL     1      28.021 -21.710 -14.011  0.00  0.00    -0.204 F 
ATOM     19  C   UNL     1      31.410 -22.698 -16.154  0.00  0.00    +0.030 C 
ATOM     20  C   UNL     1      31.499 -22.454 -14.783  0.00  0.00    +0.009 C 
ATOM     21  C   UNL     1      30.178 -22.610 -16.801  0.00  0.00    +0.009 C 
ATOM     22  C   UNL     1      30.353 -22.119 -14.059  0.00  0.00    +0.030 C 
ATOM     23  C   UNL     1      29.033 -22.276 -16.077  0.00  0.00    +0.030 C 
ATOM     24  C   UNL     1      29.121 -22.031 -14.706  0.00  0.00    +0.140 C 
ENDBRANCH  17  19
ENDBRANCH   2  17
BRANCH   4  25
ATOM     25  S   UNL     1      37.127 -23.699 -12.476  0.00  0.00    -0.023 S 
BRANCH  25  29
ATOM     26  N   UNL     1      38.341 -25.635 -13.957  0.00  0.00    -0.246 N 
ATOM     27  N   UNL     1      39.643 -23.939 -13.489  0.00  0.00    -0.124 NA
ATOM     28  N   UNL     1      40.363 -24.848 -14.238  0.00  0.00    -0.128 NA
ATOM     29  C   UNL     1      38.482 -24.455 -13.362  0.00  0.00    +0.191 C 
ATOM     30  C   UNL     1      37.205 -26.521 -14.041  0.00  0.00    +0.121 C 
ATOM     31  C   UNL     1      39.565 -25.857 -14.508  0.00  0.00    +0.193 C 
ENDBRANCH  25  29
ENDBRANCH   4  25
TORSDOF 5
ENDMDL
MODEL 7
REMARK VINA RESULT:      -9.9      3.789      6.585
REMARK  Name = 10411846
REMARK  5 active torsions:
REMARK  status: ('A' for Active; 'I' for Inactive)
REMARK    1  A    between atoms: C_2  and  S_17
REMARK    2  A    between atoms: C_3  and  C_11
REMARK    3  A    between atoms: C_4  and  S_25
REMARK    4  A    between atoms: S_17  and  C_19
REMARK    5  A    between atoms: S_25  and  C_29
REMARK                            x       y       z     vdW  Elec       q    Type
REMARK                         _______ _______ _______ _____ _____    ______ ____
ROOT
ATOM      1  N   UNL     1      36.162 -23.079 -15.634  0.00  0.00    -0.394 NA
ATOM      2  C   UNL     1      33.807 -22.944 -16.141  0.00  0.00    +0.060 C 
ATOM      3  C   UNL     1      35.128 -22.603 -16.364  0.00  0.00    +0.191 C 
ATOM      4  C   UNL     1      35.848 -23.937 -14.637  0.00  0.00    +0.145 C 
ATOM      5  C   UNL     1      33.520 -23.827 -15.109  0.00  0.00    -0.009 C 
ATOM      6  C   UNL     1      34.556 -24.338 -14.337  0.00  0.00    +0.093 C 
ENDROOT
BRANCH   3  11
ATOM      7  S   UNL     1      33.246 -20.350 -20.397  0.00  0.00    -0.060 S 
ATOM      8  O   UNL     1      36.683 -21.230 -17.409  0.00  0.00    -0.267 OA
ATOM      9  N   UNL     1      34.537 -21.374 -18.358  0.00  0.00    -0.249 N 
ATOM     10  N   UNL     1      35.703 -19.825 -19.788  0.00  0.00    -0.388 NA
ATOM     11  C   UNL     1      35.530 -21.684 -17.421  0.00  0.00    +0.282 C 
ATOM     12  C   UNL     1      34.652 -20.504 -19.447  0.00  0.00    +0.213 C 
ATOM     13  C   UNL     1      35.388 -19.096 -20.919  0.00  0.00    +0.101 C 
ATOM     14  C   UNL     1      34.104 -19.250 -21.396  0.00  0.00    +0.120 C 
ATOM     15  C   UNL     1      36.430 -18.233 -21.507  0.00  0.00    +0.063 C 
ATOM     16  H   UNL     1      33.665 -21.815 -18.237  0.00  0.00    +0.158 HD
ENDBRANCH   3  11
BRANCH   2  17
ATOM     17  S   UNL     1      32.463 -22.296 -17.125  0.00  0.00    -0.085 S 
BRANCH  17  19
ATOM     18  F   UNL     1      27.778 -24.059 -13.980  0.00  0.00    -0.204 F 
ATOM     19  C   UNL     1      31.050 -22.828 -16.177  0.00  0.00    +0.030 C 
ATOM     20  C   UNL     1      30.741 -22.195 -14.972  0.00  0.00    +0.009 C 
ATOM     21  C   UNL     1      30.255 -23.876 -16.639  0.00  0.00    +0.009 C 
ATOM     22  C   UNL     1      29.635 -22.612 -14.230  0.00  0.00    +0.030 C 
ATOM     23  C   UNL     1      29.150 -24.292 -15.896  0.00  0.00    +0.030 C 
ATOM     24  C   UNL     1      28.839 -23.660 -14.692  0.00  0.00    +0.140 C 
ENDBRANCH  17  19
ENDBRANCH   2  17
BRANCH   4  25
ATOM     25  S   UNL     1      37.209 -24.569 -13.671  0.00  0.00    -0.023 S 
BRANCH  25  29
ATOM     26  N   UNL     1      36.609 -23.249 -11.366  0.00  0.00    -0.246 N 
ATOM     27  N   UNL     1      36.023 -25.357 -11.350  0.00  0.00    -0.124 NA
ATOM     28  N   UNL     1      35.671 -24.798 -10.139  0.00  0.00    -0.128 NA
ATOM     29  C   UNL     1      36.562 -24.408 -12.013  0.00  0.00    +0.191 C 
ATOM     30  C   UNL     1      37.130 -21.964 -11.766  0.00  0.00    +0.121 C 
ATOM     31  C   UNL     1      36.030 -23.534 -10.168  0.00  0.00    +0.193 C 
ENDBRANCH  25  29
ENDBRANCH   4  25
TORSDOF 5
ENDMDL
MODEL 8
REMARK VINA RESULT:      -9.6      3.361      7.946
REMARK  Name = 10411846
REMARK  5 active torsions:
REMARK  status: ('A' for Active; 'I' for Inactive)
REMARK    1  A    between atoms: C_2  and  S_17
REMARK    2  A    between atoms: C_3  and  C_11
REMARK    3  A    between atoms: C_4  and  S_25
REMARK    4  A    between atoms: S_17  and  C_19
REMARK    5  A    between atoms: S_25  and  C_29
REMARK                            x       y       z     vdW  Elec       q    Type
REMARK                         _______ _______ _______ _____ _____    ______ ____
ROOT
ATOM      1  N   UNL     1      34.475 -22.188 -16.293  0.00  0.00    -0.394 NA
ATOM      2  C   UNL     1      34.336 -21.580 -18.623  0.00  0.00    +0.060 C 
ATOM      3  C   UNL     1      33.766 -21.946 -17.418  0.00  0.00    +0.191 C 
ATOM      4  C   UNL     1      35.818 -22.054 -16.389  0.00  0.00    +0.145 C 
ATOM      5  C   UNL     1      35.717 -21.452 -18.687  0.00  0.00    -0.009 C 
ATOM      6  C   UNL     1      36.479 -21.692 -17.551  0.00  0.00    +0.093 C 
ENDROOT
BRANCH   3  11
ATOM      7  S   UNL     1      30.491 -24.264 -14.455  0.00  0.00    -0.060 S 
ATOM      8  O   UNL     1      31.568 -21.506 -18.024  0.00  0.00    -0.267 OA
ATOM      9  N   UNL     1      31.933 -22.928 -16.189  0.00  0.00    -0.249 N 
ATOM     10  N   UNL     1      29.533 -22.791 -16.351  0.00  0.00    -0.388 NA
ATOM     11  C   UNL     1      32.327 -22.108 -17.252  0.00  0.00    +0.282 C 
ATOM     12  C   UNL     1      30.623 -23.225 -15.798  0.00  0.00    +0.213 C 
ATOM     13  C   UNL     1      28.465 -23.324 -15.656  0.00  0.00    +0.101 C 
ATOM     14  C   UNL     1      28.785 -24.146 -14.596  0.00  0.00    +0.120 C 
ATOM     15  C   UNL     1      27.100 -22.975 -16.096  0.00  0.00    +0.063 C 
ATOM     16  H   UNL     1      32.654 -23.341 -15.661  0.00  0.00    +0.158 HD
ENDBRANCH   3  11
BRANCH   2  17
ATOM     17  S   UNL     1      33.369 -21.267 -20.094  0.00  0.00    -0.085 S 
BRANCH  17  19
ATOM     18  F   UNL     1      36.356 -16.768 -22.500  0.00  0.00    -0.204 F 
ATOM     19  C   UNL     1      34.270 -19.911 -20.820  0.00  0.00    +0.030 C 
ATOM     20  C   UNL     1      35.535 -19.576 -20.336  0.00  0.00    +0.009 C 
ATOM     21  C   UNL     1      33.709 -19.184 -21.869  0.00  0.00    +0.009 C 
ATOM     22  C   UNL     1      36.240 -18.514 -20.905  0.00  0.00    +0.030 C 
ATOM     23  C   UNL     1      34.414 -18.122 -22.437  0.00  0.00    +0.030 C 
ATOM     24  C   UNL     1      35.679 -17.788 -21.955  0.00  0.00    +0.140 C 
ENDBRANCH  17  19
ENDBRANCH   2  17
BRANCH   4  25
ATOM     25  S   UNL     1      36.758 -22.372 -14.907  0.00  0.00    -0.023 S 
BRANCH  25  29
ATOM     26  N   UNL     1      35.622 -23.071 -12.533  0.00  0.00    -0.246 N 
ATOM     27  N   UNL     1      34.463 -23.696 -14.281  0.00  0.00    -0.124 NA
ATOM     28  N   UNL     1      33.792 -24.103 -13.145  0.00  0.00    -0.128 NA
ATOM     29  C   UNL     1      35.513 -23.106 -13.857  0.00  0.00    +0.191 C 
ATOM     30  C   UNL     1      36.643 -22.506 -11.684  0.00  0.00    +0.121 C 
ATOM     31  C   UNL     1      34.503 -23.719 -12.108  0.00  0.00    +0.193 C 
ENDBRANCH  25  29
ENDBRANCH   4  25
TORSDOF 5
ENDMDL
MODEL 9
REMARK VINA RESULT:      -9.4      1.544      6.203
REMARK  Name = 10411846
REMARK  5 active torsions:
REMARK  status: ('A' for Active; 'I' for Inactive)
REMARK    1  A    between atoms: C_2  and  S_17
REMARK    2  A    between atoms: C_3  and  C_11
REMARK    3  A    between atoms: C_4  and  S_25
REMARK    4  A    between atoms: S_17  and  C_19
REMARK    5  A    between atoms: S_25  and  C_29
REMARK                            x       y       z     vdW  Elec       q    Type
REMARK                         _______ _______ _______ _____ _____    ______ ____
ROOT
ATOM      1  N   UNL     1      34.315 -21.366 -18.293  0.00  0.00    -0.394 NA
ATOM      2  C   UNL     1      34.461 -22.542 -16.192  0.00  0.00    +0.060 C 
ATOM      3  C   UNL     1      33.748 -22.024 -17.258  0.00  0.00    +0.191 C 
ATOM      4  C   UNL     1      35.660 -21.225 -18.251  0.00  0.00    +0.145 C 
ATOM      5  C   UNL     1      35.839 -22.380 -16.180  0.00  0.00    -0.009 C 
ATOM      6  C   UNL     1      36.458 -21.709 -17.228  0.00  0.00    +0.093 C 
ENDROOT
BRANCH   3  11
ATOM      7  S   UNL     1      29.765 -22.884 -14.380  0.00  0.00    -0.060 S 
ATOM      8  O   UNL     1      31.764 -21.974 -18.465  0.00  0.00    -0.267 OA
ATOM      9  N   UNL     1      31.632 -22.415 -16.160  0.00  0.00    -0.249 N 
ATOM     10  N   UNL     1      29.337 -22.446 -16.892  0.00  0.00    -0.388 NA
ATOM     11  C   UNL     1      32.299 -22.142 -17.360  0.00  0.00    +0.282 C 
ATOM     12  C   UNL     1      30.252 -22.550 -15.978  0.00  0.00    +0.213 C 
ATOM     13  C   UNL     1      28.111 -22.648 -16.287  0.00  0.00    +0.101 C 
ATOM     14  C   UNL     1      28.141 -22.899 -14.932  0.00  0.00    +0.120 C 
ATOM     15  C   UNL     1      26.898 -22.579 -17.125  0.00  0.00    +0.063 C 
ATOM     16  H   UNL     1      32.194 -22.524 -15.359  0.00  0.00    +0.158 HD
ENDBRANCH   3  11
BRANCH   2  17
ATOM     17  S   UNL     1      33.680 -23.408 -14.837  0.00  0.00    -0.085 S 
BRANCH  17  19
ATOM     18  F   UNL     1      38.371 -25.765 -12.119  0.00  0.00    -0.204 F 
ATOM     19  C   UNL     1      35.094 -24.119 -14.018  0.00  0.00    +0.030 C 
ATOM     20  C   UNL     1      35.613 -23.514 -12.873  0.00  0.00    +0.009 C 
ATOM     21  C   UNL     1      35.682 -25.279 -14.521  0.00  0.00    +0.009 C 
ATOM     22  C   UNL     1      36.720 -24.071 -12.231  0.00  0.00    +0.030 C 
ATOM     23  C   UNL     1      36.789 -25.835 -13.880  0.00  0.00    +0.030 C 
ATOM     24  C   UNL     1      37.308 -25.231 -12.735  0.00  0.00    +0.140 C 
ENDBRANCH  17  19
ENDBRANCH   2  17
BRANCH   4  25
ATOM     25  S   UNL     1      36.413 -20.357 -19.616  0.00  0.00    -0.023 S 
BRANCH  25  29
ATOM     26  N   UNL     1      35.062 -18.876 -21.459  0.00  0.00    -0.246 N 
ATOM     27  N   UNL     1      33.789 -20.256 -20.334  0.00  0.00    -0.124 NA
ATOM     28  N   UNL     1      32.998 -19.566 -21.232  0.00  0.00    -0.128 NA
ATOM     29  C   UNL     1      34.971 -19.809 -20.517  0.00  0.00    +0.191 C 
ATOM     30  C   UNL     1      36.200 -18.139 -21.952  0.00  0.00    +0.121 C 
ATOM     31  C   UNL     1      33.779 -18.744 -21.896  0.00  0.00    +0.193 C 
ENDBRANCH  25  29
ENDBRANCH   4  25
TORSDOF 5
ENDMDL
