MODEL 1
REMARK VINA RESULT:     -12.4      0.000      0.000
REMARK  Name = 24986635
REMARK  5 active torsions:
REMARK  status: ('A' for Active; 'I' for Inactive)
REMARK    1  A    between atoms: C_1  and  C_8
REMARK    2  A    between atoms: C_4  and  S_18
REMARK    3  A    between atoms: C_8  and  C_15
REMARK    4  A    between atoms: S_18  and  C_19
REMARK    5  A    between atoms: C_20  and  C_27
REMARK                            x       y       z     vdW  Elec       q    Type
REMARK                         _______ _______ _______ _____ _____    ______ ____
ROOT
ATOM      1  C   UNL     1      36.585 -22.831 -15.234  0.00  0.00    -0.014 C 
ATOM      2  C   UNL     1      35.367 -23.028 -15.883  0.00  0.00    +0.003 C 
ATOM      3  C   UNL     1      37.405 -21.763 -15.600  0.00  0.00    -0.004 C 
ATOM      4  C   UNL     1      34.968 -22.159 -16.899  0.00  0.00    +0.029 C 
ATOM      5  C   UNL     1      37.007 -20.893 -16.614  0.00  0.00    +0.000 C 
ATOM      6  C   UNL     1      35.788 -21.091 -17.264  0.00  0.00    +0.006 C 
ENDROOT
BRANCH   1   8
ATOM      7  O   UNL     1      38.055 -26.438 -13.392  0.00  0.00    -0.354 OA
ATOM      8  C   UNL     1      37.025 -23.788 -14.114  0.00  0.00    +0.092 C 
ATOM      9  C   UNL     1      38.496 -24.233 -14.326  0.00  0.00    +0.045 C 
ATOM     10  C   UNL     1      36.150 -25.061 -13.988  0.00  0.00    +0.045 C 
ATOM     11  C   UNL     1      38.935 -25.320 -13.347  0.00  0.00    +0.143 C 
ATOM     12  C   UNL     1      36.730 -26.082 -13.012  0.00  0.00    +0.143 C 
BRANCH   8  15
ATOM     13  O   UNL     1      37.904 -22.729 -12.141  0.00  0.00    -0.275 OA
ATOM     14  N   UNL     1      35.623 -22.735 -12.441  0.00  0.00    -0.329 N 
ATOM     15  C   UNL     1      36.917 -23.029 -12.806  0.00  0.00    +0.222 C 
ATOM     16  H   UNL     1      35.447 -22.244 -11.606  0.00  0.00    +0.145 HD
ATOM     17  H   UNL     1      34.874 -23.016 -13.015  0.00  0.00    +0.145 HD
ENDBRANCH   8  15
ENDBRANCH   1   8
BRANCH   4  18
ATOM     18  S   UNL     1      33.412 -22.411 -17.729  0.00  0.00    -0.087 S 
BRANCH  18  19
ATOM     19  C   UNL     1      33.564 -21.281 -19.106  0.00  0.00    +0.029 C 
ATOM     20  C   UNL     1      33.800 -19.519 -21.255  0.00  0.00    +0.015 C 
ATOM     21  C   UNL     1      34.806 -21.076 -19.706  0.00  0.00    +0.007 C 
ATOM     22  C   UNL     1      32.440 -20.606 -19.581  0.00  0.00    +0.007 C 
ATOM     23  C   UNL     1      34.924 -20.195 -20.780  0.00  0.00    +0.002 C 
ATOM     24  C   UNL     1      32.557 -19.725 -20.655  0.00  0.00    +0.002 C 
BRANCH  20  27
ATOM     25  N   UNL     1      34.345 -17.315 -22.250  0.00  0.00    -0.210 N 
ATOM     26  N   UNL     1      34.379 -16.648 -23.416  0.00  0.00    -0.176 NA
ATOM     27  C   UNL     1      33.922 -18.607 -22.366  0.00  0.00    +0.071 C 
ATOM     28  C   UNL     1      33.661 -18.798 -23.701  0.00  0.00    +0.039 C 
ATOM     29  C   UNL     1      34.740 -16.630 -21.040  0.00  0.00    +0.140 C 
ATOM     30  C   UNL     1      33.960 -17.560 -24.299  0.00  0.00    +0.119 C 
ENDBRANCH  20  27
ENDBRANCH  18  19
ENDBRANCH   4  18
TORSDOF 5
ENDMDL
MODEL 2
REMARK VINA RESULT:     -12.2      1.178      2.039
REMARK  Name = 24986635
REMARK  5 active torsions:
REMARK  status: ('A' for Active; 'I' for Inactive)
REMARK    1  A    between atoms: C_1  and  C_8
REMARK    2  A    between atoms: C_4  and  S_18
REMARK    3  A    between atoms: C_8  and  C_15
REMARK    4  A    between atoms: S_18  and  C_19
REMARK    5  A    between atoms: C_20  and  C_27
REMARK                            x       y       z     vdW  Elec       q    Type
REMARK                         _______ _______ _______ _____ _____    ______ ____
ROOT
ATOM      1  C   UNL     1      36.253 -23.107 -15.029  0.00  0.00    -0.014 C 
ATOM      2  C   UNL     1      35.019 -23.197 -15.672  0.00  0.00    +0.003 C 
ATOM      3  C   UNL     1      37.214 -22.206 -15.488  0.00  0.00    -0.004 C 
ATOM      4  C   UNL     1      34.746 -22.387 -16.774  0.00  0.00    +0.029 C 
ATOM      5  C   UNL     1      36.942 -21.395 -16.589  0.00  0.00    +0.000 C 
ATOM      6  C   UNL     1      35.708 -21.485 -17.233  0.00  0.00    +0.006 C 
ENDROOT
BRANCH   1   8
ATOM      7  O   UNL     1      36.838 -24.194 -10.901  0.00  0.00    -0.354 OA
ATOM      8  C   UNL     1      36.555 -23.999 -13.814  0.00  0.00    +0.092 C 
ATOM      9  C   UNL     1      35.360 -23.995 -12.825  0.00  0.00    +0.045 C 
ATOM     10  C   UNL     1      37.830 -23.594 -13.031  0.00  0.00    +0.045 C 
ATOM     11  C   UNL     1      35.668 -24.721 -11.517  0.00  0.00    +0.143 C 
ATOM     12  C   UNL     1      37.989 -24.364 -11.722  0.00  0.00    +0.143 C 
BRANCH   8  15
ATOM     13  O   UNL     1      37.876 -25.822 -14.663  0.00  0.00    -0.275 OA
ATOM     14  N   UNL     1      35.613 -26.150 -14.412  0.00  0.00    -0.329 N 
ATOM     15  C   UNL     1      36.768 -25.408 -14.333  0.00  0.00    +0.222 C 
ATOM     16  H   UNL     1      35.646 -27.080 -14.737  0.00  0.00    +0.145 HD
ATOM     17  H   UNL     1      34.753 -25.753 -14.143  0.00  0.00    +0.145 HD
ENDBRANCH   8  15
ENDBRANCH   1   8
BRANCH   4  18
ATOM     18  S   UNL     1      33.169 -22.501 -17.597  0.00  0.00    -0.087 S 
BRANCH  18  19
ATOM     19  C   UNL     1      33.407 -21.376 -18.966  0.00  0.00    +0.029 C 
ATOM     20  C   UNL     1      33.780 -19.620 -21.101  0.00  0.00    +0.015 C 
ATOM     21  C   UNL     1      32.325 -20.656 -19.473  0.00  0.00    +0.007 C 
ATOM     22  C   UNL     1      34.675 -21.218 -19.525  0.00  0.00    +0.007 C 
ATOM     23  C   UNL     1      32.512 -19.779 -20.540  0.00  0.00    +0.002 C 
ATOM     24  C   UNL     1      34.862 -20.340 -20.592  0.00  0.00    +0.002 C 
BRANCH  20  27
ATOM     25  N   UNL     1      34.418 -17.430 -22.069  0.00  0.00    -0.210 N 
ATOM     26  N   UNL     1      34.519 -16.764 -23.232  0.00  0.00    -0.176 NA
ATOM     27  C   UNL     1      33.972 -18.712 -22.205  0.00  0.00    +0.071 C 
ATOM     28  C   UNL     1      33.766 -18.897 -23.550  0.00  0.00    +0.039 C 
ATOM     29  C   UNL     1      34.775 -16.754 -20.843  0.00  0.00    +0.140 C 
ATOM     30  C   UNL     1      34.119 -17.666 -24.133  0.00  0.00    +0.119 C 
ENDBRANCH  20  27
ENDBRANCH  18  19
ENDBRANCH   4  18
TORSDOF 5
ENDMDL
MODEL 3
REMARK VINA RESULT:     -11.1      8.184     13.531
REMARK  Name = 24986635
REMARK  5 active torsions:
REMARK  status: ('A' for Active; 'I' for Inactive)
REMARK    1  A    between atoms: C_1  and  C_8
REMARK    2  A    between atoms: C_4  and  S_18
REMARK    3  A    between atoms: C_8  and  C_15
REMARK    4  A    between atoms: S_18  and  C_19
REMARK    5  A    between atoms: C_20  and  C_27
REMARK                            x       y       z     vdW  Elec       q    Type
REMARK                         _______ _______ _______ _____ _____    ______ ____
ROOT
ATOM      1  C   UNL     1      32.079 -10.009 -22.427  0.00  0.00    -0.014 C 
ATOM      2  C   UNL     1      32.498 -10.859 -23.449  0.00  0.00    +0.003 C 
ATOM      3  C   UNL     1      31.509 -10.540 -21.269  0.00  0.00    -0.004 C 
ATOM      4  C   UNL     1      32.347 -12.239 -23.316  0.00  0.00    +0.029 C 
ATOM      5  C   UNL     1      31.359 -11.920 -21.134  0.00  0.00    +0.000 C 
ATOM      6  C   UNL     1      31.777 -12.770 -22.158  0.00  0.00    +0.006 C 
ENDROOT
BRANCH   1   8
ATOM      7  O   UNL     1      33.843  -6.106 -21.957  0.00  0.00    -0.354 OA
ATOM      8  C   UNL     1      32.245  -8.488 -22.572  0.00  0.00    +0.092 C 
ATOM      9  C   UNL     1      33.595  -8.150 -23.257  0.00  0.00    +0.045 C 
ATOM     10  C   UNL     1      32.177  -7.711 -21.232  0.00  0.00    +0.045 C 
ATOM     11  C   UNL     1      33.897  -6.653 -23.270  0.00  0.00    +0.143 C 
ATOM     12  C   UNL     1      32.548  -6.238 -21.383  0.00  0.00    +0.143 C 
BRANCH   8  15
ATOM     13  O   UNL     1      31.294  -7.542 -24.570  0.00  0.00    -0.275 OA
ATOM     14  N   UNL     1      29.871  -8.083 -22.844  0.00  0.00    -0.329 N 
ATOM     15  C   UNL     1      31.106  -7.993 -23.443  0.00  0.00    +0.222 C 
ATOM     16  H   UNL     1      29.066  -7.787 -23.328  0.00  0.00    +0.145 HD
ATOM     17  H   UNL     1      29.791  -8.443 -21.931  0.00  0.00    +0.145 HD
ENDBRANCH   8  15
ENDBRANCH   1   8
BRANCH   4  18
ATOM     18  S   UNL     1      32.882 -13.325 -24.623  0.00  0.00    -0.087 S 
BRANCH  18  19
ATOM     19  C   UNL     1      33.564 -14.687 -23.689  0.00  0.00    +0.029 C 
ATOM     20  C   UNL     1      34.629 -16.814 -22.230  0.00  0.00    +0.015 C 
ATOM     21  C   UNL     1      33.892 -14.515 -22.344  0.00  0.00    +0.007 C 
ATOM     22  C   UNL     1      33.768 -15.922 -24.304  0.00  0.00    +0.007 C 
ATOM     23  C   UNL     1      34.424 -15.578 -21.615  0.00  0.00    +0.002 C 
ATOM     24  C   UNL     1      34.300 -16.985 -23.575  0.00  0.00    +0.002 C 
BRANCH  20  27
ATOM     25  N   UNL     1      34.443 -18.963 -21.010  0.00  0.00    -0.210 N 
ATOM     26  N   UNL     1      35.163 -19.870 -20.328  0.00  0.00    -0.176 NA
ATOM     27  C   UNL     1      35.179 -17.913 -21.476  0.00  0.00    +0.071 C 
ATOM     28  C   UNL     1      36.470 -18.150 -21.071  0.00  0.00    +0.039 C 
ATOM     29  C   UNL     1      33.023 -19.176 -21.174  0.00  0.00    +0.140 C 
ATOM     30  C   UNL     1      36.401 -19.369 -20.369  0.00  0.00    +0.119 C 
ENDBRANCH  20  27
ENDBRANCH  18  19
ENDBRANCH   4  18
TORSDOF 5
ENDMDL
MODEL 4
REMARK VINA RESULT:     -10.9      8.708     14.102
REMARK  Name = 24986635
REMARK  5 active torsions:
REMARK  status: ('A' for Active; 'I' for Inactive)
REMARK    1  A    between atoms: C_1  and  C_8
REMARK    2  A    between atoms: C_4  and  S_18
REMARK    3  A    between atoms: C_8  and  C_15
REMARK    4  A    between atoms: S_18  and  C_19
REMARK    5  A    between atoms: C_20  and  C_27
REMARK                            x       y       z     vdW  Elec       q    Type
REMARK                         _______ _______ _______ _____ _____    ______ ____
ROOT
ATOM      1  C   UNL     1      31.720  -9.030 -21.945  0.00  0.00    -0.014 C 
ATOM      2  C   UNL     1      32.238  -9.676 -23.067  0.00  0.00    +0.003 C 
ATOM      3  C   UNL     1      31.187  -9.777 -20.894  0.00  0.00    -0.004 C 
ATOM      4  C   UNL     1      32.223 -11.068 -23.140  0.00  0.00    +0.029 C 
ATOM      5  C   UNL     1      31.172 -11.170 -20.966  0.00  0.00    +0.000 C 
ATOM      6  C   UNL     1      31.689 -11.816 -22.089  0.00  0.00    +0.006 C 
ENDROOT
BRANCH   1   8
ATOM      7  O   UNL     1      30.538  -5.067 -20.735  0.00  0.00    -0.354 OA
ATOM      8  C   UNL     1      31.737  -7.495 -21.864  0.00  0.00    +0.092 C 
ATOM      9  C   UNL     1      31.940  -7.030 -20.398  0.00  0.00    +0.045 C 
ATOM     10  C   UNL     1      30.454  -6.817 -22.411  0.00  0.00    +0.045 C 
ATOM     11  C   UNL     1      31.789  -5.519 -20.227  0.00  0.00    +0.143 C 
ATOM     12  C   UNL     1      30.413  -5.316 -22.130  0.00  0.00    +0.143 C 
BRANCH   8  15
ATOM     13  O   UNL     1      34.027  -6.860 -22.239  0.00  0.00    -0.275 OA
ATOM     14  N   UNL     1      32.568  -6.751 -24.015  0.00  0.00    -0.329 N 
ATOM     15  C   UNL     1      32.901  -7.013 -22.706  0.00  0.00    +0.222 C 
ATOM     16  H   UNL     1      33.256  -6.433 -24.644  0.00  0.00    +0.145 HD
ATOM     17  H   UNL     1      31.642  -6.882 -24.323  0.00  0.00    +0.145 HD
ENDBRANCH   8  15
ENDBRANCH   1   8
BRANCH   4  18
ATOM     18  S   UNL     1      32.884 -11.895 -24.574  0.00  0.00    -0.087 S 
BRANCH  18  19
ATOM     19  C   UNL     1      33.386 -13.460 -23.874  0.00  0.00    +0.029 C 
ATOM     20  C   UNL     1      34.172 -15.904 -22.780  0.00  0.00    +0.015 C 
ATOM     21  C   UNL     1      33.393 -14.608 -24.666  0.00  0.00    +0.007 C 
ATOM     22  C   UNL     1      33.773 -13.534 -22.536  0.00  0.00    +0.007 C 
ATOM     23  C   UNL     1      33.786 -15.829 -24.119  0.00  0.00    +0.002 C 
ATOM     24  C   UNL     1      34.166 -14.755 -21.989  0.00  0.00    +0.002 C 
BRANCH  20  27
ATOM     25  N   UNL     1      34.258 -18.380 -22.752  0.00  0.00    -0.210 N 
ATOM     26  N   UNL     1      34.740 -19.425 -22.057  0.00  0.00    -0.176 NA
ATOM     27  C   UNL     1      34.578 -17.167 -22.216  0.00  0.00    +0.071 C 
ATOM     28  C   UNL     1      35.319 -17.438 -21.092  0.00  0.00    +0.039 C 
ATOM     29  C   UNL     1      33.483 -18.631 -23.946  0.00  0.00    +0.140 C 
ATOM     30  C   UNL     1      35.387 -18.843 -21.044  0.00  0.00    +0.119 C 
ENDBRANCH  20  27
ENDBRANCH  18  19
ENDBRANCH   4  18
TORSDOF 5
ENDMDL
MODEL 5
REMARK VINA RESULT:     -10.6      1.656      2.694
REMARK  Name = 24986635
REMARK  5 active torsions:
REMARK  status: ('A' for Active; 'I' for Inactive)
REMARK    1  A    between atoms: C_1  and  C_8
REMARK    2  A    between atoms: C_4  and  S_18
REMARK    3  A    between atoms: C_8  and  C_15
REMARK    4  A    between atoms: S_18  and  C_19
REMARK    5  A    between atoms: C_20  and  C_27
REMARK                            x       y       z     vdW  Elec       q    Type
REMARK                         _______ _______ _______ _____ _____    ______ ____
ROOT
ATOM      1  C   UNL     1      34.479 -23.148 -14.676  0.00  0.00    -0.014 C 
ATOM      2  C   UNL     1      34.438 -23.501 -16.024  0.00  0.00    +0.003 C 
ATOM      3  C   UNL     1      33.399 -22.480 -14.097  0.00  0.00    -0.004 C 
ATOM      4  C   UNL     1      33.317 -23.188 -16.794  0.00  0.00    +0.029 C 
ATOM      5  C   UNL     1      32.278 -22.167 -14.866  0.00  0.00    +0.000 C 
ATOM      6  C   UNL     1      32.237 -22.521 -16.215  0.00  0.00    +0.006 C 
ENDROOT
BRANCH   1   8
ATOM      7  O   UNL     1      36.765 -24.739 -11.389  0.00  0.00    -0.354 OA
ATOM      8  C   UNL     1      35.713 -23.492 -13.827  0.00  0.00    +0.092 C 
ATOM      9  C   UNL     1      35.815 -25.025 -13.613  0.00  0.00    +0.045 C 
ATOM     10  C   UNL     1      35.737 -22.808 -12.436  0.00  0.00    +0.045 C 
ATOM     11  C   UNL     1      36.918 -25.416 -12.631  0.00  0.00    +0.143 C 
ATOM     12  C   UNL     1      36.861 -23.327 -11.542  0.00  0.00    +0.143 C 
BRANCH   8  15
ATOM     13  O   UNL     1      37.192 -21.821 -14.727  0.00  0.00    -0.275 OA
ATOM     14  N   UNL     1      37.690 -24.032 -15.119  0.00  0.00    -0.329 N 
ATOM     15  C   UNL     1      36.932 -23.014 -14.591  0.00  0.00    +0.222 C 
ATOM     16  H   UNL     1      38.505 -23.824 -15.633  0.00  0.00    +0.145 HD
ATOM     17  H   UNL     1      37.420 -24.969 -14.984  0.00  0.00    +0.145 HD
ENDBRANCH   8  15
ENDBRANCH   1   8
BRANCH   4  18
ATOM     18  S   UNL     1      33.263 -23.640 -18.517  0.00  0.00    -0.087 S 
BRANCH  18  19
ATOM     19  C   UNL     1      33.595 -22.068 -19.301  0.00  0.00    +0.029 C 
ATOM     20  C   UNL     1      34.114 -19.615 -20.523  0.00  0.00    +0.015 C 
ATOM     21  C   UNL     1      32.537 -21.250 -19.699  0.00  0.00    +0.007 C 
ATOM     22  C   UNL     1      34.911 -21.659 -19.513  0.00  0.00    +0.007 C 
ATOM     23  C   UNL     1      32.797 -20.024 -20.309  0.00  0.00    +0.002 C 
ATOM     24  C   UNL     1      35.171 -20.433 -20.124  0.00  0.00    +0.002 C 
BRANCH  20  27
ATOM     25  N   UNL     1      34.317 -18.136 -22.501  0.00  0.00    -0.210 N 
ATOM     26  N   UNL     1      34.609 -16.877 -22.869  0.00  0.00    -0.176 NA
ATOM     27  C   UNL     1      34.381 -18.346 -21.155  0.00  0.00    +0.071 C 
ATOM     28  C   UNL     1      34.741 -17.141 -20.604  0.00  0.00    +0.039 C 
ATOM     29  C   UNL     1      33.980 -19.103 -23.522  0.00  0.00    +0.140 C 
ATOM     30  C   UNL     1      34.867 -16.273 -21.705  0.00  0.00    +0.119 C 
ENDBRANCH  20  27
ENDBRANCH  18  19
ENDBRANCH   4  18
TORSDOF 5
ENDMDL
MODEL 6
REMARK VINA RESULT:     -10.5     11.274     16.948
REMARK  Name = 24986635
REMARK  5 active torsions:
REMARK  status: ('A' for Active; 'I' for Inactive)
REMARK    1  A    between atoms: C_1  and  C_8
REMARK    2  A    between atoms: C_4  and  S_18
REMARK    3  A    between atoms: C_8  and  C_15
REMARK    4  A    between atoms: S_18  and  C_19
REMARK    5  A    between atoms: C_20  and  C_27
REMARK                            x       y       z     vdW  Elec       q    Type
REMARK                         _______ _______ _______ _____ _____    ______ ____
ROOT
ATOM      1  C   UNL     1      33.272  -5.818 -24.466  0.00  0.00    -0.014 C 
ATOM      2  C   UNL     1      32.179  -6.662 -24.273  0.00  0.00    +0.003 C 
ATOM      3  C   UNL     1      34.169  -5.589 -23.422  0.00  0.00    -0.004 C 
ATOM      4  C   UNL     1      31.982  -7.277 -23.036  0.00  0.00    +0.029 C 
ATOM      5  C   UNL     1      33.973  -6.204 -22.186  0.00  0.00    +0.000 C 
ATOM      6  C   UNL     1      32.879  -7.048 -21.992  0.00  0.00    +0.006 C 
ENDROOT
BRANCH   1   8
ATOM      7  O   UNL     1      34.478  -5.384 -28.579  0.00  0.00    -0.354 OA
ATOM      8  C   UNL     1      33.491  -5.141 -25.828  0.00  0.00    +0.092 C 
ATOM      9  C   UNL     1      32.751  -5.918 -26.948  0.00  0.00    +0.045 C 
ATOM     10  C   UNL     1      34.980  -5.005 -26.238  0.00  0.00    +0.045 C 
ATOM     11  C   UNL     1      33.074  -5.397 -28.347  0.00  0.00    +0.143 C 
ATOM     12  C   UNL     1      35.156  -4.520 -27.675  0.00  0.00    +0.143 C 
BRANCH   8  15
ATOM     13  O   UNL     1      33.624  -2.756 -25.536  0.00  0.00    -0.275 OA
ATOM     14  N   UNL     1      31.548  -3.693 -25.862  0.00  0.00    -0.329 N 
ATOM     15  C   UNL     1      32.917  -3.741 -25.731  0.00  0.00    +0.222 C 
ATOM     16  H   UNL     1      31.079  -2.828 -25.814  0.00  0.00    +0.145 HD
ATOM     17  H   UNL     1      31.037  -4.522 -26.004  0.00  0.00    +0.145 HD
ENDBRANCH   8  15
ENDBRANCH   1   8
BRANCH   4  18
ATOM     18  S   UNL     1      30.585  -8.356 -22.789  0.00  0.00    -0.087 S 
BRANCH  18  19
ATOM     19  C   UNL     1      31.396  -9.936 -22.585  0.00  0.00    +0.029 C 
ATOM     20  C   UNL     1      32.661 -12.401 -22.265  0.00  0.00    +0.015 C 
ATOM     21  C   UNL     1      32.479 -10.273 -23.396  0.00  0.00    +0.007 C 
ATOM     22  C   UNL     1      30.945 -10.830 -21.614  0.00  0.00    +0.007 C 
ATOM     23  C   UNL     1      33.111 -11.506 -23.235  0.00  0.00    +0.002 C 
ATOM     24  C   UNL     1      31.577 -12.062 -21.453  0.00  0.00    +0.002 C 
BRANCH  20  27
ATOM     25  N   UNL     1      33.538 -14.556 -23.118  0.00  0.00    -0.210 N 
ATOM     26  N   UNL     1      34.161 -15.684 -22.734  0.00  0.00    -0.176 NA
ATOM     27  C   UNL     1      33.315 -13.676 -22.100  0.00  0.00    +0.071 C 
ATOM     28  C   UNL     1      33.827 -14.269 -20.972  0.00  0.00    +0.039 C 
ATOM     29  C   UNL     1      33.180 -14.393 -24.509  0.00  0.00    +0.140 C 
ATOM     30  C   UNL     1      34.335 -15.502 -21.422  0.00  0.00    +0.119 C 
ENDBRANCH  20  27
ENDBRANCH  18  19
ENDBRANCH   4  18
TORSDOF 5
ENDMDL
MODEL 7
REMARK VINA RESULT:     -10.3      4.347      5.716
REMARK  Name = 24986635
REMARK  5 active torsions:
REMARK  status: ('A' for Active; 'I' for Inactive)
REMARK    1  A    between atoms: C_1  and  C_8
REMARK    2  A    between atoms: C_4  and  S_18
REMARK    3  A    between atoms: C_8  and  C_15
REMARK    4  A    between atoms: S_18  and  C_19
REMARK    5  A    between atoms: C_20  and  C_27
REMARK                            x       y       z     vdW  Elec       q    Type
REMARK                         _______ _______ _______ _____ _____    ______ ____
ROOT
ATOM      1  C   UNL     1      31.343 -22.775 -15.528  0.00  0.00    -0.014 C 
ATOM      2  C   UNL     1      31.792 -23.122 -16.802  0.00  0.00    +0.003 C 
ATOM      3  C   UNL     1      32.254 -22.344 -14.562  0.00  0.00    -0.004 C 
ATOM      4  C   UNL     1      33.149 -23.039 -17.111  0.00  0.00    +0.029 C 
ATOM      5  C   UNL     1      33.611 -22.260 -14.871  0.00  0.00    +0.000 C 
ATOM      6  C   UNL     1      34.060 -22.608 -16.145  0.00  0.00    +0.006 C 
ENDROOT
BRANCH   1   8
ATOM      7  O   UNL     1      27.162 -21.736 -15.528  0.00  0.00    -0.354 OA
ATOM      8  C   UNL     1      29.848 -22.865 -15.186  0.00  0.00    +0.092 C 
ATOM      9  C   UNL     1      29.002 -23.016 -16.478  0.00  0.00    +0.045 C 
ATOM     10  C   UNL     1      29.303 -21.650 -14.393  0.00  0.00    +0.045 C 
ATOM     11  C   UNL     1      27.499 -22.934 -16.218  0.00  0.00    +0.143 C 
ATOM     12  C   UNL     1      27.783 -21.671 -14.249  0.00  0.00    +0.143 C 
BRANCH   8  15
ATOM     13  O   UNL     1      29.753 -24.054 -13.096  0.00  0.00    -0.275 OA
ATOM     14  N   UNL     1      29.394 -25.241 -15.034  0.00  0.00    -0.329 N 
ATOM     15  C   UNL     1      29.658 -24.095 -14.320  0.00  0.00    +0.222 C 
ATOM     16  H   UNL     1      29.254 -26.094 -14.562  0.00  0.00    +0.145 HD
ATOM     17  H   UNL     1      29.343 -25.208 -16.017  0.00  0.00    +0.145 HD
ENDBRANCH   8  15
ENDBRANCH   1   8
BRANCH   4  18
ATOM     18  S   UNL     1      33.723 -23.483 -18.738  0.00  0.00    -0.087 S 
BRANCH  18  19
ATOM     19  C   UNL     1      33.909 -21.875 -19.494  0.00  0.00    +0.029 C 
ATOM     20  C   UNL     1      34.197 -19.364 -20.675  0.00  0.00    +0.015 C 
ATOM     21  C   UNL     1      35.181 -21.387 -19.791  0.00  0.00    +0.007 C 
ATOM     22  C   UNL     1      32.781 -21.108 -19.788  0.00  0.00    +0.007 C 
ATOM     23  C   UNL     1      35.325 -20.132 -20.382  0.00  0.00    +0.002 C 
ATOM     24  C   UNL     1      32.925 -19.853 -20.378  0.00  0.00    +0.002 C 
BRANCH  20  27
ATOM     25  N   UNL     1      34.221 -17.833 -22.623  0.00  0.00    -0.210 N 
ATOM     26  N   UNL     1      34.405 -16.547 -22.971  0.00  0.00    -0.176 NA
ATOM     27  C   UNL     1      34.347 -18.066 -21.285  0.00  0.00    +0.071 C 
ATOM     28  C   UNL     1      34.635 -16.848 -20.718  0.00  0.00    +0.039 C 
ATOM     29  C   UNL     1      33.921 -18.800 -23.655  0.00  0.00    +0.140 C 
ATOM     30  C   UNL     1      34.658 -15.951 -21.802  0.00  0.00    +0.119 C 
ENDBRANCH  20  27
ENDBRANCH  18  19
ENDBRANCH   4  18
TORSDOF 5
ENDMDL
MODEL 8
REMARK VINA RESULT:     -10.2     11.432     17.100
REMARK  Name = 24986635
REMARK  5 active torsions:
REMARK  status: ('A' for Active; 'I' for Inactive)
REMARK    1  A    between atoms: C_1  and  C_8
REMARK    2  A    between atoms: C_4  and  S_18
REMARK    3  A    between atoms: C_8  and  C_15
REMARK    4  A    between atoms: S_18  and  C_19
REMARK    5  A    between atoms: C_20  and  C_27
REMARK                            x       y       z     vdW  Elec       q    Type
REMARK                         _______ _______ _______ _____ _____    ______ ____
ROOT
ATOM      1  C   UNL     1      32.914  -5.619 -24.167  0.00  0.00    -0.014 C 
ATOM      2  C   UNL     1      31.842  -6.487 -23.966  0.00  0.00    +0.003 C 
ATOM      3  C   UNL     1      33.942  -5.550 -23.225  0.00  0.00    -0.004 C 
ATOM      4  C   UNL     1      31.796  -7.286 -22.823  0.00  0.00    +0.029 C 
ATOM      5  C   UNL     1      33.897  -6.348 -22.083  0.00  0.00    +0.000 C 
ATOM      6  C   UNL     1      32.824  -7.216 -21.881  0.00  0.00    +0.006 C 
ENDROOT
BRANCH   1   8
ATOM      7  O   UNL     1      32.689  -2.056 -26.579  0.00  0.00    -0.354 OA
ATOM      8  C   UNL     1      32.967  -4.739 -25.426  0.00  0.00    +0.092 C 
ATOM      9  C   UNL     1      34.018  -3.611 -25.259  0.00  0.00    +0.045 C 
ATOM     10  C   UNL     1      31.612  -4.083 -25.799  0.00  0.00    +0.045 C 
ATOM     11  C   UNL     1      33.993  -2.600 -26.403  0.00  0.00    +0.143 C 
ATOM     12  C   UNL     1      31.741  -3.059 -26.924  0.00  0.00    +0.143 C 
BRANCH   8  15
ATOM     13  O   UNL     1      32.554  -6.079 -27.382  0.00  0.00    -0.275 OA
ATOM     14  N   UNL     1      34.721  -5.898 -26.630  0.00  0.00    -0.329 N 
ATOM     15  C   UNL     1      33.373  -5.632 -26.582  0.00  0.00    +0.222 C 
ATOM     16  H   UNL     1      35.086  -6.469 -27.345  0.00  0.00    +0.145 HD
ATOM     17  H   UNL     1      35.323  -5.518 -25.949  0.00  0.00    +0.145 HD
ENDBRANCH   8  15
ENDBRANCH   1   8
BRANCH   4  18
ATOM     18  S   UNL     1      30.426  -8.396 -22.564  0.00  0.00    -0.087 S 
BRANCH  18  19
ATOM     19  C   UNL     1      31.270  -9.963 -22.408  0.00  0.00    +0.029 C 
ATOM     20  C   UNL     1      32.589 -12.409 -22.166  0.00  0.00    +0.015 C 
ATOM     21  C   UNL     1      30.874 -10.874 -21.429  0.00  0.00    +0.007 C 
ATOM     22  C   UNL     1      32.325 -10.275 -23.266  0.00  0.00    +0.007 C 
ATOM     23  C   UNL     1      31.533 -12.097 -21.309  0.00  0.00    +0.002 C 
ATOM     24  C   UNL     1      32.984 -11.498 -23.146  0.00  0.00    +0.002 C 
BRANCH  20  27
ATOM     25  N   UNL     1      33.503 -14.523 -23.083  0.00  0.00    -0.210 N 
ATOM     26  N   UNL     1      34.151 -15.647 -22.734  0.00  0.00    -0.176 NA
ATOM     27  C   UNL     1      33.270 -13.674 -22.040  0.00  0.00    +0.071 C 
ATOM     28  C   UNL     1      33.804 -14.286 -20.933  0.00  0.00    +0.039 C 
ATOM     29  C   UNL     1      33.130 -14.330 -24.466  0.00  0.00    +0.140 C 
ATOM     30  C   UNL     1      34.332 -15.497 -21.419  0.00  0.00    +0.119 C 
ENDBRANCH  20  27
ENDBRANCH  18  19
ENDBRANCH   4  18
TORSDOF 5
ENDMDL
MODEL 9
REMARK VINA RESULT:     -10.2      1.936      3.069
REMARK  Name = 24986635
REMARK  5 active torsions:
REMARK  status: ('A' for Active; 'I' for Inactive)
REMARK    1  A    between atoms: C_1  and  C_8
REMARK    2  A    between atoms: C_4  and  S_18
REMARK    3  A    between atoms: C_8  and  C_15
REMARK    4  A    between atoms: S_18  and  C_19
REMARK    5  A    between atoms: C_20  and  C_27
REMARK                            x       y       z     vdW  Elec       q    Type
REMARK                         _______ _______ _______ _____ _____    ______ ____
ROOT
ATOM      1  C   UNL     1      34.926 -23.697 -14.348  0.00  0.00    -0.014 C 
ATOM      2  C   UNL     1      34.225 -23.752 -15.553  0.00  0.00    +0.003 C 
ATOM      3  C   UNL     1      34.360 -23.061 -13.242  0.00  0.00    -0.004 C 
ATOM      4  C   UNL     1      32.961 -23.173 -15.652  0.00  0.00    +0.029 C 
ATOM      5  C   UNL     1      33.095 -22.482 -13.341  0.00  0.00    +0.000 C 
ATOM      6  C   UNL     1      32.395 -22.537 -14.546  0.00  0.00    +0.006 C 
ENDROOT
BRANCH   1   8
ATOM      7  O   UNL     1      39.163 -23.968 -13.621  0.00  0.00    -0.354 OA
ATOM      8  C   UNL     1      36.319 -24.335 -14.237  0.00  0.00    +0.092 C 
ATOM      9  C   UNL     1      36.880 -24.171 -12.800  0.00  0.00    +0.045 C 
ATOM     10  C   UNL     1      37.362 -23.760 -15.230  0.00  0.00    +0.045 C 
ATOM     11  C   UNL     1      38.332 -24.628 -12.673  0.00  0.00    +0.143 C 
ATOM     12  C   UNL     1      38.777 -24.263 -14.958  0.00  0.00    +0.143 C 
BRANCH   8  15
ATOM     13  O   UNL     1      35.863 -26.216 -15.666  0.00  0.00    -0.275 OA
ATOM     14  N   UNL     1      36.370 -26.629 -13.460  0.00  0.00    -0.329 N 
ATOM     15  C   UNL     1      36.163 -25.811 -14.546  0.00  0.00    +0.222 C 
ATOM     16  H   UNL     1      36.292 -27.607 -13.558  0.00  0.00    +0.145 HD
ATOM     17  H   UNL     1      36.595 -26.239 -12.585  0.00  0.00    +0.145 HD
ENDBRANCH   8  15
ENDBRANCH   1   8
BRANCH   4  18
ATOM     18  S   UNL     1      32.065 -23.243 -17.192  0.00  0.00    -0.087 S 
BRANCH  18  19
ATOM     19  C   UNL     1      33.017 -22.116 -18.201  0.00  0.00    +0.029 C 
ATOM     20  C   UNL     1      34.503 -20.357 -19.775  0.00  0.00    +0.015 C 
ATOM     21  C   UNL     1      32.368 -21.256 -19.087  0.00  0.00    +0.007 C 
ATOM     22  C   UNL     1      34.408 -22.097 -18.103  0.00  0.00    +0.007 C 
ATOM     23  C   UNL     1      33.111 -20.376 -19.873  0.00  0.00    +0.002 C 
ATOM     24  C   UNL     1      35.151 -21.218 -18.889  0.00  0.00    +0.002 C 
BRANCH  20  27
ATOM     25  N   UNL     1      34.840 -18.941 -21.781  0.00  0.00    -0.210 N 
ATOM     26  N   UNL     1      35.721 -18.115 -22.370  0.00  0.00    -0.176 NA
ATOM     27  C   UNL     1      35.271 -19.448 -20.590  0.00  0.00    +0.071 C 
ATOM     28  C   UNL     1      36.521 -18.916 -20.386  0.00  0.00    +0.039 C 
ATOM     29  C   UNL     1      33.579 -19.202 -22.437  0.00  0.00    +0.140 C 
ATOM     30  C   UNL     1      36.746 -18.103 -21.513  0.00  0.00    +0.119 C 
ENDBRANCH  20  27
ENDBRANCH  18  19
ENDBRANCH   4  18
TORSDOF 5
ENDMDL
