MODEL 1
REMARK VINA RESULT:     -11.3      0.000      0.000
REMARK  Name = 21066087
REMARK  4 active torsions:
REMARK  status: ('A' for Active; 'I' for Inactive)
REMARK    1  A    between atoms: C_4  and  N_18
REMARK    2  A    between atoms: C_5  and  C_12
REMARK    3  A    between atoms: N_18  and  C_20
REMARK    4  A    between atoms: C_20  and  C_22
REMARK                            x       y       z     vdW  Elec       q    Type
REMARK                         _______ _______ _______ _____ _____    ______ ____
ROOT
ATOM      1  N   UNL     1      31.414 -23.543 -14.933  0.00  0.00    -0.152 N 
ATOM      2  N   UNL     1      32.680 -24.262 -13.015  0.00  0.00    -0.389 NA
ATOM      3  N   UNL     1      30.135 -23.573 -15.404  0.00  0.00    -0.174 NA
ATOM      4  C   UNL     1      32.544 -22.985 -15.552  0.00  0.00    +0.126 C 
ATOM      5  C   UNL     1      33.726 -23.733 -13.581  0.00  0.00    +0.136 C 
ATOM      6  C   UNL     1      31.502 -24.169 -13.689  0.00  0.00    +0.190 C 
ATOM      7  C   UNL     1      33.725 -23.057 -14.916  0.00  0.00    +0.064 C 
ATOM      8  C   UNL     1      30.234 -24.605 -13.379  0.00  0.00    +0.125 C 
ATOM      9  C   UNL     1      29.442 -24.211 -14.464  0.00  0.00    +0.101 C 
ENDROOT
BRANCH   5  12
ATOM     10 CL   UNL     1      35.911 -25.440 -14.850  0.00  0.00    -0.081 Cl
ATOM     11 CL   UNL     1      38.675 -25.501 -13.216  0.00  0.00    -0.081 Cl
ATOM     12  C   UNL     1      35.034 -23.806 -12.878  0.00  0.00    +0.041 C 
ATOM     13  C   UNL     1      36.103 -24.557 -13.368  0.00  0.00    +0.071 C 
ATOM     14  C   UNL     1      35.172 -23.090 -11.689  0.00  0.00    +0.003 C 
ATOM     15  C   UNL     1      37.310 -24.592 -12.668  0.00  0.00    +0.068 C 
ATOM     16  C   UNL     1      36.378 -23.125 -10.989  0.00  0.00    +0.001 C 
ATOM     17  C   UNL     1      37.447 -23.876 -11.479  0.00  0.00    +0.012 C 
ENDBRANCH   5  12
BRANCH   4  18
ATOM     18  N   UNL     1      32.372 -22.405 -16.777  0.00  0.00    -0.316 N 
ATOM     19  H   UNL     1      31.813 -21.597 -16.836  0.00  0.00    +0.148 HD
BRANCH  18  20
ATOM     20  C   UNL     1      32.966 -22.915 -17.984  0.00  0.00    +0.115 C 
BRANCH  20  22
ATOM     21  N   UNL     1      34.706 -19.721 -20.275  0.00  0.00    -0.242 NA
ATOM     22  C   UNL     1      33.575 -21.798 -18.785  0.00  0.00    +0.000 C 
ATOM     23  C   UNL     1      34.949 -21.594 -18.765  0.00  0.00    +0.018 C 
ATOM     24  C   UNL     1      32.764 -20.965 -19.548  0.00  0.00    +0.018 C 
ATOM     25  C   UNL     1      35.461 -20.552 -19.521  0.00  0.00    +0.099 C 
ATOM     26  C   UNL     1      33.374 -19.951 -20.268  0.00  0.00    +0.099 C 
ENDBRANCH  20  22
ENDBRANCH  18  20
ENDBRANCH   4  18
TORSDOF 4
ENDMDL
MODEL 2
REMARK VINA RESULT:     -10.7      1.419      2.124
REMARK  Name = 21066087
REMARK  4 active torsions:
REMARK  status: ('A' for Active; 'I' for Inactive)
REMARK    1  A    between atoms: C_4  and  N_18
REMARK    2  A    between atoms: C_5  and  C_12
REMARK    3  A    between atoms: N_18  and  C_20
REMARK    4  A    between atoms: C_20  and  C_22
REMARK                            x       y       z     vdW  Elec       q    Type
REMARK                         _______ _______ _______ _____ _____    ______ ____
ROOT
ATOM      1  N   UNL     1      31.696 -22.923 -15.599  0.00  0.00    -0.152 N 
ATOM      2  N   UNL     1      32.971 -24.173 -13.983  0.00  0.00    -0.389 NA
ATOM      3  N   UNL     1      30.427 -22.464 -15.791  0.00  0.00    -0.174 NA
ATOM      4  C   UNL     1      32.804 -22.764 -16.447  0.00  0.00    +0.126 C 
ATOM      5  C   UNL     1      34.002 -24.014 -14.761  0.00  0.00    +0.136 C 
ATOM      6  C   UNL     1      31.798 -23.621 -14.395  0.00  0.00    +0.190 C 
ATOM      7  C   UNL     1      33.980 -23.295 -16.074  0.00  0.00    +0.064 C 
ATOM      8  C   UNL     1      30.547 -23.597 -13.821  0.00  0.00    +0.125 C 
ATOM      9  C   UNL     1      29.753 -22.875 -14.719  0.00  0.00    +0.101 C 
ENDROOT
BRANCH   5  12
ATOM     10 CL   UNL     1      35.531 -22.603 -12.530  0.00  0.00    -0.081 Cl
ATOM     11 CL   UNL     1      38.327 -23.977 -11.752  0.00  0.00    -0.081 Cl
ATOM     12  C   UNL     1      35.307 -24.596 -14.349  0.00  0.00    +0.041 C 
ATOM     13  C   UNL     1      36.089 -24.034 -13.340  0.00  0.00    +0.071 C 
ATOM     14  C   UNL     1      35.741 -25.746 -15.009  0.00  0.00    +0.003 C 
ATOM     15  C   UNL     1      37.306 -24.621 -12.992  0.00  0.00    +0.068 C 
ATOM     16  C   UNL     1      36.957 -26.332 -14.661  0.00  0.00    +0.001 C 
ATOM     17  C   UNL     1      37.740 -25.770 -13.653  0.00  0.00    +0.012 C 
ENDBRANCH   5  12
BRANCH   4  18
ATOM     18  N   UNL     1      32.613 -22.079 -17.614  0.00  0.00    -0.316 N 
ATOM     19  H   UNL     1      32.021 -21.293 -17.602  0.00  0.00    +0.148 HD
BRANCH  18  20
ATOM     20  C   UNL     1      33.233 -22.449 -18.858  0.00  0.00    +0.115 C 
BRANCH  20  22
ATOM     21  N   UNL     1      35.339 -19.104 -20.547  0.00  0.00    -0.242 NA
ATOM     22  C   UNL     1      33.969 -21.279 -19.449  0.00  0.00    +0.000 C 
ATOM     23  C   UNL     1      33.280 -20.316 -20.176  0.00  0.00    +0.018 C 
ATOM     24  C   UNL     1      35.343 -21.157 -19.271  0.00  0.00    +0.018 C 
ATOM     25  C   UNL     1      34.003 -19.257 -20.699  0.00  0.00    +0.099 C 
ATOM     26  C   UNL     1      35.974 -20.061 -19.835  0.00  0.00    +0.099 C 
ENDBRANCH  20  22
ENDBRANCH  18  20
ENDBRANCH   4  18
TORSDOF 4
ENDMDL
MODEL 3
REMARK VINA RESULT:     -10.7      2.727      6.740
REMARK  Name = 21066087
REMARK  4 active torsions:
REMARK  status: ('A' for Active; 'I' for Inactive)
REMARK    1  A    between atoms: C_4  and  N_18
REMARK    2  A    between atoms: C_5  and  C_12
REMARK    3  A    between atoms: N_18  and  C_20
REMARK    4  A    between atoms: C_20  and  C_22
REMARK                            x       y       z     vdW  Elec       q    Type
REMARK                         _______ _______ _______ _____ _____    ______ ____
ROOT
ATOM      1  N   UNL     1      35.304 -23.906 -14.162  0.00  0.00    -0.152 N 
ATOM      2  N   UNL     1      36.279 -22.753 -16.038  0.00  0.00    -0.389 NA
ATOM      3  N   UNL     1      35.691 -24.574 -13.038  0.00  0.00    -0.174 NA
ATOM      4  C   UNL     1      33.996 -23.668 -14.612  0.00  0.00    +0.126 C 
ATOM      5  C   UNL     1      35.066 -22.519 -16.449  0.00  0.00    +0.136 C 
ATOM      6  C   UNL     1      36.412 -23.452 -14.878  0.00  0.00    +0.190 C 
ATOM      7  C   UNL     1      33.824 -22.981 -15.753  0.00  0.00    +0.064 C 
ATOM      8  C   UNL     1      37.525 -23.854 -14.176  0.00  0.00    +0.125 C 
ATOM      9  C   UNL     1      37.021 -24.535 -13.062  0.00  0.00    +0.101 C 
ENDROOT
BRANCH   5  12
ATOM     10 CL   UNL     1      32.221 -22.266 -17.518  0.00  0.00    -0.081 Cl
ATOM     11 CL   UNL     1      31.964 -20.589 -20.245  0.00  0.00    -0.081 Cl
ATOM     12  C   UNL     1      34.872 -21.755 -17.709  0.00  0.00    +0.041 C 
ATOM     13  C   UNL     1      33.616 -21.576 -18.288  0.00  0.00    +0.071 C 
ATOM     14  C   UNL     1      36.003 -21.206 -18.314  0.00  0.00    +0.003 C 
ATOM     15  C   UNL     1      33.490 -20.850 -19.473  0.00  0.00    +0.068 C 
ATOM     16  C   UNL     1      35.877 -20.480 -19.499  0.00  0.00    +0.001 C 
ATOM     17  C   UNL     1      34.621 -20.302 -20.077  0.00  0.00    +0.012 C 
ENDBRANCH   5  12
BRANCH   4  18
ATOM     18  N   UNL     1      32.969 -24.162 -13.857  0.00  0.00    -0.316 N 
ATOM     19  H   UNL     1      32.918 -25.136 -13.719  0.00  0.00    +0.148 HD
BRANCH  18  20
ATOM     20  C   UNL     1      31.961 -23.332 -13.254  0.00  0.00    +0.115 C 
BRANCH  20  22
ATOM     21  N   UNL     1      28.182 -23.868 -15.231  0.00  0.00    -0.242 NA
ATOM     22  C   UNL     1      30.639 -23.520 -13.945  0.00  0.00    +0.000 C 
ATOM     23  C   UNL     1      30.018 -24.763 -13.937  0.00  0.00    +0.018 C 
ATOM     24  C   UNL     1      30.034 -22.450 -14.595  0.00  0.00    +0.018 C 
ATOM     25  C   UNL     1      28.802 -24.884 -14.588  0.00  0.00    +0.099 C 
ATOM     26  C   UNL     1      28.817 -22.675 -15.217  0.00  0.00    +0.099 C 
ENDBRANCH  20  22
ENDBRANCH  18  20
ENDBRANCH   4  18
TORSDOF 4
ENDMDL
MODEL 4
REMARK VINA RESULT:     -10.6      3.378      5.334
REMARK  Name = 21066087
REMARK  4 active torsions:
REMARK  status: ('A' for Active; 'I' for Inactive)
REMARK    1  A    between atoms: C_4  and  N_18
REMARK    2  A    between atoms: C_5  and  C_12
REMARK    3  A    between atoms: N_18  and  C_20
REMARK    4  A    between atoms: C_20  and  C_22
REMARK                            x       y       z     vdW  Elec       q    Type
REMARK                         _______ _______ _______ _____ _____    ______ ____
ROOT
ATOM      1  N   UNL     1      35.294 -21.910 -16.983  0.00  0.00    -0.152 N 
ATOM      2  N   UNL     1      34.218 -22.696 -14.977  0.00  0.00    -0.389 NA
ATOM      3  N   UNL     1      36.506 -21.444 -17.397  0.00  0.00    -0.174 NA
ATOM      4  C   UNL     1      34.133 -22.087 -17.753  0.00  0.00    +0.126 C 
ATOM      5  C   UNL     1      33.146 -22.874 -15.692  0.00  0.00    +0.136 C 
ATOM      6  C   UNL     1      35.314 -22.212 -15.620  0.00  0.00    +0.190 C 
ATOM      7  C   UNL     1      33.030 -22.564 -17.152  0.00  0.00    +0.064 C 
ATOM      8  C   UNL     1      36.583 -21.921 -15.173  0.00  0.00    +0.125 C 
ATOM      9  C   UNL     1      37.266 -21.457 -16.304  0.00  0.00    +0.101 C 
ENDROOT
BRANCH   5  12
ATOM     10 CL   UNL     1      30.446 -22.072 -16.865  0.00  0.00    -0.081 Cl
ATOM     11 CL   UNL     1      27.907 -23.299 -15.331  0.00  0.00    -0.081 Cl
ATOM     12  C   UNL     1      31.925 -23.407 -15.032  0.00  0.00    +0.041 C 
ATOM     13  C   UNL     1      30.640 -23.105 -15.483  0.00  0.00    +0.071 C 
ATOM     14  C   UNL     1      32.098 -24.237 -13.924  0.00  0.00    +0.003 C 
ATOM     15  C   UNL     1      29.527 -23.632 -14.826  0.00  0.00    +0.068 C 
ATOM     16  C   UNL     1      30.986 -24.763 -13.266  0.00  0.00    +0.001 C 
ATOM     17  C   UNL     1      29.701 -24.461 -13.718  0.00  0.00    +0.012 C 
ENDBRANCH   5  12
BRANCH   4  18
ATOM     18  N   UNL     1      34.196 -21.752 -19.076  0.00  0.00    -0.316 N 
ATOM     19  H   UNL     1      34.793 -22.272 -19.661  0.00  0.00    +0.148 HD
BRANCH  18  20
ATOM     20  C   UNL     1      33.434 -20.678 -19.656  0.00  0.00    +0.115 C 
BRANCH  20  22
ATOM     21  N   UNL     1      35.946 -18.203 -22.116  0.00  0.00    -0.242 NA
ATOM     22  C   UNL     1      34.313 -19.813 -20.516  0.00  0.00    +0.000 C 
ATOM     23  C   UNL     1      35.633 -19.577 -20.151  0.00  0.00    +0.018 C 
ATOM     24  C   UNL     1      33.807 -19.244 -21.680  0.00  0.00    +0.018 C 
ATOM     25  C   UNL     1      36.401 -18.773 -20.977  0.00  0.00    +0.099 C 
ATOM     26  C   UNL     1      34.657 -18.455 -22.438  0.00  0.00    +0.099 C 
ENDBRANCH  20  22
ENDBRANCH  18  20
ENDBRANCH   4  18
TORSDOF 4
ENDMDL
MODEL 5
REMARK VINA RESULT:     -10.5      2.770      5.440
REMARK  Name = 21066087
REMARK  4 active torsions:
REMARK  status: ('A' for Active; 'I' for Inactive)
REMARK    1  A    between atoms: C_4  and  N_18
REMARK    2  A    between atoms: C_5  and  C_12
REMARK    3  A    between atoms: N_18  and  C_20
REMARK    4  A    between atoms: C_20  and  C_22
REMARK                            x       y       z     vdW  Elec       q    Type
REMARK                         _______ _______ _______ _____ _____    ______ ____
ROOT
ATOM      1  N   UNL     1      35.241 -21.967 -17.123  0.00  0.00    -0.152 N 
ATOM      2  N   UNL     1      33.856 -22.638 -15.270  0.00  0.00    -0.389 NA
ATOM      3  N   UNL     1      36.547 -21.689 -17.396  0.00  0.00    -0.174 NA
ATOM      4  C   UNL     1      34.151 -21.929 -18.008  0.00  0.00    +0.126 C 
ATOM      5  C   UNL     1      32.848 -22.617 -16.093  0.00  0.00    +0.136 C 
ATOM      6  C   UNL     1      35.074 -22.314 -15.781  0.00  0.00    +0.190 C 
ATOM      7  C   UNL     1      32.932 -22.243 -17.539  0.00  0.00    +0.064 C 
ATOM      8  C   UNL     1      36.321 -22.247 -15.201  0.00  0.00    +0.125 C 
ATOM      9  C   UNL     1      37.179 -21.860 -16.237  0.00  0.00    +0.101 C 
ENDROOT
BRANCH   5  12
ATOM     10 CL   UNL     1      32.695 -24.085 -13.423  0.00  0.00    -0.081 Cl
ATOM     11 CL   UNL     1      29.715 -24.775 -12.448  0.00  0.00    -0.081 Cl
ATOM     12  C   UNL     1      31.497 -22.969 -15.579  0.00  0.00    +0.041 C 
ATOM     13  C   UNL     1      31.310 -23.640 -14.371  0.00  0.00    +0.071 C 
ATOM     14  C   UNL     1      30.395 -22.602 -16.351  0.00  0.00    +0.003 C 
ATOM     15  C   UNL     1      30.020 -23.946 -13.934  0.00  0.00    +0.068 C 
ATOM     16  C   UNL     1      29.106 -22.908 -15.916  0.00  0.00    +0.001 C 
ATOM     17  C   UNL     1      28.918 -23.579 -14.708  0.00  0.00    +0.012 C 
ENDBRANCH   5  12
BRANCH   4  18
ATOM     18  N   UNL     1      34.401 -21.564 -19.300  0.00  0.00    -0.316 N 
ATOM     19  H   UNL     1      35.166 -21.977 -19.763  0.00  0.00    +0.148 HD
BRANCH  18  20
ATOM     20  C   UNL     1      33.602 -20.608 -20.020  0.00  0.00    +0.115 C 
BRANCH  20  22
ATOM     21  N   UNL     1      36.111 -17.892 -22.212  0.00  0.00    -0.242 NA
ATOM     22  C   UNL     1      34.479 -19.658 -20.787  0.00  0.00    +0.000 C 
ATOM     23  C   UNL     1      34.007 -19.052 -21.945  0.00  0.00    +0.018 C 
ATOM     24  C   UNL     1      35.767 -19.383 -20.340  0.00  0.00    +0.018 C 
ATOM     25  C   UNL     1      34.854 -18.185 -22.615  0.00  0.00    +0.099 C 
ATOM     26  C   UNL     1      36.535 -18.501 -21.082  0.00  0.00    +0.099 C 
ENDBRANCH  20  22
ENDBRANCH  18  20
ENDBRANCH   4  18
TORSDOF 4
ENDMDL
MODEL 6
REMARK VINA RESULT:     -10.5      2.991      6.853
REMARK  Name = 21066087
REMARK  4 active torsions:
REMARK  status: ('A' for Active; 'I' for Inactive)
REMARK    1  A    between atoms: C_4  and  N_18
REMARK    2  A    between atoms: C_5  and  C_12
REMARK    3  A    between atoms: N_18  and  C_20
REMARK    4  A    between atoms: C_20  and  C_22
REMARK                            x       y       z     vdW  Elec       q    Type
REMARK                         _______ _______ _______ _____ _____    ______ ____
ROOT
ATOM      1  N   UNL     1      35.335 -21.884 -17.011  0.00  0.00    -0.152 N 
ATOM      2  N   UNL     1      33.015 -22.528 -17.047  0.00  0.00    -0.389 NA
ATOM      3  N   UNL     1      36.282 -21.363 -17.842  0.00  0.00    -0.174 NA
ATOM      4  C   UNL     1      35.485 -22.255 -15.665  0.00  0.00    +0.126 C 
ATOM      5  C   UNL     1      33.149 -22.859 -15.795  0.00  0.00    +0.136 C 
ATOM      6  C   UNL     1      34.115 -22.029 -17.672  0.00  0.00    +0.190 C 
ATOM      7  C   UNL     1      34.420 -22.752 -15.013  0.00  0.00    +0.064 C 
ATOM      8  C   UNL     1      34.312 -21.585 -18.960  0.00  0.00    +0.125 C 
ATOM      9  C   UNL     1      35.654 -21.191 -19.004  0.00  0.00    +0.101 C 
ENDROOT
BRANCH   5  12
ATOM     10 CL   UNL     1      30.382 -22.114 -16.840  0.00  0.00    -0.081 Cl
ATOM     11 CL   UNL     1      27.942 -23.365 -15.170  0.00  0.00    -0.081 Cl
ATOM     12  C   UNL     1      31.971 -23.404 -15.069  0.00  0.00    +0.041 C 
ATOM     13  C   UNL     1      30.661 -23.128 -15.459  0.00  0.00    +0.071 C 
ATOM     14  C   UNL     1      32.212 -24.218 -13.962  0.00  0.00    +0.003 C 
ATOM     15  C   UNL     1      29.591 -23.666 -14.742  0.00  0.00    +0.068 C 
ATOM     16  C   UNL     1      31.143 -24.755 -13.245  0.00  0.00    +0.001 C 
ATOM     17  C   UNL     1      29.833 -24.479 -13.635  0.00  0.00    +0.012 C 
ENDBRANCH   5  12
BRANCH   4  18
ATOM     18  N   UNL     1      36.718 -22.095 -15.099  0.00  0.00    -0.316 N 
ATOM     19  H   UNL     1      36.959 -21.207 -14.748  0.00  0.00    +0.148 HD
BRANCH  18  20
ATOM     20  C   UNL     1      37.683 -23.157 -14.991  0.00  0.00    +0.115 C 
BRANCH  20  22
ATOM     21  N   UNL     1      36.800 -25.653 -11.604  0.00  0.00    -0.242 NA
ATOM     22  C   UNL     1      37.374 -24.030 -13.807  0.00  0.00    +0.000 C 
ATOM     23  C   UNL     1      37.147 -25.390 -13.982  0.00  0.00    +0.018 C 
ATOM     24  C   UNL     1      37.314 -23.480 -12.531  0.00  0.00    +0.018 C 
ATOM     25  C   UNL     1      36.867 -26.151 -12.860  0.00  0.00    +0.099 C 
ATOM     26  C   UNL     1      37.026 -24.327 -11.473  0.00  0.00    +0.099 C 
ENDBRANCH  20  22
ENDBRANCH  18  20
ENDBRANCH   4  18
TORSDOF 4
ENDMDL
MODEL 7
REMARK VINA RESULT:     -10.4     12.102     16.607
REMARK  Name = 21066087
REMARK  4 active torsions:
REMARK  status: ('A' for Active; 'I' for Inactive)
REMARK    1  A    between atoms: C_4  and  N_18
REMARK    2  A    between atoms: C_5  and  C_12
REMARK    3  A    between atoms: N_18  and  C_20
REMARK    4  A    between atoms: C_20  and  C_22
REMARK                            x       y       z     vdW  Elec       q    Type
REMARK                         _______ _______ _______ _____ _____    ______ ____
ROOT
ATOM      1  N   UNL     1      31.638 -10.074 -20.976  0.00  0.00    -0.152 N 
ATOM      2  N   UNL     1      31.681  -7.753 -21.618  0.00  0.00    -0.389 NA
ATOM      3  N   UNL     1      31.448 -10.841 -19.866  0.00  0.00    -0.174 NA
ATOM      4  C   UNL     1      31.913 -10.508 -22.284  0.00  0.00    +0.126 C 
ATOM      5  C   UNL     1      31.921  -8.155 -22.833  0.00  0.00    +0.136 C 
ATOM      6  C   UNL     1      31.532  -8.717 -20.670  0.00  0.00    +0.190 C 
ATOM      7  C   UNL     1      32.066  -9.585 -23.248  0.00  0.00    +0.064 C 
ATOM      8  C   UNL     1      31.269  -8.639 -19.321  0.00  0.00    +0.125 C 
ATOM      9  C   UNL     1      31.229  -9.969 -18.885  0.00  0.00    +0.101 C 
ENDROOT
BRANCH   5  12
ATOM     10 CL   UNL     1      34.480  -6.494 -22.813  0.00  0.00    -0.081 Cl
ATOM     11 CL   UNL     1      34.691  -4.339 -25.185  0.00  0.00    -0.081 Cl
ATOM     12  C   UNL     1      32.087  -7.136 -23.904  0.00  0.00    +0.041 C 
ATOM     13  C   UNL     1      33.215  -6.322 -23.991  0.00  0.00    +0.071 C 
ATOM     14  C   UNL     1      31.063  -7.011 -24.842  0.00  0.00    +0.003 C 
ATOM     15  C   UNL     1      33.320  -5.381 -25.016  0.00  0.00    +0.068 C 
ATOM     16  C   UNL     1      31.167  -6.071 -25.867  0.00  0.00    +0.001 C 
ATOM     17  C   UNL     1      32.296  -5.257 -25.954  0.00  0.00    +0.012 C 
ENDBRANCH   5  12
BRANCH   4  18
ATOM     18  N   UNL     1      32.016 -11.854 -22.493  0.00  0.00    -0.316 N 
ATOM     19  H   UNL     1      31.286 -12.433 -22.176  0.00  0.00    +0.148 HD
BRANCH  18  20
ATOM     20  C   UNL     1      33.137 -12.468 -23.154  0.00  0.00    +0.115 C 
BRANCH  20  22
ATOM     21  N   UNL     1      34.463 -15.930 -20.979  0.00  0.00    -0.242 NA
ATOM     22  C   UNL     1      33.600 -13.678 -22.393  0.00  0.00    +0.000 C 
ATOM     23  C   UNL     1      33.497 -13.714 -21.008  0.00  0.00    +0.018 C 
ATOM     24  C   UNL     1      34.135 -14.767 -23.073  0.00  0.00    +0.018 C 
ATOM     25  C   UNL     1      33.938 -14.852 -20.353  0.00  0.00    +0.099 C 
ATOM     26  C   UNL     1      34.548 -15.858 -22.326  0.00  0.00    +0.099 C 
ENDBRANCH  20  22
ENDBRANCH  18  20
ENDBRANCH   4  18
TORSDOF 4
ENDMDL
MODEL 8
REMARK VINA RESULT:     -10.2      6.696     11.908
REMARK  Name = 21066087
REMARK  4 active torsions:
REMARK  status: ('A' for Active; 'I' for Inactive)
REMARK    1  A    between atoms: C_4  and  N_18
REMARK    2  A    between atoms: C_5  and  C_12
REMARK    3  A    between atoms: N_18  and  C_20
REMARK    4  A    between atoms: C_20  and  C_22
REMARK                            x       y       z     vdW  Elec       q    Type
REMARK                         _______ _______ _______ _____ _____    ______ ____
ROOT
ATOM      1  N   UNL     1      34.154 -17.214 -22.939  0.00  0.00    -0.152 N 
ATOM      2  N   UNL     1      33.123 -15.252 -23.882  0.00  0.00    -0.389 NA
ATOM      3  N   UNL     1      34.390 -18.518 -23.259  0.00  0.00    -0.174 NA
ATOM      4  C   UNL     1      34.510 -16.540 -21.760  0.00  0.00    +0.126 C 
ATOM      5  C   UNL     1      33.466 -14.622 -22.796  0.00  0.00    +0.136 C 
ATOM      6  C   UNL     1      33.470 -16.564 -23.968  0.00  0.00    +0.190 C 
ATOM      7  C   UNL     1      34.185 -15.242 -21.639  0.00  0.00    +0.064 C 
ATOM      8  C   UNL     1      33.273 -17.499 -24.959  0.00  0.00    +0.125 C 
ATOM      9  C   UNL     1      33.856 -18.672 -24.468  0.00  0.00    +0.101 C 
ENDROOT
BRANCH   5  12
ATOM     10 CL   UNL     1      31.943 -13.777 -20.292  0.00  0.00    -0.081 Cl
ATOM     11 CL   UNL     1      31.251 -10.645 -20.143  0.00  0.00    -0.081 Cl
ATOM     12  C   UNL     1      33.112 -13.184 -22.660  0.00  0.00    +0.041 C 
ATOM     13  C   UNL     1      32.417 -12.688 -21.557  0.00  0.00    +0.071 C 
ATOM     14  C   UNL     1      33.502 -12.322 -23.685  0.00  0.00    +0.003 C 
ATOM     15  C   UNL     1      32.110 -11.329 -21.480  0.00  0.00    +0.068 C 
ATOM     16  C   UNL     1      33.195 -10.964 -23.608  0.00  0.00    +0.001 C 
ATOM     17  C   UNL     1      32.500 -10.467 -22.506  0.00  0.00    +0.012 C 
ENDBRANCH   5  12
BRANCH   4  18
ATOM     18  N   UNL     1      35.165 -17.256 -20.798  0.00  0.00    -0.316 N 
ATOM     19  H   UNL     1      35.199 -16.888 -19.885  0.00  0.00    +0.148 HD
BRANCH  18  20
ATOM     20  C   UNL     1      35.805 -18.519 -21.051  0.00  0.00    +0.115 C 
BRANCH  20  22
ATOM     21  N   UNL     1      33.894 -21.653 -18.812  0.00  0.00    -0.242 NA
ATOM     22  C   UNL     1      35.136 -19.615 -20.268  0.00  0.00    +0.000 C 
ATOM     23  C   UNL     1      33.759 -19.789 -20.346  0.00  0.00    +0.018 C 
ATOM     24  C   UNL     1      35.893 -20.458 -19.463  0.00  0.00    +0.018 C 
ATOM     25  C   UNL     1      33.192 -20.813 -19.606  0.00  0.00    +0.099 C 
ATOM     26  C   UNL     1      35.230 -21.452 -18.762  0.00  0.00    +0.099 C 
ENDBRANCH  20  22
ENDBRANCH  18  20
ENDBRANCH   4  18
TORSDOF 4
ENDMDL
MODEL 9
REMARK VINA RESULT:     -10.2      2.479      6.554
REMARK  Name = 21066087
REMARK  4 active torsions:
REMARK  status: ('A' for Active; 'I' for Inactive)
REMARK    1  A    between atoms: C_4  and  N_18
REMARK    2  A    between atoms: C_5  and  C_12
REMARK    3  A    between atoms: N_18  and  C_20
REMARK    4  A    between atoms: C_20  and  C_22
REMARK                            x       y       z     vdW  Elec       q    Type
REMARK                         _______ _______ _______ _____ _____    ______ ____
ROOT
ATOM      1  N   UNL     1      34.138 -23.854 -14.381  0.00  0.00    -0.152 N 
ATOM      2  N   UNL     1      35.214 -22.806 -16.264  0.00  0.00    -0.389 NA
ATOM      3  N   UNL     1      34.463 -24.535 -13.246  0.00  0.00    -0.174 NA
ATOM      4  C   UNL     1      32.855 -23.521 -14.846  0.00  0.00    +0.126 C 
ATOM      5  C   UNL     1      34.026 -22.484 -16.688  0.00  0.00    +0.136 C 
ATOM      6  C   UNL     1      35.283 -23.497 -15.094  0.00  0.00    +0.190 C 
ATOM      7  C   UNL     1      32.747 -22.839 -15.998  0.00  0.00    +0.064 C 
ATOM      8  C   UNL     1      36.356 -23.975 -14.377  0.00  0.00    +0.125 C 
ATOM      9  C   UNL     1      35.792 -24.599 -13.258  0.00  0.00    +0.101 C 
ENDROOT
BRANCH   5  12
ATOM     10 CL   UNL     1      36.551 -21.185 -17.804  0.00  0.00    -0.081 Cl
ATOM     11 CL   UNL     1      36.123 -19.581 -20.552  0.00  0.00    -0.081 Cl
ATOM     12  C   UNL     1      33.903 -21.725 -17.960  0.00  0.00    +0.041 C 
ATOM     13  C   UNL     1      34.991 -21.091 -18.560  0.00  0.00    +0.071 C 
ATOM     14  C   UNL     1      32.643 -21.659 -18.556  0.00  0.00    +0.003 C 
ATOM     15  C   UNL     1      34.819 -20.390 -19.755  0.00  0.00    +0.068 C 
ATOM     16  C   UNL     1      32.471 -20.959 -19.750  0.00  0.00    +0.001 C 
ATOM     17  C   UNL     1      33.559 -20.325 -20.349  0.00  0.00    +0.012 C 
ENDBRANCH   5  12
BRANCH   4  18
ATOM     18  N   UNL     1      31.788 -23.923 -14.094  0.00  0.00    -0.316 N 
ATOM     19  H   UNL     1      31.729 -24.872 -13.837  0.00  0.00    +0.148 HD
BRANCH  18  20
ATOM     20  C   UNL     1      30.746 -23.031 -13.660  0.00  0.00    +0.115 C 
BRANCH  20  22
ATOM     21  N   UNL     1      27.400 -23.193 -16.354  0.00  0.00    -0.242 NA
ATOM     22  C   UNL     1      29.576 -23.087 -14.602  0.00  0.00    +0.000 C 
ATOM     23  C   UNL     1      28.858 -21.933 -14.893  0.00  0.00    +0.018 C 
ATOM     24  C   UNL     1      29.207 -24.295 -15.185  0.00  0.00    +0.018 C 
ATOM     25  C   UNL     1      27.789 -22.038 -15.767  0.00  0.00    +0.099 C 
ATOM     26  C   UNL     1      28.122 -24.294 -16.046  0.00  0.00    +0.099 C 
ENDBRANCH  20  22
ENDBRANCH  18  20
ENDBRANCH   4  18
TORSDOF 4
ENDMDL
