MODEL 1
REMARK VINA RESULT:     -11.6      0.000      0.000
REMARK  Name = 56639723
REMARK  6 active torsions:
REMARK  status: ('A' for Active; 'I' for Inactive)
REMARK    1  A    between atoms: N_2  and  C_12
REMARK    2  A    between atoms: C_6  and  C_26
REMARK    3  A    between atoms: C_12  and  C_15
REMARK    4  A    between atoms: C_19  and  C_25
REMARK    5  A    between atoms: C_26  and  C_28
REMARK    6  A    between atoms: C_28  and  O_29
REMARK                            x       y       z     vdW  Elec       q    Type
REMARK                         _______ _______ _______ _____ _____    ______ ____
ROOT
ATOM      1  O   UNL     1      32.955 -23.633 -13.462  0.00  0.00    -0.264 OA
ATOM      2  N   UNL     1      34.488 -23.639 -15.220  0.00  0.00    -0.208 N 
ATOM      3  N   UNL     1      35.782 -23.518 -15.656  0.00  0.00    -0.169 NA
ATOM      4  N   UNL     1      37.497 -22.906 -12.531  0.00  0.00    -0.239 NA
ATOM      5  N   UNL     1      34.844 -23.153 -11.623  0.00  0.00    -0.236 NA
ATOM      6  C   UNL     1      36.720 -23.288 -14.793  0.00  0.00    +0.109 A 
ATOM      7  C   UNL     1      36.467 -23.148 -13.362  0.00  0.00    +0.119 A 
ATOM      8  C   UNL     1      34.103 -23.529 -13.884  0.00  0.00    +0.296 A 
ATOM      9  C   UNL     1      35.175 -23.268 -12.923  0.00  0.00    +0.157 A 
ATOM     10  C   UNL     1      37.172 -22.791 -11.227  0.00  0.00    +0.120 C 
ATOM     11  C   UNL     1      35.870 -22.912 -10.781  0.00  0.00    +0.120 C 
ENDROOT
BRANCH   2  12
ATOM     12  C   UNL     1      33.515 -23.895 -16.268  0.00  0.00    +0.196 C 
BRANCH  12  15
ATOM     13  S   UNL     1      32.042 -22.210 -17.903  0.00  0.00    -0.074 S 
ATOM     14  N   UNL     1      34.619 -22.311 -17.841  0.00  0.00    -0.401 NA
ATOM     15  C   UNL     1      33.529 -22.825 -17.321  0.00  0.00    +0.159 C 
ATOM     16  C   UNL     1      34.278 -21.349 -18.780  0.00  0.00    +0.123 C 
ATOM     17  C   UNL     1      32.905 -21.151 -18.955  0.00  0.00    +0.128 C 
ATOM     18  C   UNL     1      35.177 -20.580 -19.549  0.00  0.00    +0.033 C 
ATOM     19  C   UNL     1      34.684 -19.642 -20.461  0.00  0.00    +0.073 C 
ATOM     20  C   UNL     1      32.403 -20.210 -19.870  0.00  0.00    -0.008 C 
ATOM     21  C   UNL     1      33.314 -19.462 -20.618  0.00  0.00    +0.001 C 
BRANCH  19  25
ATOM     22  F   UNL     1      35.494 -19.038 -22.613  0.00  0.00    -0.166 F 
ATOM     23  F   UNL     1      35.499 -17.483 -21.092  0.00  0.00    -0.166 F 
ATOM     24  F   UNL     1      36.949 -19.092 -20.998  0.00  0.00    -0.166 F 
ATOM     25  C   UNL     1      35.637 -18.830 -21.272  0.00  0.00    +0.419 C 
ENDBRANCH  19  25
ENDBRANCH  12  15
ENDBRANCH   2  12
BRANCH   6  26
ATOM     26  C   UNL     1      38.140 -23.158 -15.280  0.00  0.00    +0.158 C 
BRANCH  26  28
ATOM     27  O   UNL     1      40.107 -24.262 -14.380  0.00  0.00    -0.250 OA
ATOM     28  C   UNL     1      38.999 -24.318 -14.890  0.00  0.00    +0.320 C 
BRANCH  28  29
ATOM     29  O   UNL     1      38.361 -25.479 -15.187  0.00  0.00    -0.480 OA
ATOM     30  H   UNL     1      37.751 -25.847 -14.579  0.00  0.00    +0.295 HD
ENDBRANCH  28  29
ENDBRANCH  26  28
ENDBRANCH   6  26
TORSDOF 6
ENDMDL
MODEL 2
REMARK VINA RESULT:     -11.4      1.897      3.155
REMARK  Name = 56639723
REMARK  6 active torsions:
REMARK  status: ('A' for Active; 'I' for Inactive)
REMARK    1  A    between atoms: N_2  and  C_12
REMARK    2  A    between atoms: C_6  and  C_26
REMARK    3  A    between atoms: C_12  and  C_15
REMARK    4  A    between atoms: C_19  and  C_25
REMARK    5  A    between atoms: C_26  and  C_28
REMARK    6  A    between atoms: C_28  and  O_29
REMARK                            x       y       z     vdW  Elec       q    Type
REMARK                         _______ _______ _______ _____ _____    ______ ____
ROOT
ATOM      1  O   UNL     1      35.320 -25.890 -16.081  0.00  0.00    -0.264 OA
ATOM      2  N   UNL     1      34.503 -24.386 -14.498  0.00  0.00    -0.208 N 
ATOM      3  N   UNL     1      34.711 -23.628 -13.374  0.00  0.00    -0.169 NA
ATOM      4  N   UNL     1      38.156 -24.443 -12.634  0.00  0.00    -0.239 NA
ATOM      5  N   UNL     1      37.742 -26.002 -14.941  0.00  0.00    -0.236 NA
ATOM      6  C   UNL     1      35.871 -23.657 -12.799  0.00  0.00    +0.109 A 
ATOM      7  C   UNL     1      36.982 -24.466 -13.291  0.00  0.00    +0.119 A 
ATOM      8  C   UNL     1      35.474 -25.202 -15.076  0.00  0.00    +0.296 A 
ATOM      9  C   UNL     1      36.778 -25.224 -14.413  0.00  0.00    +0.157 A 
ATOM     10  C   UNL     1      39.126 -25.220 -13.157  0.00  0.00    +0.120 C 
ATOM     11  C   UNL     1      38.924 -25.985 -14.289  0.00  0.00    +0.120 C 
ENDROOT
BRANCH   2  12
ATOM     12  C   UNL     1      33.169 -24.281 -15.063  0.00  0.00    +0.196 C 
BRANCH  12  15
ATOM     13  S   UNL     1      31.602 -22.770 -16.779  0.00  0.00    -0.074 S 
ATOM     14  N   UNL     1      34.179 -22.854 -16.837  0.00  0.00    -0.401 NA
ATOM     15  C   UNL     1      33.121 -23.319 -16.215  0.00  0.00    +0.159 C 
ATOM     16  C   UNL     1      33.784 -21.991 -17.848  0.00  0.00    +0.123 C 
ATOM     17  C   UNL     1      32.402 -21.816 -17.972  0.00  0.00    +0.128 C 
ATOM     18  C   UNL     1      34.636 -21.297 -18.732  0.00  0.00    +0.033 C 
ATOM     19  C   UNL     1      34.091 -20.456 -19.706  0.00  0.00    +0.073 C 
ATOM     20  C   UNL     1      31.846 -20.973 -18.948  0.00  0.00    -0.008 C 
ATOM     21  C   UNL     1      32.713 -20.297 -19.811  0.00  0.00    +0.001 C 
BRANCH  19  25
ATOM     22  F   UNL     1      36.314 -19.963 -20.388  0.00  0.00    -0.166 F 
ATOM     23  F   UNL     1      34.805 -20.049 -21.952  0.00  0.00    -0.166 F 
ATOM     24  F   UNL     1      34.852 -18.365 -20.585  0.00  0.00    -0.166 F 
ATOM     25  C   UNL     1      34.995 -19.723 -20.639  0.00  0.00    +0.419 C 
ENDBRANCH  19  25
ENDBRANCH  12  15
ENDBRANCH   2  12
BRANCH   6  26
ATOM     26  C   UNL     1      36.092 -22.820 -11.565  0.00  0.00    +0.158 C 
BRANCH  26  28
ATOM     27  O   UNL     1      36.140 -23.327  -9.190  0.00  0.00    -0.250 OA
ATOM     28  C   UNL     1      35.685 -23.519 -10.307  0.00  0.00    +0.320 C 
BRANCH  28  29
ATOM     29  O   UNL     1      34.711 -24.424 -10.582  0.00  0.00    -0.480 OA
ATOM     30  H   UNL     1      34.020 -24.570  -9.967  0.00  0.00    +0.295 HD
ENDBRANCH  28  29
ENDBRANCH  26  28
ENDBRANCH   6  26
TORSDOF 6
ENDMDL
MODEL 3
REMARK VINA RESULT:     -11.0      1.640      2.113
REMARK  Name = 56639723
REMARK  6 active torsions:
REMARK  status: ('A' for Active; 'I' for Inactive)
REMARK    1  A    between atoms: N_2  and  C_12
REMARK    2  A    between atoms: C_6  and  C_26
REMARK    3  A    between atoms: C_12  and  C_15
REMARK    4  A    between atoms: C_19  and  C_25
REMARK    5  A    between atoms: C_26  and  C_28
REMARK    6  A    between atoms: C_28  and  O_29
REMARK                            x       y       z     vdW  Elec       q    Type
REMARK                         _______ _______ _______ _____ _____    ______ ____
ROOT
ATOM      1  O   UNL     1      32.379 -22.792 -13.537  0.00  0.00    -0.264 OA
ATOM      2  N   UNL     1      33.810 -23.613 -15.185  0.00  0.00    -0.208 N 
ATOM      3  N   UNL     1      35.011 -24.179 -15.528  0.00  0.00    -0.169 NA
ATOM      4  N   UNL     1      36.577 -24.470 -12.281  0.00  0.00    -0.239 NA
ATOM      5  N   UNL     1      34.115 -23.310 -11.564  0.00  0.00    -0.236 NA
ATOM      6  C   UNL     1      35.873 -24.445 -14.598  0.00  0.00    +0.109 A 
ATOM      7  C   UNL     1      35.629 -24.167 -13.186  0.00  0.00    +0.119 A 
ATOM      8  C   UNL     1      33.445 -23.297 -13.877  0.00  0.00    +0.296 A 
ATOM      9  C   UNL     1      34.431 -23.602 -12.840  0.00  0.00    +0.157 A 
ATOM     10  C   UNL     1      36.268 -24.180 -11.001  0.00  0.00    +0.120 C 
ATOM     11  C   UNL     1      35.060 -23.611 -10.648  0.00  0.00    +0.120 C 
ENDROOT
BRANCH   2  12
ATOM     12  C   UNL     1      32.918 -23.357 -16.303  0.00  0.00    +0.196 C 
BRANCH  12  15
ATOM     13  S   UNL     1      35.197 -22.037 -17.166  0.00  0.00    -0.074 S 
ATOM     14  N   UNL     1      32.916 -21.965 -18.367  0.00  0.00    -0.401 NA
ATOM     15  C   UNL     1      33.548 -22.460 -17.329  0.00  0.00    +0.159 C 
ATOM     16  C   UNL     1      33.786 -21.182 -19.112  0.00  0.00    +0.123 C 
ATOM     17  C   UNL     1      35.088 -21.100 -18.609  0.00  0.00    +0.128 C 
ATOM     18  C   UNL     1      33.473 -20.484 -20.297  0.00  0.00    +0.033 C 
ATOM     19  C   UNL     1      34.459 -19.732 -20.942  0.00  0.00    +0.073 C 
ATOM     20  C   UNL     1      36.085 -20.346 -19.251  0.00  0.00    -0.008 C 
ATOM     21  C   UNL     1      35.748 -19.665 -20.423  0.00  0.00    +0.001 C 
BRANCH  19  25
ATOM     22  F   UNL     1      34.395 -17.661 -22.107  0.00  0.00    -0.166 F 
ATOM     23  F   UNL     1      34.811 -19.438 -23.290  0.00  0.00    -0.166 F 
ATOM     24  F   UNL     1      32.806 -19.080 -22.544  0.00  0.00    -0.166 F 
ATOM     25  C   UNL     1      34.125 -18.995 -22.195  0.00  0.00    +0.419 C 
ENDBRANCH  19  25
ENDBRANCH  12  15
ENDBRANCH   2  12
BRANCH   6  26
ATOM     26  C   UNL     1      37.190 -25.067 -14.984  0.00  0.00    +0.158 C 
BRANCH  26  28
ATOM     27  O   UNL     1      37.705 -27.325 -14.251  0.00  0.00    -0.250 OA
ATOM     28  C   UNL     1      37.140 -26.561 -15.019  0.00  0.00    +0.320 C 
BRANCH  28  29
ATOM     29  O   UNL     1      36.358 -26.967 -16.051  0.00  0.00    -0.480 OA
ATOM     30  H   UNL     1      35.573 -26.499 -16.257  0.00  0.00    +0.295 HD
ENDBRANCH  28  29
ENDBRANCH  26  28
ENDBRANCH   6  26
TORSDOF 6
ENDMDL
MODEL 4
REMARK VINA RESULT:     -11.0      4.392      6.507
REMARK  Name = 56639723
REMARK  6 active torsions:
REMARK  status: ('A' for Active; 'I' for Inactive)
REMARK    1  A    between atoms: N_2  and  C_12
REMARK    2  A    between atoms: C_6  and  C_26
REMARK    3  A    between atoms: C_12  and  C_15
REMARK    4  A    between atoms: C_19  and  C_25
REMARK    5  A    between atoms: C_26  and  C_28
REMARK    6  A    between atoms: C_28  and  O_29
REMARK                            x       y       z     vdW  Elec       q    Type
REMARK                         _______ _______ _______ _____ _____    ______ ____
ROOT
ATOM      1  O   UNL     1      33.408 -19.586 -21.072  0.00  0.00    -0.264 OA
ATOM      2  N   UNL     1      35.517 -19.965 -20.152  0.00  0.00    -0.208 N 
ATOM      3  N   UNL     1      36.295 -20.557 -19.191  0.00  0.00    -0.169 NA
ATOM      4  N   UNL     1      33.781 -22.299 -17.261  0.00  0.00    -0.239 NA
ATOM      5  N   UNL     1      32.173 -21.089 -19.230  0.00  0.00    -0.236 NA
ATOM      6  C   UNL     1      35.731 -21.292 -18.286  0.00  0.00    +0.109 A 
ATOM      7  C   UNL     1      34.290 -21.524 -18.236  0.00  0.00    +0.119 A 
ATOM      8  C   UNL     1      34.132 -20.101 -20.225  0.00  0.00    +0.296 A 
ATOM      9  C   UNL     1      33.510 -20.934 -19.194  0.00  0.00    +0.157 A 
ATOM     10  C   UNL     1      32.442 -22.458 -17.291  0.00  0.00    +0.120 C 
ATOM     11  C   UNL     1      31.653 -21.865 -18.257  0.00  0.00    +0.120 C 
ENDROOT
BRANCH   2  12
ATOM     12  C   UNL     1      36.250 -19.162 -21.117  0.00  0.00    +0.196 C 
BRANCH  12  15
ATOM     13  S   UNL     1      35.111 -17.687 -23.168  0.00  0.00    -0.074 S 
ATOM     14  N   UNL     1      35.078 -17.009 -20.680  0.00  0.00    -0.401 NA
ATOM     15  C   UNL     1      35.488 -17.932 -21.518  0.00  0.00    +0.159 C 
ATOM     16  C   UNL     1      34.407 -16.014 -21.376  0.00  0.00    +0.123 C 
ATOM     17  C   UNL     1      34.323 -16.210 -22.758  0.00  0.00    +0.128 C 
ATOM     18  C   UNL     1      33.823 -14.856 -20.819  0.00  0.00    +0.033 C 
ATOM     19  C   UNL     1      33.176 -13.937 -21.650  0.00  0.00    +0.073 C 
ATOM     20  C   UNL     1      33.674 -15.291 -23.599  0.00  0.00    -0.008 C 
ATOM     21  C   UNL     1      33.104 -14.153 -23.022  0.00  0.00    +0.001 C 
BRANCH  19  25
ATOM     22  F   UNL     1      32.544 -11.662 -21.927  0.00  0.00    -0.166 F 
ATOM     23  F   UNL     1      31.261 -12.890 -20.671  0.00  0.00    -0.166 F 
ATOM     24  F   UNL     1      33.205 -12.261 -19.943  0.00  0.00    -0.166 F 
ATOM     25  C   UNL     1      32.559 -12.714 -21.058  0.00  0.00    +0.419 C 
ENDBRANCH  19  25
ENDBRANCH  12  15
ENDBRANCH   2  12
BRANCH   6  26
ATOM     26  C   UNL     1      36.593 -21.941 -17.234  0.00  0.00    +0.158 C 
BRANCH  26  28
ATOM     27  O   UNL     1      37.084 -21.275 -14.951  0.00  0.00    -0.250 OA
ATOM     28  C   UNL     1      36.978 -21.002 -16.136  0.00  0.00    +0.320 C 
BRANCH  28  29
ATOM     29  O   UNL     1      37.200 -19.765 -16.651  0.00  0.00    -0.480 OA
ATOM     30  H   UNL     1      38.043 -19.546 -16.997  0.00  0.00    +0.295 HD
ENDBRANCH  28  29
ENDBRANCH  26  28
ENDBRANCH   6  26
TORSDOF 6
ENDMDL
MODEL 5
REMARK VINA RESULT:     -10.7      3.627      5.560
REMARK  Name = 56639723
REMARK  6 active torsions:
REMARK  status: ('A' for Active; 'I' for Inactive)
REMARK    1  A    between atoms: N_2  and  C_12
REMARK    2  A    between atoms: C_6  and  C_26
REMARK    3  A    between atoms: C_12  and  C_15
REMARK    4  A    between atoms: C_19  and  C_25
REMARK    5  A    between atoms: C_26  and  C_28
REMARK    6  A    between atoms: C_28  and  O_29
REMARK                            x       y       z     vdW  Elec       q    Type
REMARK                         _______ _______ _______ _____ _____    ______ ____
ROOT
ATOM      1  O   UNL     1      33.019 -20.702 -20.452  0.00  0.00    -0.264 OA
ATOM      2  N   UNL     1      35.070 -21.097 -19.414  0.00  0.00    -0.208 N 
ATOM      3  N   UNL     1      35.773 -21.533 -18.321  0.00  0.00    -0.169 NA
ATOM      4  N   UNL     1      33.072 -22.469 -16.105  0.00  0.00    -0.239 NA
ATOM      5  N   UNL     1      31.617 -21.577 -18.343  0.00  0.00    -0.236 NA
ATOM      6  C   UNL     1      35.127 -21.965 -17.285  0.00  0.00    +0.109 A 
ATOM      7  C   UNL     1      33.669 -22.009 -17.220  0.00  0.00    +0.119 A 
ATOM      8  C   UNL     1      33.678 -21.085 -19.489  0.00  0.00    +0.296 A 
ATOM      9  C   UNL     1      32.963 -21.574 -18.309  0.00  0.00    +0.157 A 
ATOM     10  C   UNL     1      31.725 -22.474 -16.131  0.00  0.00    +0.120 C 
ATOM     11  C   UNL     1      31.010 -22.037 -17.229  0.00  0.00    +0.120 C 
ENDROOT
BRANCH   2  12
ATOM     12  C   UNL     1      35.891 -20.634 -20.519  0.00  0.00    +0.196 C 
BRANCH  12  15
ATOM     13  S   UNL     1      34.967 -19.269 -22.748  0.00  0.00    -0.074 S 
ATOM     14  N   UNL     1      35.237 -18.234 -20.401  0.00  0.00    -0.401 NA
ATOM     15  C   UNL     1      35.386 -19.340 -21.091  0.00  0.00    +0.159 C 
ATOM     16  C   UNL     1      34.752 -17.231 -21.228  0.00  0.00    +0.123 C 
ATOM     17  C   UNL     1      34.540 -17.609 -22.557  0.00  0.00    +0.128 C 
ATOM     18  C   UNL     1      34.465 -15.903 -20.848  0.00  0.00    +0.033 C 
ATOM     19  C   UNL     1      33.978 -15.000 -21.796  0.00  0.00    +0.073 C 
ATOM     20  C   UNL     1      34.052 -16.707 -23.516  0.00  0.00    -0.008 C 
ATOM     21  C   UNL     1      33.775 -15.398 -23.113  0.00  0.00    +0.001 C 
BRANCH  19  25
ATOM     22  F   UNL     1      34.274 -13.249 -20.214  0.00  0.00    -0.166 F 
ATOM     23  F   UNL     1      34.085 -12.664 -22.301  0.00  0.00    -0.166 F 
ATOM     24  F   UNL     1      32.343 -13.355 -21.210  0.00  0.00    -0.166 F 
ATOM     25  C   UNL     1      33.675 -13.596 -21.391  0.00  0.00    +0.419 C 
ENDBRANCH  19  25
ENDBRANCH  12  15
ENDBRANCH   2  12
BRANCH   6  26
ATOM     26  C   UNL     1      35.908 -22.444 -16.088  0.00  0.00    +0.158 C 
BRANCH  26  28
ATOM     27  O   UNL     1      38.317 -22.405 -15.789  0.00  0.00    -0.250 OA
ATOM     28  C   UNL     1      37.263 -21.821 -15.990  0.00  0.00    +0.320 C 
BRANCH  28  29
ATOM     29  O   UNL     1      37.162 -20.479 -16.159  0.00  0.00    -0.480 OA
ATOM     30  H   UNL     1      36.738 -20.132 -16.919  0.00  0.00    +0.295 HD
ENDBRANCH  28  29
ENDBRANCH  26  28
ENDBRANCH   6  26
TORSDOF 6
ENDMDL
MODEL 6
REMARK VINA RESULT:     -10.7      4.163      7.491
REMARK  Name = 56639723
REMARK  6 active torsions:
REMARK  status: ('A' for Active; 'I' for Inactive)
REMARK    1  A    between atoms: N_2  and  C_12
REMARK    2  A    between atoms: C_6  and  C_26
REMARK    3  A    between atoms: C_12  and  C_15
REMARK    4  A    between atoms: C_19  and  C_25
REMARK    5  A    between atoms: C_26  and  C_28
REMARK    6  A    between atoms: C_28  and  O_29
REMARK                            x       y       z     vdW  Elec       q    Type
REMARK                         _______ _______ _______ _____ _____    ______ ____
ROOT
ATOM      1  O   UNL     1      31.096 -22.323 -17.493  0.00  0.00    -0.264 OA
ATOM      2  N   UNL     1      33.294 -22.568 -16.753  0.00  0.00    -0.208 N 
ATOM      3  N   UNL     1      34.628 -22.296 -16.910  0.00  0.00    -0.169 NA
ATOM      4  N   UNL     1      34.555 -20.244 -19.887  0.00  0.00    -0.239 NA
ATOM      5  N   UNL     1      31.812 -20.796 -19.575  0.00  0.00    -0.236 NA
ATOM      6  C   UNL     1      35.009 -21.558 -17.904  0.00  0.00    +0.109 A 
ATOM      7  C   UNL     1      34.079 -20.997 -18.880  0.00  0.00    +0.119 A 
ATOM      8  C   UNL     1      32.298 -22.098 -17.607  0.00  0.00    +0.296 A 
ATOM      9  C   UNL     1      32.745 -21.269 -18.726  0.00  0.00    +0.157 A 
ATOM     10  C   UNL     1      33.626 -19.768 -20.741  0.00  0.00    +0.120 C 
ATOM     11  C   UNL     1      32.280 -20.038 -20.588  0.00  0.00    +0.120 C 
ENDROOT
BRANCH   2  12
ATOM     12  C   UNL     1      32.976 -23.403 -15.607  0.00  0.00    +0.196 C 
BRANCH  12  15
ATOM     13  S   UNL     1      34.123 -24.098 -13.182  0.00  0.00    -0.074 S 
ATOM     14  N   UNL     1      35.375 -24.045 -15.436  0.00  0.00    -0.401 NA
ATOM     15  C   UNL     1      34.209 -23.840 -14.870  0.00  0.00    +0.159 C 
ATOM     16  C   UNL     1      36.295 -24.440 -14.475  0.00  0.00    +0.123 C 
ATOM     17  C   UNL     1      35.793 -24.527 -13.173  0.00  0.00    +0.128 C 
ATOM     18  C   UNL     1      37.653 -24.751 -14.700  0.00  0.00    +0.033 C 
ATOM     19  C   UNL     1      38.463 -25.137 -13.628  0.00  0.00    +0.073 C 
ATOM     20  C   UNL     1      36.601 -24.914 -12.091  0.00  0.00    -0.008 C 
ATOM     21  C   UNL     1      37.942 -25.217 -12.341  0.00  0.00    +0.001 C 
BRANCH  19  25
ATOM     22  F   UNL     1      40.422 -26.272 -12.899  0.00  0.00    -0.166 F 
ATOM     23  F   UNL     1      40.121 -26.116 -15.048  0.00  0.00    -0.166 F 
ATOM     24  F   UNL     1      40.710 -24.367 -13.909  0.00  0.00    -0.166 F 
ATOM     25  C   UNL     1      39.899 -25.465 -13.868  0.00  0.00    +0.419 C 
ENDBRANCH  19  25
ENDBRANCH  12  15
ENDBRANCH   2  12
BRANCH   6  26
ATOM     26  C   UNL     1      36.477 -21.261 -18.069  0.00  0.00    +0.158 C 
BRANCH  26  28
ATOM     27  O   UNL     1      37.459 -21.409 -15.853  0.00  0.00    -0.250 OA
ATOM     28  C   UNL     1      37.112 -20.745 -16.817  0.00  0.00    +0.320 C 
BRANCH  28  29
ATOM     29  O   UNL     1      37.254 -19.398 -16.900  0.00  0.00    -0.480 OA
ATOM     30  H   UNL     1      37.230 -18.876 -16.122  0.00  0.00    +0.295 HD
ENDBRANCH  28  29
ENDBRANCH  26  28
ENDBRANCH   6  26
TORSDOF 6
ENDMDL
MODEL 7
REMARK VINA RESULT:     -10.5      2.067      2.961
REMARK  Name = 56639723
REMARK  6 active torsions:
REMARK  status: ('A' for Active; 'I' for Inactive)
REMARK    1  A    between atoms: N_2  and  C_12
REMARK    2  A    between atoms: C_6  and  C_26
REMARK    3  A    between atoms: C_12  and  C_15
REMARK    4  A    between atoms: C_19  and  C_25
REMARK    5  A    between atoms: C_26  and  C_28
REMARK    6  A    between atoms: C_28  and  O_29
REMARK                            x       y       z     vdW  Elec       q    Type
REMARK                         _______ _______ _______ _____ _____    ______ ____
ROOT
ATOM      1  O   UNL     1      31.513 -23.198 -16.347  0.00  0.00    -0.264 OA
ATOM      2  N   UNL     1      33.578 -22.584 -17.239  0.00  0.00    -0.208 N 
ATOM      3  N   UNL     1      34.910 -22.316 -17.053  0.00  0.00    -0.169 NA
ATOM      4  N   UNL     1      35.215 -22.835 -13.486  0.00  0.00    -0.239 NA
ATOM      5  N   UNL     1      32.480 -23.390 -13.856  0.00  0.00    -0.236 NA
ATOM      6  C   UNL     1      35.411 -22.402 -15.861  0.00  0.00    +0.109 A 
ATOM      7  C   UNL     1      34.620 -22.772 -14.691  0.00  0.00    +0.119 A 
ATOM      8  C   UNL     1      32.708 -22.950 -16.213  0.00  0.00    +0.296 A 
ATOM      9  C   UNL     1      33.290 -23.041 -14.874  0.00  0.00    +0.157 A 
ATOM     10  C   UNL     1      34.410 -23.185 -12.463  0.00  0.00    +0.120 C 
ATOM     11  C   UNL     1      33.068 -23.457 -12.643  0.00  0.00    +0.120 C 
ENDROOT
BRANCH   2  12
ATOM     12  C   UNL     1      33.120 -22.459 -18.612  0.00  0.00    +0.196 C 
BRANCH  12  15
ATOM     13  S   UNL     1      35.499 -21.240 -19.343  0.00  0.00    -0.074 S 
ATOM     14  N   UNL     1      33.153 -20.362 -19.955  0.00  0.00    -0.401 NA
ATOM     15  C   UNL     1      33.791 -21.321 -19.326  0.00  0.00    +0.159 C 
ATOM     16  C   UNL     1      34.068 -19.476 -20.504  0.00  0.00    +0.123 C 
ATOM     17  C   UNL     1      35.411 -19.792 -20.274  0.00  0.00    +0.128 C 
ATOM     18  C   UNL     1      33.763 -18.319 -21.252  0.00  0.00    +0.033 C 
ATOM     19  C   UNL     1      34.797 -17.519 -21.745  0.00  0.00    +0.073 C 
ATOM     20  C   UNL     1      36.455 -18.992 -20.766  0.00  0.00    -0.008 C 
ATOM     21  C   UNL     1      36.125 -17.852 -21.504  0.00  0.00    +0.001 C 
BRANCH  19  25
ATOM     22  F   UNL     1      33.854 -15.336 -21.788  0.00  0.00    -0.166 F 
ATOM     23  F   UNL     1      35.566 -15.690 -23.082  0.00  0.00    -0.166 F 
ATOM     24  F   UNL     1      33.634 -16.535 -23.590  0.00  0.00    -0.166 F 
ATOM     25  C   UNL     1      34.471 -16.296 -22.537  0.00  0.00    +0.419 C 
ENDBRANCH  19  25
ENDBRANCH  12  15
ENDBRANCH   2  12
BRANCH   6  26
ATOM     26  C   UNL     1      36.876 -22.107 -15.665  0.00  0.00    +0.158 C 
BRANCH  26  28
ATOM     27  O   UNL     1      38.855 -23.354 -15.012  0.00  0.00    -0.250 OA
ATOM     28  C   UNL     1      37.676 -23.325 -15.331  0.00  0.00    +0.320 C 
BRANCH  28  29
ATOM     29  O   UNL     1      36.892 -24.428 -15.433  0.00  0.00    -0.480 OA
ATOM     30  H   UNL     1      36.057 -24.372 -15.854  0.00  0.00    +0.295 HD
ENDBRANCH  28  29
ENDBRANCH  26  28
ENDBRANCH   6  26
TORSDOF 6
ENDMDL
MODEL 8
REMARK VINA RESULT:     -10.5      4.323      7.606
REMARK  Name = 56639723
REMARK  6 active torsions:
REMARK  status: ('A' for Active; 'I' for Inactive)
REMARK    1  A    between atoms: N_2  and  C_12
REMARK    2  A    between atoms: C_6  and  C_26
REMARK    3  A    between atoms: C_12  and  C_15
REMARK    4  A    between atoms: C_19  and  C_25
REMARK    5  A    between atoms: C_26  and  C_28
REMARK    6  A    between atoms: C_28  and  O_29
REMARK                            x       y       z     vdW  Elec       q    Type
REMARK                         _______ _______ _______ _____ _____    ______ ____
ROOT
ATOM      1  O   UNL     1      31.985 -21.477 -19.834  0.00  0.00    -0.264 OA
ATOM      2  N   UNL     1      33.555 -21.980 -18.184  0.00  0.00    -0.208 N 
ATOM      3  N   UNL     1      34.806 -21.799 -17.653  0.00  0.00    -0.169 NA
ATOM      4  N   UNL     1      36.203 -19.427 -19.999  0.00  0.00    -0.239 NA
ATOM      5  N   UNL     1      33.637 -19.789 -21.099  0.00  0.00    -0.236 NA
ATOM      6  C   UNL     1      35.629 -20.987 -18.238  0.00  0.00    +0.109 A 
ATOM      7  C   UNL     1      35.289 -20.248 -19.450  0.00  0.00    +0.119 A 
ATOM      8  C   UNL     1      33.098 -21.338 -19.334  0.00  0.00    +0.296 A 
ATOM      9  C   UNL     1      34.041 -20.427 -19.983  0.00  0.00    +0.157 A 
ATOM     10  C   UNL     1      35.805 -18.785 -21.116  0.00  0.00    +0.120 C 
ATOM     11  C   UNL     1      34.546 -18.962 -21.656  0.00  0.00    +0.120 C 
ENDROOT
BRANCH   2  12
ATOM     12  C   UNL     1      32.712 -22.909 -17.451  0.00  0.00    +0.196 C 
BRANCH  12  15
ATOM     13  S   UNL     1      32.363 -23.022 -14.704  0.00  0.00    -0.074 S 
ATOM     14  N   UNL     1      34.501 -23.761 -15.942  0.00  0.00    -0.401 NA
ATOM     15  C   UNL     1      33.298 -23.265 -16.115  0.00  0.00    +0.159 C 
ATOM     16  C   UNL     1      34.726 -23.975 -14.590  0.00  0.00    +0.123 C 
ATOM     17  C   UNL     1      33.664 -23.629 -13.750  0.00  0.00    +0.128 C 
ATOM     18  C   UNL     1      35.903 -24.498 -14.014  0.00  0.00    +0.033 C 
ATOM     19  C   UNL     1      35.985 -24.659 -12.629  0.00  0.00    +0.073 C 
ATOM     20  C   UNL     1      33.739 -23.788 -12.356  0.00  0.00    -0.008 C 
ATOM     21  C   UNL     1      34.916 -24.308 -11.812  0.00  0.00    +0.001 C 
BRANCH  19  25
ATOM     22  F   UNL     1      37.005 -26.351 -11.305  0.00  0.00    -0.166 F 
ATOM     23  F   UNL     1      38.188 -25.540 -12.940  0.00  0.00    -0.166 F 
ATOM     24  F   UNL     1      37.847 -24.351 -11.159  0.00  0.00    -0.166 F 
ATOM     25  C   UNL     1      37.232 -25.212 -12.022  0.00  0.00    +0.419 C 
ENDBRANCH  19  25
ENDBRANCH  12  15
ENDBRANCH   2  12
BRANCH   6  26
ATOM     26  C   UNL     1      37.002 -20.793 -17.647  0.00  0.00    +0.158 C 
BRANCH  26  28
ATOM     27  O   UNL     1      37.968 -22.320 -16.024  0.00  0.00    -0.250 OA
ATOM     28  C   UNL     1      37.160 -21.451 -16.313  0.00  0.00    +0.320 C 
BRANCH  28  29
ATOM     29  O   UNL     1      36.257 -20.937 -15.441  0.00  0.00    -0.480 OA
ATOM     30  H   UNL     1      35.430 -21.360 -15.319  0.00  0.00    +0.295 HD
ENDBRANCH  28  29
ENDBRANCH  26  28
ENDBRANCH   6  26
TORSDOF 6
ENDMDL
MODEL 9
REMARK VINA RESULT:     -10.1      4.628      6.159
REMARK  Name = 56639723
REMARK  6 active torsions:
REMARK  status: ('A' for Active; 'I' for Inactive)
REMARK    1  A    between atoms: N_2  and  C_12
REMARK    2  A    between atoms: C_6  and  C_26
REMARK    3  A    between atoms: C_12  and  C_15
REMARK    4  A    between atoms: C_19  and  C_25
REMARK    5  A    between atoms: C_26  and  C_28
REMARK    6  A    between atoms: C_28  and  O_29
REMARK                            x       y       z     vdW  Elec       q    Type
REMARK                         _______ _______ _______ _____ _____    ______ ____
ROOT
ATOM      1  O   UNL     1      36.201 -25.387 -11.532  0.00  0.00    -0.264 OA
ATOM      2  N   UNL     1      35.468 -23.496 -12.683  0.00  0.00    -0.208 N 
ATOM      3  N   UNL     1      35.662 -22.572 -13.676  0.00  0.00    -0.169 NA
ATOM      4  N   UNL     1      38.799 -23.718 -15.066  0.00  0.00    -0.239 NA
ATOM      5  N   UNL     1      38.410 -25.623 -13.030  0.00  0.00    -0.236 NA
ATOM      6  C   UNL     1      36.719 -22.658 -14.421  0.00  0.00    +0.109 A 
ATOM      7  C   UNL     1      37.727 -23.701 -14.253  0.00  0.00    +0.119 A 
ATOM      8  C   UNL     1      36.347 -24.544 -12.412  0.00  0.00    +0.296 A 
ATOM      9  C   UNL     1      37.536 -24.625 -13.261  0.00  0.00    +0.157 A 
ATOM     10  C   UNL     1      39.678 -24.715 -14.839  0.00  0.00    +0.120 C 
ATOM     11  C   UNL     1      39.488 -25.650 -13.841  0.00  0.00    +0.120 C 
ENDROOT
BRANCH   2  12
ATOM     12  C   UNL     1      34.253 -23.309 -11.908  0.00  0.00    +0.196 C 
BRANCH  12  15
ATOM     13  S   UNL     1      32.727 -25.003 -13.484  0.00  0.00    -0.074 S 
ATOM     14  N   UNL     1      32.126 -22.551 -12.959  0.00  0.00    -0.401 NA
ATOM     15  C   UNL     1      33.020 -23.488 -12.745  0.00  0.00    +0.159 C 
ATOM     16  C   UNL     1      31.116 -23.046 -13.771  0.00  0.00    +0.123 C 
ATOM     17  C   UNL     1      31.271 -24.379 -14.164  0.00  0.00    +0.128 C 
ATOM     18  C   UNL     1      29.983 -22.335 -14.218  0.00  0.00    +0.033 C 
ATOM     19  C   UNL     1      29.044 -22.970 -15.036  0.00  0.00    +0.073 C 
ATOM     20  C   UNL     1      30.332 -25.023 -14.985  0.00  0.00    -0.008 C 
ATOM     21  C   UNL     1      29.218 -24.297 -15.414  0.00  0.00    +0.001 C 
BRANCH  19  25
ATOM     22  F   UNL     1      26.777 -23.029 -15.752  0.00  0.00    -0.166 F 
ATOM     23  F   UNL     1      27.400 -21.283 -14.614  0.00  0.00    -0.166 F 
ATOM     24  F   UNL     1      28.056 -21.526 -16.667  0.00  0.00    -0.166 F 
ATOM     25  C   UNL     1      27.845 -22.216 -15.507  0.00  0.00    +0.419 C 
ENDBRANCH  19  25
ENDBRANCH  12  15
ENDBRANCH   2  12
BRANCH   6  26
ATOM     26  C   UNL     1      36.924 -21.638 -15.512  0.00  0.00    +0.158 C 
BRANCH  26  28
ATOM     27  O   UNL     1      36.247 -21.430 -17.835  0.00  0.00    -0.250 OA
ATOM     28  C   UNL     1      36.083 -21.900 -16.720  0.00  0.00    +0.320 C 
BRANCH  28  29
ATOM     29  O   UNL     1      35.080 -22.757 -16.400  0.00  0.00    -0.480 OA
ATOM     30  H   UNL     1      34.623 -22.661 -15.588  0.00  0.00    +0.295 HD
ENDBRANCH  28  29
ENDBRANCH  26  28
ENDBRANCH   6  26
TORSDOF 6
ENDMDL
