MODEL 1
REMARK VINA RESULT:     -11.5      0.000      0.000
REMARK  Name = 54688400
REMARK  7 active torsions:
REMARK  status: ('A' for Active; 'I' for Inactive)
REMARK    1  A    between atoms: C_3  and  C_8
REMARK    2  A    between atoms: C_3  and  C_15
REMARK    3  A    between atoms: C_5  and  O_13
REMARK    4  A    between atoms: C_15  and  C_16
REMARK    5  A    between atoms: C_16  and  C_18
REMARK    6  A    between atoms: C_23  and  O_24
REMARK    7  A    between atoms: O_24  and  C_25
REMARK                            x       y       z     vdW  Elec       q    Type
REMARK                         _______ _______ _______ _____ _____    ______ ____
ROOT
ATOM      1  O   UNL     1      34.515 -23.023 -13.493  0.00  0.00    -0.452 OA
ATOM      2  O   UNL     1      36.297 -22.411 -12.235  0.00  0.00    -0.245 OA
ATOM      3  C   UNL     1      34.033 -23.583 -14.744  0.00  0.00    +0.144 C 
ATOM      4  C   UNL     1      34.649 -24.969 -14.969  0.00  0.00    +0.104 C 
ATOM      5  C   UNL     1      36.121 -24.929 -14.717  0.00  0.00    +0.121 C 
ATOM      6  C   UNL     1      35.828 -23.086 -13.145  0.00  0.00    +0.344 C 
ATOM      7  C   UNL     1      36.671 -24.035 -13.892  0.00  0.00    +0.114 C 
ENDROOT
BRANCH   3   8
ATOM      8  C   UNL     1      32.526 -23.703 -14.612  0.00  0.00    +0.037 C 
ATOM      9  C   UNL     1      32.093 -24.672 -13.516  0.00  0.00    +0.003 C 
ATOM     10  C   UNL     1      31.854 -22.403 -14.180  0.00  0.00    +0.003 C 
ATOM     11  C   UNL     1      30.481 -22.845 -13.686  0.00  0.00    +0.000 C 
ATOM     12  C   UNL     1      30.637 -24.301 -13.247  0.00  0.00    +0.000 C 
ENDBRANCH   3   8
BRANCH   5  13
ATOM     13  O   UNL     1      36.901 -25.854 -15.379  0.00  0.00    -0.509 OA
ATOM     14  H   UNL     1      36.594 -26.242 -16.174  0.00  0.00    +0.292 HD
ENDBRANCH   5  13
BRANCH   3  15
ATOM     15  C   UNL     1      34.360 -22.600 -15.878  0.00  0.00    +0.045 C 
BRANCH  15  16
ATOM     16  C   UNL     1      33.445 -22.826 -17.077  0.00  0.00    +0.030 C 
BRANCH  16  18
ATOM     17  F   UNL     1      32.070 -19.897 -20.730  0.00  0.00    -0.201 F 
ATOM     18  C   UNL     1      33.775 -21.881 -18.204  0.00  0.00    -0.020 C 
ATOM     19  C   UNL     1      32.751 -21.313 -18.962  0.00  0.00    +0.029 C 
ATOM     20  C   UNL     1      35.106 -21.575 -18.490  0.00  0.00    -0.001 C 
ATOM     21  C   UNL     1      33.058 -20.440 -20.005  0.00  0.00    +0.173 C 
ATOM     22  C   UNL     1      35.412 -20.701 -19.532  0.00  0.00    +0.039 C 
ATOM     23  C   UNL     1      34.388 -20.133 -20.290  0.00  0.00    +0.166 C 
BRANCH  23  24
ATOM     24  O   UNL     1      34.689 -19.280 -21.307  0.00  0.00    -0.477 OA
BRANCH  24  25
ATOM     25  C   UNL     1      35.483 -18.139 -20.985  0.00  0.00    +0.166 C 
ATOM     26  C   UNL     1      36.805 -18.221 -21.734  0.00  0.00    +0.047 C 
ATOM     27  C   UNL     1      34.711 -16.877 -21.335  0.00  0.00    +0.047 C 
ENDBRANCH  24  25
ENDBRANCH  23  24
ENDBRANCH  16  18
ENDBRANCH  15  16
ENDBRANCH   3  15
TORSDOF 7
ENDMDL
MODEL 2
REMARK VINA RESULT:     -11.2      0.908      1.312
REMARK  Name = 54688400
REMARK  7 active torsions:
REMARK  status: ('A' for Active; 'I' for Inactive)
REMARK    1  A    between atoms: C_3  and  C_8
REMARK    2  A    between atoms: C_3  and  C_15
REMARK    3  A    between atoms: C_5  and  O_13
REMARK    4  A    between atoms: C_15  and  C_16
REMARK    5  A    between atoms: C_16  and  C_18
REMARK    6  A    between atoms: C_23  and  O_24
REMARK    7  A    between atoms: O_24  and  C_25
REMARK                            x       y       z     vdW  Elec       q    Type
REMARK                         _______ _______ _______ _____ _____    ______ ____
ROOT
ATOM      1  O   UNL     1      34.434 -23.025 -13.513  0.00  0.00    -0.452 OA
ATOM      2  O   UNL     1      36.238 -22.428 -12.278  0.00  0.00    -0.245 OA
ATOM      3  C   UNL     1      33.932 -23.573 -14.760  0.00  0.00    +0.144 C 
ATOM      4  C   UNL     1      34.540 -24.959 -15.006  0.00  0.00    +0.104 C 
ATOM      5  C   UNL     1      36.016 -24.925 -14.777  0.00  0.00    +0.121 C 
ATOM      6  C   UNL     1      35.752 -23.094 -13.186  0.00  0.00    +0.344 C 
ATOM      7  C   UNL     1      36.582 -24.038 -13.953  0.00  0.00    +0.114 C 
ENDROOT
BRANCH   3   8
ATOM      8  C   UNL     1      32.426 -23.691 -14.606  0.00  0.00    +0.037 C 
ATOM      9  C   UNL     1      32.008 -24.652 -13.497  0.00  0.00    +0.003 C 
ATOM     10  C   UNL     1      31.762 -22.387 -14.173  0.00  0.00    +0.003 C 
ATOM     11  C   UNL     1      30.396 -22.824 -13.656  0.00  0.00    +0.000 C 
ATOM     12  C   UNL     1      30.557 -24.278 -13.209  0.00  0.00    +0.000 C 
ENDBRANCH   3   8
BRANCH   5  13
ATOM     13  O   UNL     1      36.783 -25.846 -15.459  0.00  0.00    -0.509 OA
ATOM     14  H   UNL     1      37.310 -26.459 -14.986  0.00  0.00    +0.292 HD
ENDBRANCH   5  13
BRANCH   3  15
ATOM     15  C   UNL     1      34.243 -22.582 -15.891  0.00  0.00    +0.045 C 
BRANCH  15  16
ATOM     16  C   UNL     1      33.316 -22.804 -17.082  0.00  0.00    +0.030 C 
BRANCH  16  18
ATOM     17  F   UNL     1      36.529 -20.466 -19.915  0.00  0.00    -0.201 F 
ATOM     18  C   UNL     1      33.633 -21.851 -18.207  0.00  0.00    -0.020 C 
ATOM     19  C   UNL     1      34.960 -21.593 -18.550  0.00  0.00    +0.029 C 
ATOM     20  C   UNL     1      32.598 -21.227 -18.904  0.00  0.00    -0.001 C 
ATOM     21  C   UNL     1      35.252 -20.711 -19.590  0.00  0.00    +0.173 C 
ATOM     22  C   UNL     1      32.890 -20.346 -19.944  0.00  0.00    +0.039 C 
ATOM     23  C   UNL     1      34.218 -20.088 -20.288  0.00  0.00    +0.166 C 
BRANCH  23  24
ATOM     24  O   UNL     1      34.501 -19.227 -21.303  0.00  0.00    -0.477 OA
BRANCH  24  25
ATOM     25  C   UNL     1      35.389 -18.148 -21.013  0.00  0.00    +0.166 C 
ATOM     26  C   UNL     1      36.557 -18.185 -21.986  0.00  0.00    +0.047 C 
ATOM     27  C   UNL     1      34.625 -16.835 -21.094  0.00  0.00    +0.047 C 
ENDBRANCH  24  25
ENDBRANCH  23  24
ENDBRANCH  16  18
ENDBRANCH  15  16
ENDBRANCH   3  15
TORSDOF 7
ENDMDL
MODEL 3
REMARK VINA RESULT:     -10.5      3.628      6.524
REMARK  Name = 54688400
REMARK  7 active torsions:
REMARK  status: ('A' for Active; 'I' for Inactive)
REMARK    1  A    between atoms: C_3  and  C_8
REMARK    2  A    between atoms: C_3  and  C_15
REMARK    3  A    between atoms: C_5  and  O_13
REMARK    4  A    between atoms: C_15  and  C_16
REMARK    5  A    between atoms: C_16  and  C_18
REMARK    6  A    between atoms: C_23  and  O_24
REMARK    7  A    between atoms: O_24  and  C_25
REMARK                            x       y       z     vdW  Elec       q    Type
REMARK                         _______ _______ _______ _____ _____    ______ ____
ROOT
ATOM      1  O   UNL     1      36.807 -24.567 -14.633  0.00  0.00    -0.452 OA
ATOM      2  O   UNL     1      37.980 -26.489 -14.377  0.00  0.00    -0.245 OA
ATOM      3  C   UNL     1      35.850 -23.632 -14.069  0.00  0.00    +0.144 C 
ATOM      4  C   UNL     1      36.348 -23.128 -12.709  0.00  0.00    +0.104 C 
ATOM      5  C   UNL     1      36.816 -24.275 -11.871  0.00  0.00    +0.121 C 
ATOM      6  C   UNL     1      37.376 -25.545 -13.879  0.00  0.00    +0.344 C 
ATOM      7  C   UNL     1      37.265 -25.408 -12.416  0.00  0.00    +0.114 C 
ENDROOT
BRANCH   3   8
ATOM      8  C   UNL     1      35.751 -22.472 -15.043  0.00  0.00    +0.037 C 
ATOM      9  C   UNL     1      37.073 -22.155 -15.738  0.00  0.00    +0.003 C 
ATOM     10  C   UNL     1      34.825 -22.754 -16.222  0.00  0.00    +0.003 C 
ATOM     11  C   UNL     1      35.214 -21.703 -17.255  0.00  0.00    +0.000 C 
ATOM     12  C   UNL     1      36.664 -21.326 -16.952  0.00  0.00    +0.000 C 
ENDBRANCH   3   8
BRANCH   5  13
ATOM     13  O   UNL     1      36.759 -24.122 -10.502  0.00  0.00    -0.509 OA
ATOM     14  H   UNL     1      36.098 -24.565 -10.009  0.00  0.00    +0.292 HD
ENDBRANCH   5  13
BRANCH   3  15
ATOM     15  C   UNL     1      34.483 -24.326 -13.977  0.00  0.00    +0.045 C 
BRANCH  15  16
ATOM     16  C   UNL     1      33.531 -23.540 -13.082  0.00  0.00    +0.030 C 
BRANCH  16  18
ATOM     17  F   UNL     1      29.296 -25.822 -13.904  0.00  0.00    -0.201 F 
ATOM     18  C   UNL     1      32.127 -23.555 -13.631  0.00  0.00    -0.020 C 
ATOM     19  C   UNL     1      31.343 -24.703 -13.512  0.00  0.00    +0.029 C 
ATOM     20  C   UNL     1      31.611 -22.422 -14.259  0.00  0.00    -0.001 C 
ATOM     21  C   UNL     1      30.044 -24.717 -14.021  0.00  0.00    +0.173 C 
ATOM     22  C   UNL     1      30.313 -22.435 -14.767  0.00  0.00    +0.039 C 
ATOM     23  C   UNL     1      29.529 -23.583 -14.648  0.00  0.00    +0.166 C 
BRANCH  23  24
ATOM     24  O   UNL     1      28.262 -23.594 -15.145  0.00  0.00    -0.477 OA
BRANCH  24  25
ATOM     25  C   UNL     1      27.833 -22.434 -15.857  0.00  0.00    +0.166 C 
ATOM     26  C   UNL     1      27.442 -22.832 -17.272  0.00  0.00    +0.047 C 
ATOM     27  C   UNL     1      26.676 -21.787 -15.111  0.00  0.00    +0.047 C 
ENDBRANCH  24  25
ENDBRANCH  23  24
ENDBRANCH  16  18
ENDBRANCH  15  16
ENDBRANCH   3  15
TORSDOF 7
ENDMDL
MODEL 4
REMARK VINA RESULT:     -10.5      2.274      3.153
REMARK  Name = 54688400
REMARK  7 active torsions:
REMARK  status: ('A' for Active; 'I' for Inactive)
REMARK    1  A    between atoms: C_3  and  C_8
REMARK    2  A    between atoms: C_3  and  C_15
REMARK    3  A    between atoms: C_5  and  O_13
REMARK    4  A    between atoms: C_15  and  C_16
REMARK    5  A    between atoms: C_16  and  C_18
REMARK    6  A    between atoms: C_23  and  O_24
REMARK    7  A    between atoms: O_24  and  C_25
REMARK                            x       y       z     vdW  Elec       q    Type
REMARK                         _______ _______ _______ _____ _____    ______ ____
ROOT
ATOM      1  O   UNL     1      38.284 -23.870 -13.308  0.00  0.00    -0.452 OA
ATOM      2  O   UNL     1      40.386 -24.504 -13.870  0.00  0.00    -0.245 OA
ATOM      3  C   UNL     1      36.888 -23.776 -13.698  0.00  0.00    +0.144 C 
ATOM      4  C   UNL     1      36.353 -25.163 -14.074  0.00  0.00    +0.104 C 
ATOM      5  C   UNL     1      37.311 -25.858 -14.987  0.00  0.00    +0.121 C 
ATOM      6  C   UNL     1      39.174 -24.608 -14.024  0.00  0.00    +0.344 C 
ATOM      7  C   UNL     1      38.617 -25.578 -14.983  0.00  0.00    +0.114 C 
ENDROOT
BRANCH   3   8
ATOM      8  C   UNL     1      36.136 -23.242 -12.492  0.00  0.00    +0.037 C 
ATOM      9  C   UNL     1      34.928 -24.093 -12.112  0.00  0.00    +0.003 C 
ATOM     10  C   UNL     1      36.964 -23.262 -11.210  0.00  0.00    +0.003 C 
ATOM     11  C   UNL     1      35.927 -23.132 -10.101  0.00  0.00    +0.000 C 
ATOM     12  C   UNL     1      34.619 -23.678 -10.676  0.00  0.00    +0.000 C 
ENDBRANCH   3   8
BRANCH   5  13
ATOM     13  O   UNL     1      36.792 -26.802 -15.847  0.00  0.00    -0.509 OA
ATOM     14  H   UNL     1      37.127 -26.876 -16.719  0.00  0.00    +0.292 HD
ENDBRANCH   5  13
BRANCH   3  15
ATOM     15  C   UNL     1      36.769 -22.765 -14.849  0.00  0.00    +0.045 C 
BRANCH  15  16
ATOM     16  C   UNL     1      35.311 -22.561 -15.247  0.00  0.00    +0.030 C 
BRANCH  16  18
ATOM     17  F   UNL     1      32.770 -21.978 -19.373  0.00  0.00    -0.201 F 
ATOM     18  C   UNL     1      35.196 -22.060 -16.665  0.00  0.00    -0.020 C 
ATOM     19  C   UNL     1      34.014 -22.253 -17.380  0.00  0.00    +0.029 C 
ATOM     20  C   UNL     1      36.272 -21.403 -17.261  0.00  0.00    -0.001 C 
ATOM     21  C   UNL     1      33.908 -21.790 -18.691  0.00  0.00    +0.173 C 
ATOM     22  C   UNL     1      36.166 -20.939 -18.572  0.00  0.00    +0.039 C 
ATOM     23  C   UNL     1      34.984 -21.133 -19.287  0.00  0.00    +0.166 C 
BRANCH  23  24
ATOM     24  O   UNL     1      34.883 -20.679 -20.566  0.00  0.00    -0.477 OA
BRANCH  24  25
ATOM     25  C   UNL     1      34.723 -19.273 -20.747  0.00  0.00    +0.166 C 
ATOM     26  C   UNL     1      36.085 -18.640 -20.986  0.00  0.00    +0.047 C 
ATOM     27  C   UNL     1      33.770 -19.022 -21.906  0.00  0.00    +0.047 C 
ENDBRANCH  24  25
ENDBRANCH  23  24
ENDBRANCH  16  18
ENDBRANCH  15  16
ENDBRANCH   3  15
TORSDOF 7
ENDMDL
MODEL 5
REMARK VINA RESULT:     -10.0      2.438      4.278
REMARK  Name = 54688400
REMARK  7 active torsions:
REMARK  status: ('A' for Active; 'I' for Inactive)
REMARK    1  A    between atoms: C_3  and  C_8
REMARK    2  A    between atoms: C_3  and  C_15
REMARK    3  A    between atoms: C_5  and  O_13
REMARK    4  A    between atoms: C_15  and  C_16
REMARK    5  A    between atoms: C_16  and  C_18
REMARK    6  A    between atoms: C_23  and  O_24
REMARK    7  A    between atoms: O_24  and  C_25
REMARK                            x       y       z     vdW  Elec       q    Type
REMARK                         _______ _______ _______ _____ _____    ______ ____
ROOT
ATOM      1  O   UNL     1      31.142 -24.394 -14.420  0.00  0.00    -0.452 OA
ATOM      2  O   UNL     1      29.521 -25.973 -14.538  0.00  0.00    -0.245 OA
ATOM      3  C   UNL     1      31.634 -23.108 -14.880  0.00  0.00    +0.144 C 
ATOM      4  C   UNL     1      30.581 -22.022 -14.627  0.00  0.00    +0.104 C 
ATOM      5  C   UNL     1      29.238 -22.487 -15.089  0.00  0.00    +0.121 C 
ATOM      6  C   UNL     1      29.876 -24.809 -14.689  0.00  0.00    +0.344 C 
ATOM      7  C   UNL     1      28.921 -23.783 -15.145  0.00  0.00    +0.114 C 
ENDROOT
BRANCH   3   8
ATOM      8  C   UNL     1      32.886 -22.810 -14.074  0.00  0.00    +0.037 C 
ATOM      9  C   UNL     1      33.159 -23.842 -12.983  0.00  0.00    +0.003 C 
ATOM     10  C   UNL     1      34.165 -22.868 -14.904  0.00  0.00    +0.003 C 
ATOM     11  C   UNL     1      35.273 -22.992 -13.864  0.00  0.00    +0.000 C 
ATOM     12  C   UNL     1      34.629 -23.630 -12.633  0.00  0.00    +0.000 C 
ENDBRANCH   3   8
BRANCH   5  13
ATOM     13  O   UNL     1      28.330 -21.520 -15.465  0.00  0.00    -0.509 OA
ATOM     14  H   UNL     1      28.411 -21.100 -16.299  0.00  0.00    +0.292 HD
ENDBRANCH   5  13
BRANCH   3  15
ATOM     15  C   UNL     1      32.013 -23.230 -16.363  0.00  0.00    +0.045 C 
BRANCH  15  16
ATOM     16  C   UNL     1      31.414 -22.087 -17.176  0.00  0.00    +0.030 C 
BRANCH  16  18
ATOM     17  F   UNL     1      35.982 -21.630 -18.830  0.00  0.00    -0.201 F 
ATOM     18  C   UNL     1      32.406 -21.546 -18.174  0.00  0.00    -0.020 C 
ATOM     19  C   UNL     1      33.763 -21.843 -18.040  0.00  0.00    +0.029 C 
ATOM     20  C   UNL     1      31.968 -20.749 -19.231  0.00  0.00    -0.001 C 
ATOM     21  C   UNL     1      34.680 -21.342 -18.963  0.00  0.00    +0.173 C 
ATOM     22  C   UNL     1      32.885 -20.249 -20.154  0.00  0.00    +0.039 C 
ATOM     23  C   UNL     1      34.242 -20.546 -20.021  0.00  0.00    +0.166 C 
BRANCH  23  24
ATOM     24  O   UNL     1      35.135 -20.056 -20.923  0.00  0.00    -0.477 OA
BRANCH  24  25
ATOM     25  C   UNL     1      34.871 -18.762 -21.463  0.00  0.00    +0.166 C 
ATOM     26  C   UNL     1      36.132 -17.916 -21.375  0.00  0.00    +0.047 C 
ATOM     27  C   UNL     1      34.386 -18.908 -22.898  0.00  0.00    +0.047 C 
ENDBRANCH  24  25
ENDBRANCH  23  24
ENDBRANCH  16  18
ENDBRANCH  15  16
ENDBRANCH   3  15
TORSDOF 7
ENDMDL
MODEL 6
REMARK VINA RESULT:      -9.9      2.017      3.975
REMARK  Name = 54688400
REMARK  7 active torsions:
REMARK  status: ('A' for Active; 'I' for Inactive)
REMARK    1  A    between atoms: C_3  and  C_8
REMARK    2  A    between atoms: C_3  and  C_15
REMARK    3  A    between atoms: C_5  and  O_13
REMARK    4  A    between atoms: C_15  and  C_16
REMARK    5  A    between atoms: C_16  and  C_18
REMARK    6  A    between atoms: C_23  and  O_24
REMARK    7  A    between atoms: O_24  and  C_25
REMARK                            x       y       z     vdW  Elec       q    Type
REMARK                         _______ _______ _______ _____ _____    ______ ____
ROOT
ATOM      1  O   UNL     1      32.101 -24.500 -14.891  0.00  0.00    -0.452 OA
ATOM      2  O   UNL     1      30.029 -25.362 -14.574  0.00  0.00    -0.245 OA
ATOM      3  C   UNL     1      32.983 -23.354 -14.759  0.00  0.00    +0.144 C 
ATOM      4  C   UNL     1      33.033 -22.895 -13.297  0.00  0.00    +0.104 C 
ATOM      5  C   UNL     1      31.651 -22.809 -12.734  0.00  0.00    +0.121 C 
ATOM      6  C   UNL     1      30.886 -24.535 -14.280  0.00  0.00    +0.344 C 
ATOM      7  C   UNL     1      30.648 -23.550 -13.211  0.00  0.00    +0.114 C 
ENDROOT
BRANCH   3   8
ATOM      8  C   UNL     1      34.360 -23.815 -15.202  0.00  0.00    +0.037 C 
ATOM      9  C   UNL     1      35.436 -22.747 -15.031  0.00  0.00    +0.003 C 
ATOM     10  C   UNL     1      34.909 -24.965 -14.362  0.00  0.00    +0.003 C 
ATOM     11  C   UNL     1      36.404 -24.958 -14.661  0.00  0.00    +0.000 C 
ATOM     12  C   UNL     1      36.746 -23.528 -15.080  0.00  0.00    +0.000 C 
ENDBRANCH   3   8
BRANCH   5  13
ATOM     13  O   UNL     1      31.445 -21.922 -11.699  0.00  0.00    -0.509 OA
ATOM     14  H   UNL     1      30.830 -22.126 -11.023  0.00  0.00    +0.292 HD
ENDBRANCH   5  13
BRANCH   3  15
ATOM     15  C   UNL     1      32.497 -22.249 -15.709  0.00  0.00    +0.045 C 
BRANCH  15  16
ATOM     16  C   UNL     1      32.294 -22.792 -17.120  0.00  0.00    +0.030 C 
BRANCH  16  18
ATOM     17  F   UNL     1      36.402 -21.261 -19.263  0.00  0.00    -0.201 F 
ATOM     18  C   UNL     1      33.011 -21.946 -18.140  0.00  0.00    -0.020 C 
ATOM     19  C   UNL     1      34.403 -21.994 -18.234  0.00  0.00    +0.029 C 
ATOM     20  C   UNL     1      32.284 -21.113 -18.990  0.00  0.00    -0.001 C 
ATOM     21  C   UNL     1      35.066 -21.210 -19.177  0.00  0.00    +0.173 C 
ATOM     22  C   UNL     1      32.947 -20.329 -19.934  0.00  0.00    +0.039 C 
ATOM     23  C   UNL     1      34.339 -20.378 -20.028  0.00  0.00    +0.166 C 
BRANCH  23  24
ATOM     24  O   UNL     1      34.984 -19.612 -20.950  0.00  0.00    -0.477 OA
BRANCH  24  25
ATOM     25  C   UNL     1      34.251 -18.531 -21.525  0.00  0.00    +0.166 C 
ATOM     26  C   UNL     1      34.954 -17.222 -21.201  0.00  0.00    +0.047 C 
ATOM     27  C   UNL     1      34.126 -18.752 -23.024  0.00  0.00    +0.047 C 
ENDBRANCH  24  25
ENDBRANCH  23  24
ENDBRANCH  16  18
ENDBRANCH  15  16
ENDBRANCH   3  15
TORSDOF 7
ENDMDL
MODEL 7
REMARK VINA RESULT:      -9.9      1.266      1.501
REMARK  Name = 54688400
REMARK  7 active torsions:
REMARK  status: ('A' for Active; 'I' for Inactive)
REMARK    1  A    between atoms: C_3  and  C_8
REMARK    2  A    between atoms: C_3  and  C_15
REMARK    3  A    between atoms: C_5  and  O_13
REMARK    4  A    between atoms: C_15  and  C_16
REMARK    5  A    between atoms: C_16  and  C_18
REMARK    6  A    between atoms: C_23  and  O_24
REMARK    7  A    between atoms: O_24  and  C_25
REMARK                            x       y       z     vdW  Elec       q    Type
REMARK                         _______ _______ _______ _____ _____    ______ ____
ROOT
ATOM      1  O   UNL     1      33.800 -23.593 -12.647  0.00  0.00    -0.452 OA
ATOM      2  O   UNL     1      34.980 -23.534 -10.713  0.00  0.00    -0.245 OA
ATOM      3  C   UNL     1      33.829 -23.623 -14.098  0.00  0.00    +0.144 C 
ATOM      4  C   UNL     1      34.653 -24.822 -14.583  0.00  0.00    +0.104 C 
ATOM      5  C   UNL     1      35.944 -24.898 -13.835  0.00  0.00    +0.121 C 
ATOM      6  C   UNL     1      34.923 -23.800 -11.909  0.00  0.00    +0.344 C 
ATOM      7  C   UNL     1      36.077 -24.397 -12.604  0.00  0.00    +0.114 C 
ENDROOT
BRANCH   3   8
ATOM      8  C   UNL     1      32.389 -23.767 -14.558  0.00  0.00    +0.037 C 
ATOM      9  C   UNL     1      31.522 -24.556 -13.580  0.00  0.00    +0.003 C 
ATOM     10  C   UNL     1      31.649 -22.436 -14.647  0.00  0.00    +0.003 C 
ATOM     11  C   UNL     1      30.178 -22.834 -14.672  0.00  0.00    +0.000 C 
ATOM     12  C   UNL     1      30.093 -24.192 -13.975  0.00  0.00    +0.000 C 
ENDBRANCH   3   8
BRANCH   5  13
ATOM     13  O   UNL     1      37.007 -25.505 -14.470  0.00  0.00    -0.509 OA
ATOM     14  H   UNL     1      37.128 -26.431 -14.401  0.00  0.00    +0.292 HD
ENDBRANCH   5  13
BRANCH   3  15
ATOM     15  C   UNL     1      34.382 -22.282 -14.604  0.00  0.00    +0.045 C 
BRANCH  15  16
ATOM     16  C   UNL     1      35.583 -22.498 -15.519  0.00  0.00    +0.030 C 
BRANCH  16  18
ATOM     17  F   UNL     1      32.605 -21.849 -19.330  0.00  0.00    -0.201 F 
ATOM     18  C   UNL     1      35.314 -21.974 -16.907  0.00  0.00    -0.020 C 
ATOM     19  C   UNL     1      34.060 -22.156 -17.491  0.00  0.00    +0.029 C 
ATOM     20  C   UNL     1      36.320 -21.309 -17.609  0.00  0.00    -0.001 C 
ATOM     21  C   UNL     1      33.812 -21.672 -18.775  0.00  0.00    +0.173 C 
ATOM     22  C   UNL     1      36.071 -20.825 -18.893  0.00  0.00    +0.039 C 
ATOM     23  C   UNL     1      34.817 -21.007 -19.476  0.00  0.00    +0.166 C 
BRANCH  23  24
ATOM     24  O   UNL     1      34.577 -20.534 -20.729  0.00  0.00    -0.477 OA
BRANCH  24  25
ATOM     25  C   UNL     1      34.614 -19.118 -20.908  0.00  0.00    +0.166 C 
ATOM     26  C   UNL     1      36.062 -18.664 -21.003  0.00  0.00    +0.047 C 
ATOM     27  C   UNL     1      33.822 -18.750 -22.153  0.00  0.00    +0.047 C 
ENDBRANCH  24  25
ENDBRANCH  23  24
ENDBRANCH  16  18
ENDBRANCH  15  16
ENDBRANCH   3  15
TORSDOF 7
ENDMDL
MODEL 8
REMARK VINA RESULT:      -9.8     10.196     16.545
REMARK  Name = 54688400
REMARK  7 active torsions:
REMARK  status: ('A' for Active; 'I' for Inactive)
REMARK    1  A    between atoms: C_3  and  C_8
REMARK    2  A    between atoms: C_3  and  C_15
REMARK    3  A    between atoms: C_5  and  O_13
REMARK    4  A    between atoms: C_15  and  C_16
REMARK    5  A    between atoms: C_16  and  C_18
REMARK    6  A    between atoms: C_23  and  O_24
REMARK    7  A    between atoms: O_24  and  C_25
REMARK                            x       y       z     vdW  Elec       q    Type
REMARK                         _______ _______ _______ _____ _____    ______ ____
ROOT
ATOM      1  O   UNL     1      32.666  -6.150 -21.578  0.00  0.00    -0.452 OA
ATOM      2  O   UNL     1      32.658  -5.964 -19.320  0.00  0.00    -0.245 OA
ATOM      3  C   UNL     1      31.896  -6.147 -22.809  0.00  0.00    +0.144 C 
ATOM      4  C   UNL     1      31.114  -4.833 -22.936  0.00  0.00    +0.104 C 
ATOM      5  C   UNL     1      30.420  -4.518 -21.651  0.00  0.00    +0.121 C 
ATOM      6  C   UNL     1      32.125  -5.736 -20.401  0.00  0.00    +0.344 C 
ATOM      7  C   UNL     1      30.874  -4.963 -20.476  0.00  0.00    +0.114 C 
ENDROOT
BRANCH   3   8
ATOM      8  C   UNL     1      32.896  -6.263 -23.945  0.00  0.00    +0.037 C 
ATOM      9  C   UNL     1      32.255  -6.146 -25.325  0.00  0.00    +0.003 C 
ATOM     10  C   UNL     1      33.919  -5.132 -23.965  0.00  0.00    +0.003 C 
ATOM     11  C   UNL     1      34.500  -5.186 -25.374  0.00  0.00    +0.000 C 
ATOM     12  C   UNL     1      33.425  -5.827 -26.252  0.00  0.00    +0.000 C 
ENDBRANCH   3   8
BRANCH   5  13
ATOM     13  O   UNL     1      29.277  -3.750 -21.722  0.00  0.00    -0.509 OA
ATOM     14  H   UNL     1      28.715  -3.675 -20.976  0.00  0.00    +0.292 HD
ENDBRANCH   5  13
BRANCH   3  15
ATOM     15  C   UNL     1      30.982  -7.381 -22.819  0.00  0.00    +0.045 C 
BRANCH  15  16
ATOM     16  C   UNL     1      31.162  -8.204 -21.547  0.00  0.00    +0.030 C 
BRANCH  16  18
ATOM     17  F   UNL     1      33.558 -11.481 -24.256  0.00  0.00    -0.201 F 
ATOM     18  C   UNL     1      31.536  -9.629 -21.867  0.00  0.00    -0.020 C 
ATOM     19  C   UNL     1      32.391  -9.904 -22.934  0.00  0.00    +0.029 C 
ATOM     20  C   UNL     1      31.026 -10.674 -21.096  0.00  0.00    -0.001 C 
ATOM     21  C   UNL     1      32.736 -11.223 -23.230  0.00  0.00    +0.173 C 
ATOM     22  C   UNL     1      31.371 -11.992 -21.391  0.00  0.00    +0.039 C 
ATOM     23  C   UNL     1      32.227 -12.267 -22.458  0.00  0.00    +0.166 C 
BRANCH  23  24
ATOM     24  O   UNL     1      32.562 -13.554 -22.745  0.00  0.00    -0.477 OA
BRANCH  24  25
ATOM     25  C   UNL     1      33.865 -13.988 -22.358  0.00  0.00    +0.166 C 
ATOM     26  C   UNL     1      33.828 -14.456 -20.911  0.00  0.00    +0.047 C 
ATOM     27  C   UNL     1      34.326 -15.091 -23.298  0.00  0.00    +0.047 C 
ENDBRANCH  24  25
ENDBRANCH  23  24
ENDBRANCH  16  18
ENDBRANCH  15  16
ENDBRANCH   3  15
TORSDOF 7
ENDMDL
MODEL 9
REMARK VINA RESULT:      -9.7      2.189      4.412
REMARK  Name = 54688400
REMARK  7 active torsions:
REMARK  status: ('A' for Active; 'I' for Inactive)
REMARK    1  A    between atoms: C_3  and  C_8
REMARK    2  A    between atoms: C_3  and  C_15
REMARK    3  A    between atoms: C_5  and  O_13
REMARK    4  A    between atoms: C_15  and  C_16
REMARK    5  A    between atoms: C_16  and  C_18
REMARK    6  A    between atoms: C_23  and  O_24
REMARK    7  A    between atoms: O_24  and  C_25
REMARK                            x       y       z     vdW  Elec       q    Type
REMARK                         _______ _______ _______ _____ _____    ______ ____
ROOT
ATOM      1  O   UNL     1      35.414 -24.561 -13.267  0.00  0.00    -0.452 OA
ATOM      2  O   UNL     1      33.264 -24.639 -12.555  0.00  0.00    -0.245 OA
ATOM      3  C   UNL     1      36.680 -23.849 -13.262  0.00  0.00    +0.144 C 
ATOM      4  C   UNL     1      37.166 -23.652 -11.821  0.00  0.00    +0.104 C 
ATOM      5  C   UNL     1      36.052 -23.146 -10.963  0.00  0.00    +0.121 C 
ATOM      6  C   UNL     1      34.412 -24.235 -12.406  0.00  0.00    +0.344 C 
ATOM      7  C   UNL     1      34.771 -23.393 -11.252  0.00  0.00    +0.114 C 
ENDROOT
BRANCH   3   8
ATOM      8  C   UNL     1      37.666 -24.715 -14.025  0.00  0.00    +0.037 C 
ATOM      9  C   UNL     1      38.617 -23.911 -14.906  0.00  0.00    +0.003 C 
ATOM     10  C   UNL     1      38.628 -25.475 -13.117  0.00  0.00    +0.003 C 
ATOM     11  C   UNL     1      39.762 -25.890 -14.048  0.00  0.00    +0.000 C 
ATOM     12  C   UNL     1      39.764 -24.876 -15.193  0.00  0.00    +0.000 C 
ENDBRANCH   3   8
BRANCH   5  13
ATOM     13  O   UNL     1      36.396 -22.402  -9.855  0.00  0.00    -0.509 OA
ATOM     14  H   UNL     1      36.880 -21.606  -9.957  0.00  0.00    +0.292 HD
ENDBRANCH   5  13
BRANCH   3  15
ATOM     15  C   UNL     1      36.498 -22.520 -14.011  0.00  0.00    +0.045 C 
BRANCH  15  16
ATOM     16  C   UNL     1      35.125 -22.450 -14.672  0.00  0.00    +0.030 C 
BRANCH  16  18
ATOM     17  F   UNL     1      33.295 -22.148 -19.185  0.00  0.00    -0.201 F 
ATOM     18  C   UNL     1      35.232 -22.014 -16.111  0.00  0.00    -0.020 C 
ATOM     19  C   UNL     1      34.194 -22.287 -17.002  0.00  0.00    +0.029 C 
ATOM     20  C   UNL     1      36.370 -21.338 -16.551  0.00  0.00    -0.001 C 
ATOM     21  C   UNL     1      34.295 -21.883 -18.333  0.00  0.00    +0.173 C 
ATOM     22  C   UNL     1      36.470 -20.934 -17.882  0.00  0.00    +0.039 C 
ATOM     23  C   UNL     1      35.432 -21.207 -18.774  0.00  0.00    +0.166 C 
BRANCH  23  24
ATOM     24  O   UNL     1      35.531 -20.812 -20.072  0.00  0.00    -0.477 OA
BRANCH  24  25
ATOM     25  C   UNL     1      35.197 -19.456 -20.367  0.00  0.00    +0.166 C 
ATOM     26  C   UNL     1      36.397 -18.771 -21.001  0.00  0.00    +0.047 C 
ATOM     27  C   UNL     1      33.981 -19.428 -21.280  0.00  0.00    +0.047 C 
ENDBRANCH  24  25
ENDBRANCH  23  24
ENDBRANCH  16  18
ENDBRANCH  15  16
ENDBRANCH   3  15
TORSDOF 7
ENDMDL
