MODEL 1
REMARK VINA RESULT:     -11.2      0.000      0.000
REMARK  Name = 4806
REMARK  6 active torsions:
REMARK  status: ('A' for Active; 'I' for Inactive)
REMARK    1  A    between atoms: C_1  and  S_21
REMARK    2  A    between atoms: C_2  and  N_8
REMARK    3  A    between atoms: C_9  and  C_11
REMARK    4  A    between atoms: C_12  and  C_18
REMARK    5  A    between atoms: C_18  and  O_19
REMARK    6  A    between atoms: S_21  and  N_25
REMARK                            x       y       z     vdW  Elec       q    Type
REMARK                         _______ _______ _______ _____ _____    ______ ____
ROOT
ATOM      1  C   UNL     1      31.869 -10.505 -21.939  0.00  0.00    +0.125 C 
ATOM      2  C   UNL     1      32.703 -13.146 -21.923  0.00  0.00    +0.051 C 
ATOM      3  C   UNL     1      32.626 -11.004 -22.999  0.00  0.00    +0.021 C 
ATOM      4  C   UNL     1      31.533 -11.337 -20.871  0.00  0.00    +0.021 C 
ATOM      5  C   UNL     1      33.046 -12.334 -22.992  0.00  0.00    +0.016 C 
ATOM      6  C   UNL     1      31.952 -12.668 -20.863  0.00  0.00    +0.016 C 
ENDROOT
BRANCH   2   8
ATOM      7  O   UNL     1      34.919 -14.485 -23.435  0.00  0.00    -0.270 OA
ATOM      8  N   UNL     1      33.130 -14.495 -21.915  0.00  0.00    -0.280 N 
ATOM      9  C   UNL     1      34.176 -15.082 -22.640  0.00  0.00    +0.250 C 
ATOM     10  H   UNL     1      32.629 -15.100 -21.323  0.00  0.00    +0.155 HD
BRANCH   9  11
ATOM     11  C   UNL     1      34.361 -16.514 -22.441  0.00  0.00    +0.060 C 
ATOM     12  C   UNL     1      33.959 -17.437 -23.405  0.00  0.00    +0.080 C 
ATOM     13  C   UNL     1      34.953 -16.954 -21.257  0.00  0.00    +0.005 C 
ATOM     14  C   UNL     1      34.149 -18.801 -23.186  0.00  0.00    +0.007 C 
ATOM     15  C   UNL     1      35.144 -18.317 -21.038  0.00  0.00    +0.000 C 
ATOM     16  C   UNL     1      34.742 -19.242 -22.002  0.00  0.00    +0.000 C 
BRANCH  12  18
ATOM     17  O   UNL     1      32.236 -17.386 -25.064  0.00  0.00    -0.245 OA
ATOM     18  C   UNL     1      33.336 -17.009 -24.650  0.00  0.00    +0.338 C 
BRANCH  18  19
ATOM     19  O   UNL     1      34.105 -16.120 -25.336  0.00  0.00    -0.477 OA
ATOM     20  H   UNL     1      34.433 -15.355 -24.906  0.00  0.00    +0.295 HD
ENDBRANCH  18  19
ENDBRANCH  12  18
ENDBRANCH   9  11
ENDBRANCH   2   8
BRANCH   1  21
ATOM     21  S   UNL     1      31.343  -8.841 -21.949  0.00  0.00    +0.075 S 
ATOM     22  O   UNL     1      31.155  -8.426 -20.563  0.00  0.00    -0.150 OA
ATOM     23  O   UNL     1      30.228  -8.709 -22.879  0.00  0.00    -0.150 OA
BRANCH  21  25
ATOM     24  S   UNL     1      33.347  -5.914 -24.280  0.00  0.00    -0.050 S 
ATOM     25  N   UNL     1      32.717  -8.010 -22.574  0.00  0.00    -0.194 N 
ATOM     26  N   UNL     1      31.838  -5.785 -22.185  0.00  0.00    -0.221 NA
ATOM     27  C   UNL     1      32.573  -6.619 -22.907  0.00  0.00    +0.179 C 
ATOM     28  C   UNL     1      32.654  -4.397 -23.883  0.00  0.00    +0.059 C 
ATOM     29  C   UNL     1      31.887  -4.523 -22.744  0.00  0.00    +0.108 C 
ATOM     30  H   UNL     1      33.576  -8.475 -22.701  0.00  0.00    +0.176 HD
ENDBRANCH  21  25
ENDBRANCH   1  21
TORSDOF 6
ENDMDL
MODEL 2
REMARK VINA RESULT:     -11.2      7.413     11.914
REMARK  Name = 4806
REMARK  6 active torsions:
REMARK  status: ('A' for Active; 'I' for Inactive)
REMARK    1  A    between atoms: C_1  and  S_21
REMARK    2  A    between atoms: C_2  and  N_8
REMARK    3  A    between atoms: C_9  and  C_11
REMARK    4  A    between atoms: C_12  and  C_18
REMARK    5  A    between atoms: C_18  and  O_19
REMARK    6  A    between atoms: S_21  and  N_25
REMARK                            x       y       z     vdW  Elec       q    Type
REMARK                         _______ _______ _______ _____ _____    ______ ____
ROOT
ATOM      1  C   UNL     1      33.383 -21.762 -18.472  0.00  0.00    +0.125 C 
ATOM      2  C   UNL     1      33.528 -19.744 -20.363  0.00  0.00    +0.051 C 
ATOM      3  C   UNL     1      34.621 -21.375 -18.987  0.00  0.00    +0.021 C 
ATOM      4  C   UNL     1      32.219 -21.131 -18.909  0.00  0.00    +0.021 C 
ATOM      5  C   UNL     1      34.694 -20.359 -19.939  0.00  0.00    +0.016 C 
ATOM      6  C   UNL     1      32.291 -20.114 -19.862  0.00  0.00    +0.016 C 
ENDROOT
BRANCH   2   8
ATOM      7  O   UNL     1      35.434 -17.442 -20.598  0.00  0.00    -0.270 OA
ATOM      8  N   UNL     1      33.601 -18.713 -21.330  0.00  0.00    -0.280 N 
ATOM      9  C   UNL     1      34.513 -17.652 -21.402  0.00  0.00    +0.250 C 
ATOM     10  H   UNL     1      32.925 -18.745 -22.044  0.00  0.00    +0.155 HD
BRANCH   9  11
ATOM     11  C   UNL     1      34.319 -16.724 -22.510  0.00  0.00    +0.060 C 
ATOM     12  C   UNL     1      33.957 -17.176 -23.778  0.00  0.00    +0.080 C 
ATOM     13  C   UNL     1      34.503 -15.360 -22.281  0.00  0.00    +0.005 C 
ATOM     14  C   UNL     1      33.778 -16.264 -24.818  0.00  0.00    +0.007 C 
ATOM     15  C   UNL     1      34.324 -14.449 -23.321  0.00  0.00    +0.000 C 
ATOM     16  C   UNL     1      33.962 -14.900 -24.589  0.00  0.00    +0.000 C 
BRANCH  12  18
ATOM     17  O   UNL     1      34.618 -19.471 -23.920  0.00  0.00    -0.245 OA
ATOM     18  C   UNL     1      33.760 -18.594 -24.049  0.00  0.00    +0.338 C 
BRANCH  18  19
ATOM     19  O   UNL     1      32.495 -18.869 -24.469  0.00  0.00    -0.477 OA
ATOM     20  H   UNL     1      32.220 -18.613 -25.326  0.00  0.00    +0.295 HD
ENDBRANCH  18  19
ENDBRANCH  12  18
ENDBRANCH   9  11
ENDBRANCH   2   8
BRANCH   1  21
ATOM     21  S   UNL     1      33.292 -23.033 -17.279  0.00  0.00    +0.075 S 
ATOM     22  O   UNL     1      34.471 -22.928 -16.426  0.00  0.00    -0.150 OA
ATOM     23  O   UNL     1      33.029 -24.295 -17.960  0.00  0.00    -0.150 OA
BRANCH  21  25
ATOM     24  S   UNL     1      29.976 -23.725 -14.721  0.00  0.00    -0.050 S 
ATOM     25  N   UNL     1      31.914 -22.584 -16.347  0.00  0.00    -0.194 N 
ATOM     26  N   UNL     1      32.535 -23.865 -14.385  0.00  0.00    -0.221 NA
ATOM     27  C   UNL     1      31.601 -23.366 -15.182  0.00  0.00    +0.179 C 
ATOM     28  C   UNL     1      30.560 -24.603 -13.370  0.00  0.00    +0.059 C 
ATOM     29  C   UNL     1      31.939 -24.568 -13.357  0.00  0.00    +0.108 C 
ATOM     30  H   UNL     1      31.358 -21.814 -16.605  0.00  0.00    +0.176 HD
ENDBRANCH  21  25
ENDBRANCH   1  21
TORSDOF 6
ENDMDL
MODEL 3
REMARK VINA RESULT:     -11.0      4.019      9.931
REMARK  Name = 4806
REMARK  6 active torsions:
REMARK  status: ('A' for Active; 'I' for Inactive)
REMARK    1  A    between atoms: C_1  and  S_21
REMARK    2  A    between atoms: C_2  and  N_8
REMARK    3  A    between atoms: C_9  and  C_11
REMARK    4  A    between atoms: C_12  and  C_18
REMARK    5  A    between atoms: C_18  and  O_19
REMARK    6  A    between atoms: S_21  and  N_25
REMARK                            x       y       z     vdW  Elec       q    Type
REMARK                         _______ _______ _______ _____ _____    ______ ____
ROOT
ATOM      1  C   UNL     1      34.522 -16.335 -22.030  0.00  0.00    +0.125 C 
ATOM      2  C   UNL     1      33.867 -13.646 -22.095  0.00  0.00    +0.051 C 
ATOM      3  C   UNL     1      34.193 -15.668 -20.849  0.00  0.00    +0.021 C 
ATOM      4  C   UNL     1      34.519 -15.647 -23.242  0.00  0.00    +0.021 C 
ATOM      5  C   UNL     1      33.864 -14.313 -20.882  0.00  0.00    +0.016 C 
ATOM      6  C   UNL     1      34.189 -14.292 -23.277  0.00  0.00    +0.016 C 
ENDROOT
BRANCH   2   8
ATOM      7  O   UNL     1      32.681 -11.995 -24.299  0.00  0.00    -0.270 OA
ATOM      8  N   UNL     1      33.533 -12.270 -22.129  0.00  0.00    -0.280 N 
ATOM      9  C   UNL     1      32.977 -11.536 -23.185  0.00  0.00    +0.250 C 
ATOM     10  H   UNL     1      33.713 -11.765 -21.305  0.00  0.00    +0.155 HD
BRANCH   9  11
ATOM     11  C   UNL     1      32.768 -10.116 -22.928  0.00  0.00    +0.060 C 
ATOM     12  C   UNL     1      31.841  -9.681 -21.983  0.00  0.00    +0.080 C 
ATOM     13  C   UNL     1      33.517  -9.187 -23.650  0.00  0.00    +0.005 C 
ATOM     14  C   UNL     1      31.662  -8.315 -21.758  0.00  0.00    +0.007 C 
ATOM     15  C   UNL     1      33.339  -7.823 -23.426  0.00  0.00    +0.000 C 
ATOM     16  C   UNL     1      32.412  -7.387 -22.480  0.00  0.00    +0.000 C 
BRANCH  12  18
ATOM     17  O   UNL     1      31.441 -11.271 -20.241  0.00  0.00    -0.245 OA
ATOM     18  C   UNL     1      31.042 -10.626 -21.214  0.00  0.00    +0.338 C 
BRANCH  18  19
ATOM     19  O   UNL     1      29.769 -10.731 -21.684  0.00  0.00    -0.477 OA
ATOM     20  H   UNL     1      29.430 -10.082 -22.268  0.00  0.00    +0.295 HD
ENDBRANCH  18  19
ENDBRANCH  12  18
ENDBRANCH   9  11
ENDBRANCH   2   8
BRANCH   1  21
ATOM     21  S   UNL     1      34.934 -18.031 -21.989  0.00  0.00    +0.075 S 
ATOM     22  O   UNL     1      36.318 -18.142 -21.540  0.00  0.00    -0.150 OA
ATOM     23  O   UNL     1      34.557 -18.635 -23.261  0.00  0.00    -0.150 OA
BRANCH  21  25
ATOM     24  S   UNL     1      33.205 -21.046 -19.551  0.00  0.00    -0.050 S 
ATOM     25  N   UNL     1      33.916 -18.640 -20.738  0.00  0.00    -0.194 N 
ATOM     26  N   UNL     1      35.596 -20.085 -19.756  0.00  0.00    -0.221 NA
ATOM     27  C   UNL     1      34.329 -19.834 -20.051  0.00  0.00    +0.179 C 
ATOM     28  C   UNL     1      34.498 -21.965 -18.898  0.00  0.00    +0.059 C 
ATOM     29  C   UNL     1      35.688 -21.297 -19.101  0.00  0.00    +0.108 C 
ATOM     30  H   UNL     1      33.076 -18.185 -20.502  0.00  0.00    +0.176 HD
ENDBRANCH  21  25
ENDBRANCH   1  21
TORSDOF 6
ENDMDL
MODEL 4
REMARK VINA RESULT:     -10.8      7.310     10.649
REMARK  Name = 4806
REMARK  6 active torsions:
REMARK  status: ('A' for Active; 'I' for Inactive)
REMARK    1  A    between atoms: C_1  and  S_21
REMARK    2  A    between atoms: C_2  and  N_8
REMARK    3  A    between atoms: C_9  and  C_11
REMARK    4  A    between atoms: C_12  and  C_18
REMARK    5  A    between atoms: C_18  and  O_19
REMARK    6  A    between atoms: S_21  and  N_25
REMARK                            x       y       z     vdW  Elec       q    Type
REMARK                         _______ _______ _______ _____ _____    ______ ____
ROOT
ATOM      1  C   UNL     1      34.393 -20.130 -20.197  0.00  0.00    +0.125 C 
ATOM      2  C   UNL     1      33.062 -21.629 -18.286  0.00  0.00    +0.051 C 
ATOM      3  C   UNL     1      35.117 -20.893 -19.280  0.00  0.00    +0.021 C 
ATOM      4  C   UNL     1      32.999 -20.124 -20.151  0.00  0.00    +0.021 C 
ATOM      5  C   UNL     1      34.447 -21.648 -18.317  0.00  0.00    +0.016 C 
ATOM      6  C   UNL     1      32.328 -20.879 -19.189  0.00  0.00    +0.016 C 
ENDROOT
BRANCH   2   8
ATOM      7  O   UNL     1      30.291 -21.335 -17.181  0.00  0.00    -0.270 OA
ATOM      8  N   UNL     1      32.382 -22.394 -17.309  0.00  0.00    -0.280 N 
ATOM      9  C   UNL     1      31.080 -22.222 -16.820  0.00  0.00    +0.250 C 
ATOM     10  H   UNL     1      32.887 -23.145 -16.924  0.00  0.00    +0.155 HD
BRANCH   9  11
ATOM     11  C   UNL     1      30.662 -23.161 -15.786  0.00  0.00    +0.060 C 
ATOM     12  C   UNL     1      29.320 -23.495 -15.612  0.00  0.00    +0.080 C 
ATOM     13  C   UNL     1      31.635 -23.728 -14.964  0.00  0.00    +0.005 C 
ATOM     14  C   UNL     1      28.949 -24.397 -14.615  0.00  0.00    +0.007 C 
ATOM     15  C   UNL     1      31.265 -24.630 -13.967  0.00  0.00    +0.000 C 
ATOM     16  C   UNL     1      29.922 -24.965 -13.792  0.00  0.00    +0.000 C 
BRANCH  12  18
ATOM     17  O   UNL     1      27.796 -23.451 -17.457  0.00  0.00    -0.245 OA
ATOM     18  C   UNL     1      28.279 -22.918 -16.454  0.00  0.00    +0.338 C 
BRANCH  18  19
ATOM     19  O   UNL     1      27.875 -21.696 -16.014  0.00  0.00    -0.477 OA
ATOM     20  H   UNL     1      27.040 -21.358 -16.270  0.00  0.00    +0.295 HD
ENDBRANCH  18  19
ENDBRANCH  12  18
ENDBRANCH   9  11
ENDBRANCH   2   8
BRANCH   1  21
ATOM     21  S   UNL     1      35.232 -19.186 -21.402  0.00  0.00    +0.075 S 
ATOM     22  O   UNL     1      34.917 -19.752 -22.709  0.00  0.00    -0.150 OA
ATOM     23  O   UNL     1      36.630 -19.062 -21.009  0.00  0.00    -0.150 OA
BRANCH  21  25
ATOM     24  S   UNL     1      34.382 -15.200 -22.589  0.00  0.00    -0.050 S 
ATOM     25  N   UNL     1      34.462 -17.649 -21.285  0.00  0.00    -0.194 N 
ATOM     26  N   UNL     1      33.868 -17.509 -23.631  0.00  0.00    -0.221 NA
ATOM     27  C   UNL     1      34.224 -16.918 -22.500  0.00  0.00    +0.179 C 
ATOM     28  C   UNL     1      33.947 -15.253 -24.247  0.00  0.00    +0.059 C 
ATOM     29  C   UNL     1      33.712 -16.560 -24.621  0.00  0.00    +0.108 C 
ATOM     30  H   UNL     1      34.194 -17.281 -20.412  0.00  0.00    +0.176 HD
ENDBRANCH  21  25
ENDBRANCH   1  21
TORSDOF 6
ENDMDL
MODEL 5
REMARK VINA RESULT:     -10.7      7.215     10.548
REMARK  Name = 4806
REMARK  6 active torsions:
REMARK  status: ('A' for Active; 'I' for Inactive)
REMARK    1  A    between atoms: C_1  and  S_21
REMARK    2  A    between atoms: C_2  and  N_8
REMARK    3  A    between atoms: C_9  and  C_11
REMARK    4  A    between atoms: C_12  and  C_18
REMARK    5  A    between atoms: C_18  and  O_19
REMARK    6  A    between atoms: S_21  and  N_25
REMARK                            x       y       z     vdW  Elec       q    Type
REMARK                         _______ _______ _______ _____ _____    ______ ____
ROOT
ATOM      1  C   UNL     1      34.399 -20.001 -20.399  0.00  0.00    +0.125 C 
ATOM      2  C   UNL     1      33.342 -21.544 -18.358  0.00  0.00    +0.051 C 
ATOM      3  C   UNL     1      35.249 -20.684 -19.528  0.00  0.00    +0.021 C 
ATOM      4  C   UNL     1      33.017 -20.097 -20.241  0.00  0.00    +0.021 C 
ATOM      5  C   UNL     1      34.717 -21.461 -18.500  0.00  0.00    +0.016 C 
ATOM      6  C   UNL     1      32.483 -20.875 -19.213  0.00  0.00    +0.016 C 
ENDROOT
BRANCH   2   8
ATOM      7  O   UNL     1      30.562 -21.630 -17.237  0.00  0.00    -0.270 OA
ATOM      8  N   UNL     1      32.800 -22.333 -17.314  0.00  0.00    -0.280 N 
ATOM      9  C   UNL     1      31.489 -22.341 -16.820  0.00  0.00    +0.250 C 
ATOM     10  H   UNL     1      33.425 -22.956 -16.879  0.00  0.00    +0.155 HD
BRANCH   9  11
ATOM     11  C   UNL     1      31.235 -23.252 -15.711  0.00  0.00    +0.060 C 
ATOM     12  C   UNL     1      32.261 -23.660 -14.860  0.00  0.00    +0.080 C 
ATOM     13  C   UNL     1      29.935 -23.717 -15.509  0.00  0.00    +0.005 C 
ATOM     14  C   UNL     1      31.988 -24.532 -13.806  0.00  0.00    +0.007 C 
ATOM     15  C   UNL     1      29.662 -24.588 -14.456  0.00  0.00    +0.000 C 
ATOM     16  C   UNL     1      30.688 -24.996 -13.604  0.00  0.00    +0.000 C 
BRANCH  12  18
ATOM     17  O   UNL     1      34.513 -23.801 -15.656  0.00  0.00    -0.245 OA
ATOM     18  C   UNL     1      33.630 -23.194 -15.045  0.00  0.00    +0.338 C 
BRANCH  18  19
ATOM     19  O   UNL     1      33.848 -21.983 -14.463  0.00  0.00    -0.477 OA
ATOM     20  H   UNL     1      33.952 -21.922 -13.534  0.00  0.00    +0.295 HD
ENDBRANCH  18  19
ENDBRANCH  12  18
ENDBRANCH   9  11
ENDBRANCH   2   8
BRANCH   1  21
ATOM     21  S   UNL     1      35.066 -19.029 -21.686  0.00  0.00    +0.075 S 
ATOM     22  O   UNL     1      34.624 -19.603 -22.952  0.00  0.00    -0.150 OA
ATOM     23  O   UNL     1      36.495 -18.860 -21.452  0.00  0.00    -0.150 OA
BRANCH  21  25
ATOM     24  S   UNL     1      34.307 -14.926 -22.470  0.00  0.00    -0.050 S 
ATOM     25  N   UNL     1      34.266 -17.517 -21.476  0.00  0.00    -0.194 N 
ATOM     26  N   UNL     1      33.955 -17.089 -23.841  0.00  0.00    -0.221 NA
ATOM     27  C   UNL     1      34.164 -16.642 -22.611  0.00  0.00    +0.179 C 
ATOM     28  C   UNL     1      34.074 -14.774 -24.162  0.00  0.00    +0.059 C 
ATOM     29  C   UNL     1      33.905 -16.025 -24.719  0.00  0.00    +0.108 C 
ATOM     30  H   UNL     1      33.890 -17.260 -20.603  0.00  0.00    +0.176 HD
ENDBRANCH  21  25
ENDBRANCH   1  21
TORSDOF 6
ENDMDL
MODEL 6
REMARK VINA RESULT:     -10.7      7.195     12.053
REMARK  Name = 4806
REMARK  6 active torsions:
REMARK  status: ('A' for Active; 'I' for Inactive)
REMARK    1  A    between atoms: C_1  and  S_21
REMARK    2  A    between atoms: C_2  and  N_8
REMARK    3  A    between atoms: C_9  and  C_11
REMARK    4  A    between atoms: C_12  and  C_18
REMARK    5  A    between atoms: C_18  and  O_19
REMARK    6  A    between atoms: S_21  and  N_25
REMARK                            x       y       z     vdW  Elec       q    Type
REMARK                         _______ _______ _______ _____ _____    ______ ____
ROOT
ATOM      1  C   UNL     1      33.440 -21.737 -18.459  0.00  0.00    +0.125 C 
ATOM      2  C   UNL     1      33.565 -19.698 -20.327  0.00  0.00    +0.051 C 
ATOM      3  C   UNL     1      32.267 -21.132 -18.909  0.00  0.00    +0.021 C 
ATOM      4  C   UNL     1      34.675 -21.316 -18.950  0.00  0.00    +0.021 C 
ATOM      5  C   UNL     1      32.329 -20.104 -19.850  0.00  0.00    +0.016 C 
ATOM      6  C   UNL     1      34.739 -20.288 -19.892  0.00  0.00    +0.016 C 
ENDROOT
BRANCH   2   8
ATOM      7  O   UNL     1      35.675 -17.618 -20.785  0.00  0.00    -0.270 OA
ATOM      8  N   UNL     1      33.628 -18.655 -21.282  0.00  0.00    -0.280 N 
ATOM      9  C   UNL     1      34.639 -17.701 -21.462  0.00  0.00    +0.250 C 
ATOM     10  H   UNL     1      32.866 -18.592 -21.900  0.00  0.00    +0.155 HD
BRANCH   9  11
ATOM     11  C   UNL     1      34.409 -16.727 -22.522  0.00  0.00    +0.060 C 
ATOM     12  C   UNL     1      34.172 -15.384 -22.233  0.00  0.00    +0.080 C 
ATOM     13  C   UNL     1      34.430 -17.162 -23.848  0.00  0.00    +0.005 C 
ATOM     14  C   UNL     1      33.956 -14.475 -23.269  0.00  0.00    +0.007 C 
ATOM     15  C   UNL     1      34.214 -16.253 -24.883  0.00  0.00    +0.000 C 
ATOM     16  C   UNL     1      33.977 -14.910 -24.594  0.00  0.00    +0.000 C 
BRANCH  12  18
ATOM     17  O   UNL     1      34.123 -13.712 -20.522  0.00  0.00    -0.245 OA
ATOM     18  C   UNL     1      34.142 -14.899 -20.859  0.00  0.00    +0.338 C 
BRANCH  18  19
ATOM     19  O   UNL     1      34.133 -15.913 -19.952  0.00  0.00    -0.477 OA
ATOM     20  H   UNL     1      33.320 -16.286 -19.674  0.00  0.00    +0.295 HD
ENDBRANCH  18  19
ENDBRANCH  12  18
ENDBRANCH   9  11
ENDBRANCH   2   8
BRANCH   1  21
ATOM     21  S   UNL     1      33.362 -23.023 -17.281  0.00  0.00    +0.075 S 
ATOM     22  O   UNL     1      34.572 -22.957 -16.469  0.00  0.00    -0.150 OA
ATOM     23  O   UNL     1      33.045 -24.269 -17.969  0.00  0.00    -0.150 OA
BRANCH  21  25
ATOM     24  S   UNL     1      30.110 -23.678 -14.632  0.00  0.00    -0.050 S 
ATOM     25  N   UNL     1      32.029 -22.556 -16.294  0.00  0.00    -0.194 N 
ATOM     26  N   UNL     1      32.673 -23.902 -14.383  0.00  0.00    -0.221 NA
ATOM     27  C   UNL     1      31.730 -23.356 -15.138  0.00  0.00    +0.179 C 
ATOM     28  C   UNL     1      30.711 -24.605 -13.321  0.00  0.00    +0.059 C 
ATOM     29  C   UNL     1      32.090 -24.610 -13.352  0.00  0.00    +0.108 C 
ATOM     30  H   UNL     1      31.488 -21.764 -16.516  0.00  0.00    +0.176 HD
ENDBRANCH  21  25
ENDBRANCH   1  21
TORSDOF 6
ENDMDL
MODEL 7
REMARK VINA RESULT:     -10.5      7.441     12.086
REMARK  Name = 4806
REMARK  6 active torsions:
REMARK  status: ('A' for Active; 'I' for Inactive)
REMARK    1  A    between atoms: C_1  and  S_21
REMARK    2  A    between atoms: C_2  and  N_8
REMARK    3  A    between atoms: C_9  and  C_11
REMARK    4  A    between atoms: C_12  and  C_18
REMARK    5  A    between atoms: C_18  and  O_19
REMARK    6  A    between atoms: S_21  and  N_25
REMARK                            x       y       z     vdW  Elec       q    Type
REMARK                         _______ _______ _______ _____ _____    ______ ____
ROOT
ATOM      1  C   UNL     1      33.538 -21.719 -18.353  0.00  0.00    +0.125 C 
ATOM      2  C   UNL     1      33.622 -19.757 -20.304  0.00  0.00    +0.051 C 
ATOM      3  C   UNL     1      34.764 -21.313 -18.881  0.00  0.00    +0.021 C 
ATOM      4  C   UNL     1      32.356 -21.136 -18.807  0.00  0.00    +0.021 C 
ATOM      5  C   UNL     1      34.806 -20.325 -19.864  0.00  0.00    +0.016 C 
ATOM      6  C   UNL     1      32.397 -20.147 -19.790  0.00  0.00    +0.016 C 
ENDROOT
BRANCH   2   8
ATOM      7  O   UNL     1      35.454 -17.403 -20.607  0.00  0.00    -0.270 OA
ATOM      8  N   UNL     1      33.664 -18.754 -21.302  0.00  0.00    -0.280 N 
ATOM      9  C   UNL     1      34.542 -17.667 -21.406  0.00  0.00    +0.250 C 
ATOM     10  H   UNL     1      32.992 -18.830 -22.016  0.00  0.00    +0.155 HD
BRANCH   9  11
ATOM     11  C   UNL     1      34.321 -16.780 -22.542  0.00  0.00    +0.060 C 
ATOM     12  C   UNL     1      33.937 -17.279 -23.785  0.00  0.00    +0.080 C 
ATOM     13  C   UNL     1      34.502 -15.408 -22.365  0.00  0.00    +0.005 C 
ATOM     14  C   UNL     1      33.732 -16.406 -24.854  0.00  0.00    +0.007 C 
ATOM     15  C   UNL     1      34.297 -14.535 -23.433  0.00  0.00    +0.000 C 
ATOM     16  C   UNL     1      33.912 -15.033 -24.678  0.00  0.00    +0.000 C 
BRANCH  12  18
ATOM     17  O   UNL     1      34.618 -19.569 -23.902  0.00  0.00    -0.245 OA
ATOM     18  C   UNL     1      33.742 -18.706 -24.002  0.00  0.00    +0.338 C 
BRANCH  18  19
ATOM     19  O   UNL     1      32.457 -19.009 -24.333  0.00  0.00    -0.477 OA
ATOM     20  H   UNL     1      32.162 -19.897 -24.301  0.00  0.00    +0.295 HD
ENDBRANCH  18  19
ENDBRANCH  12  18
ENDBRANCH   9  11
ENDBRANCH   2   8
BRANCH   1  21
ATOM     21  S   UNL     1      33.485 -22.956 -17.122  0.00  0.00    +0.075 S 
ATOM     22  O   UNL     1      33.634 -24.248 -17.783  0.00  0.00    -0.150 OA
ATOM     23  O   UNL     1      32.317 -22.728 -16.280  0.00  0.00    -0.150 OA
BRANCH  21  25
ATOM     24  S   UNL     1      36.007 -23.165 -13.713  0.00  0.00    -0.050 S 
ATOM     25  N   UNL     1      34.918 -22.651 -16.214  0.00  0.00    -0.194 N 
ATOM     26  N   UNL     1      35.171 -24.925 -15.412  0.00  0.00    -0.221 NA
ATOM     27  C   UNL     1      35.312 -23.620 -15.227  0.00  0.00    +0.179 C 
ATOM     28  C   UNL     1      36.124 -24.819 -13.278  0.00  0.00    +0.059 C 
ATOM     29  C   UNL     1      35.633 -25.603 -14.301  0.00  0.00    +0.108 C 
ATOM     30  H   UNL     1      35.450 -21.837 -16.365  0.00  0.00    +0.176 HD
ENDBRANCH  21  25
ENDBRANCH   1  21
TORSDOF 6
ENDMDL
MODEL 8
REMARK VINA RESULT:     -10.5      8.427     13.196
REMARK  Name = 4806
REMARK  6 active torsions:
REMARK  status: ('A' for Active; 'I' for Inactive)
REMARK    1  A    between atoms: C_1  and  S_21
REMARK    2  A    between atoms: C_2  and  N_8
REMARK    3  A    between atoms: C_9  and  C_11
REMARK    4  A    between atoms: C_12  and  C_18
REMARK    5  A    between atoms: C_18  and  O_19
REMARK    6  A    between atoms: S_21  and  N_25
REMARK                            x       y       z     vdW  Elec       q    Type
REMARK                         _______ _______ _______ _____ _____    ______ ____
ROOT
ATOM      1  C   UNL     1      34.879 -22.362 -16.821  0.00  0.00    +0.125 C 
ATOM      2  C   UNL     1      34.722 -20.834 -19.124  0.00  0.00    +0.051 C 
ATOM      3  C   UNL     1      33.698 -22.338 -17.563  0.00  0.00    +0.021 C 
ATOM      4  C   UNL     1      35.981 -21.617 -17.240  0.00  0.00    +0.021 C 
ATOM      5  C   UNL     1      33.618 -21.568 -18.723  0.00  0.00    +0.016 C 
ATOM      6  C   UNL     1      35.902 -20.847 -18.401  0.00  0.00    +0.016 C 
ENDROOT
BRANCH   2   8
ATOM      7  O   UNL     1      32.331 -19.713 -20.545  0.00  0.00    -0.270 OA
ATOM      8  N   UNL     1      34.642 -20.052 -20.302  0.00  0.00    -0.280 N 
ATOM      9  C   UNL     1      33.498 -19.547 -20.934  0.00  0.00    +0.250 C 
ATOM     10  H   UNL     1      35.499 -19.835 -20.732  0.00  0.00    +0.155 HD
BRANCH   9  11
ATOM     11  C   UNL     1      33.732 -18.791 -22.158  0.00  0.00    +0.060 C 
ATOM     12  C   UNL     1      34.440 -17.591 -22.144  0.00  0.00    +0.080 C 
ATOM     13  C   UNL     1      33.232 -19.292 -23.360  0.00  0.00    +0.005 C 
ATOM     14  C   UNL     1      34.650 -16.890 -23.332  0.00  0.00    +0.007 C 
ATOM     15  C   UNL     1      33.441 -18.592 -24.548  0.00  0.00    +0.000 C 
ATOM     16  C   UNL     1      34.149 -17.391 -24.534  0.00  0.00    +0.000 C 
BRANCH  12  18
ATOM     17  O   UNL     1      34.485 -16.100 -20.273  0.00  0.00    -0.245 OA
ATOM     18  C   UNL     1      34.974 -17.041 -20.905  0.00  0.00    +0.338 C 
BRANCH  18  19
ATOM     19  O   UNL     1      36.099 -17.686 -20.494  0.00  0.00    -0.477 OA
ATOM     20  H   UNL     1      36.051 -18.577 -20.210  0.00  0.00    +0.295 HD
ENDBRANCH  18  19
ENDBRANCH  12  18
ENDBRANCH   9  11
ENDBRANCH   2   8
BRANCH   1  21
ATOM     21  S   UNL     1      34.979 -23.326 -15.369  0.00  0.00    +0.075 S 
ATOM     22  O   UNL     1      34.129 -24.497 -15.553  0.00  0.00    -0.150 OA
ATOM     23  O   UNL     1      34.746 -22.463 -14.217  0.00  0.00    -0.150 OA
BRANCH  21  25
ATOM     24  S   UNL     1      38.716 -24.304 -13.609  0.00  0.00    -0.050 S 
ATOM     25  N   UNL     1      36.621 -23.851 -15.371  0.00  0.00    -0.194 N 
ATOM     26  N   UNL     1      36.373 -25.392 -13.517  0.00  0.00    -0.221 NA
ATOM     27  C   UNL     1      37.113 -24.537 -14.208  0.00  0.00    +0.179 C 
ATOM     28  C   UNL     1      38.399 -25.419 -12.345  0.00  0.00    +0.059 C 
ATOM     29  C   UNL     1      37.107 -25.890 -12.459  0.00  0.00    +0.108 C 
ATOM     30  H   UNL     1      37.204 -23.684 -16.147  0.00  0.00    +0.176 HD
ENDBRANCH  21  25
ENDBRANCH   1  21
TORSDOF 6
ENDMDL
MODEL 9
REMARK VINA RESULT:     -10.4      8.396     12.553
REMARK  Name = 4806
REMARK  6 active torsions:
REMARK  status: ('A' for Active; 'I' for Inactive)
REMARK    1  A    between atoms: C_1  and  S_21
REMARK    2  A    between atoms: C_2  and  N_8
REMARK    3  A    between atoms: C_9  and  C_11
REMARK    4  A    between atoms: C_12  and  C_18
REMARK    5  A    between atoms: C_18  and  O_19
REMARK    6  A    between atoms: S_21  and  N_25
REMARK                            x       y       z     vdW  Elec       q    Type
REMARK                         _______ _______ _______ _____ _____    ______ ____
ROOT
ATOM      1  C   UNL     1      35.008 -22.351 -16.771  0.00  0.00    +0.125 C 
ATOM      2  C   UNL     1      34.797 -20.843 -19.084  0.00  0.00    +0.051 C 
ATOM      3  C   UNL     1      36.094 -21.596 -17.213  0.00  0.00    +0.021 C 
ATOM      4  C   UNL     1      33.815 -22.345 -17.494  0.00  0.00    +0.021 C 
ATOM      5  C   UNL     1      35.989 -20.837 -18.378  0.00  0.00    +0.016 C 
ATOM      6  C   UNL     1      33.708 -21.585 -18.659  0.00  0.00    +0.016 C 
ENDROOT
BRANCH   2   8
ATOM      7  O   UNL     1      32.373 -19.744 -20.464  0.00  0.00    -0.270 OA
ATOM      8  N   UNL     1      34.689 -20.073 -20.266  0.00  0.00    -0.280 N 
ATOM      9  C   UNL     1      33.530 -19.577 -20.879  0.00  0.00    +0.250 C 
ATOM     10  H   UNL     1      35.536 -19.856 -20.716  0.00  0.00    +0.155 HD
BRANCH   9  11
ATOM     11  C   UNL     1      33.736 -18.832 -22.115  0.00  0.00    +0.060 C 
ATOM     12  C   UNL     1      34.433 -17.625 -22.125  0.00  0.00    +0.080 C 
ATOM     13  C   UNL     1      33.219 -19.350 -23.303  0.00  0.00    +0.005 C 
ATOM     14  C   UNL     1      34.615 -16.935 -23.323  0.00  0.00    +0.007 C 
ATOM     15  C   UNL     1      33.401 -18.660 -24.500  0.00  0.00    +0.000 C 
ATOM     16  C   UNL     1      34.098 -17.452 -24.511  0.00  0.00    +0.000 C 
BRANCH  12  18
ATOM     17  O   UNL     1      34.500 -16.112 -20.273  0.00  0.00    -0.245 OA
ATOM     18  C   UNL     1      34.984 -17.058 -20.901  0.00  0.00    +0.338 C 
BRANCH  18  19
ATOM     19  O   UNL     1      36.118 -17.693 -20.500  0.00  0.00    -0.477 OA
ATOM     20  H   UNL     1      36.255 -17.880 -19.593  0.00  0.00    +0.295 HD
ENDBRANCH  18  19
ENDBRANCH  12  18
ENDBRANCH   9  11
ENDBRANCH   2   8
BRANCH   1  21
ATOM     21  S   UNL     1      35.141 -23.302 -15.313  0.00  0.00    +0.075 S 
ATOM     22  O   UNL     1      36.491 -23.128 -14.790  0.00  0.00    -0.150 OA
ATOM     23  O   UNL     1      34.662 -24.651 -15.589  0.00  0.00    -0.150 OA
BRANCH  21  25
ATOM     24  S   UNL     1      31.322 -22.269 -13.771  0.00  0.00    -0.050 S 
ATOM     25  N   UNL     1      34.047 -22.510 -14.241  0.00  0.00    -0.194 N 
ATOM     26  N   UNL     1      32.680 -24.468 -13.819  0.00  0.00    -0.221 NA
ATOM     27  C   UNL     1      32.793 -23.155 -13.957  0.00  0.00    +0.179 C 
ATOM     28  C   UNL     1      30.482 -23.737 -13.489  0.00  0.00    +0.059 C 
ATOM     29  C   UNL     1      31.366 -24.794 -13.554  0.00  0.00    +0.108 C 
ATOM     30  H   UNL     1      34.274 -21.642 -13.836  0.00  0.00    +0.176 HD
ENDBRANCH  21  25
ENDBRANCH   1  21
TORSDOF 6
ENDMDL
