MODEL 1
REMARK VINA RESULT:      -9.6      0.000      0.000
REMARK  Name = 45100669
REMARK  4 active torsions:
REMARK  status: ('A' for Active; 'I' for Inactive)
REMARK    1  A    between atoms: C_17  and  C_27
REMARK    2  A    between atoms: C_19  and  C_22
REMARK    3  A    between atoms: C_22  and  O_25
REMARK    4  A    between atoms: C_27  and  C_28
REMARK                            x       y       z     vdW  Elec       q    Type
REMARK                         _______ _______ _______ _____ _____    ______ ____
ROOT
ATOM      1  N   UNL     1      32.337 -10.945 -22.907  0.00  0.00    -0.294 N 
ATOM      2  N   UNL     1      33.312 -13.565 -22.642  0.00  0.00    -0.289 N 
ATOM      3  N   UNL     1      34.429 -15.179 -21.333  0.00  0.00    -0.134 NA
ATOM      4  N   UNL     1      30.662  -9.272 -22.966  0.00  0.00    -0.252 NA
ATOM      5  N   UNL     1      34.883 -16.447 -21.148  0.00  0.00    -0.151 NA
ATOM      6  N   UNL     1      32.454  -7.522 -21.703  0.00  0.00    -0.267 NA
ATOM      7  C   UNL     1      33.702 -11.225 -23.382  0.00  0.00    +0.094 C 
ATOM      8  C   UNL     1      34.267 -12.450 -22.634  0.00  0.00    +0.112 C 
ATOM      9  C   UNL     1      31.392 -12.065 -22.938  0.00  0.00    +0.113 C 
ATOM     10  C   UNL     1      31.961 -13.249 -22.161  0.00  0.00    +0.114 C 
ATOM     11  C   UNL     1      33.729 -11.430 -24.899  0.00  0.00    +0.023 C 
ATOM     12  C   UNL     1      33.773 -14.875 -22.472  0.00  0.00    +0.149 A 
ATOM     13  C   UNL     1      31.910  -9.651 -22.629  0.00  0.00    +0.129 C 
ATOM     14  C   UNL     1      33.537 -15.797 -23.472  0.00  0.00    +0.009 A 
ATOM     15  C   UNL     1      34.000 -17.087 -23.284  0.00  0.00    -0.007 A 
ATOM     16  C   UNL     1      32.790  -8.791 -22.008  0.00  0.00    +0.185 C 
ATOM     17  C   UNL     1      34.668 -17.371 -22.109  0.00  0.00    +0.081 A 
ATOM     18  C   UNL     1      32.807 -15.426 -24.720  0.00  0.00    +0.034 C 
ATOM     19  C   UNL     1      31.205  -7.143 -22.042  0.00  0.00    +0.080 C 
ATOM     20  C   UNL     1      30.325  -8.002 -22.661  0.00  0.00    +0.169 C 
ATOM     21  C   UNL     1      33.785 -18.141 -24.319  0.00  0.00    +0.032 C 
ENDROOT
BRANCH  19  22
ATOM     22  C   UNL     1      30.799  -5.747 -21.720  0.00  0.00    +0.121 C 
ATOM     23  C   UNL     1      31.719  -4.698 -22.391  0.00  0.00    +0.035 C 
ATOM     24  C   UNL     1      30.758  -5.485 -20.195  0.00  0.00    +0.035 C 
BRANCH  22  25
ATOM     25  O   UNL     1      29.466  -5.453 -22.198  0.00  0.00    -0.381 OA
ATOM     26  H   UNL     1      28.833  -5.541 -21.470  0.00  0.00    +0.211 HD
ENDBRANCH  22  25
ENDBRANCH  19  22
BRANCH  17  27
ATOM     27  C   UNL     1      35.196 -18.738 -21.837  0.00  0.00    +0.074 C 
BRANCH  27  28
ATOM     28  C   UNL     1      34.342 -19.549 -20.883  0.00  0.00    -0.016 C 
ATOM     29  C   UNL     1      32.952 -19.438 -20.925  0.00  0.00    -0.004 C 
ATOM     30  C   UNL     1      34.945 -20.407 -19.964  0.00  0.00    -0.004 C 
ATOM     31  C   UNL     1      32.165 -20.184 -20.048  0.00  0.00    -0.000 C 
ATOM     32  C   UNL     1      34.160 -21.154 -19.087  0.00  0.00    -0.000 C 
ATOM     33  C   UNL     1      32.769 -21.043 -19.129  0.00  0.00    -0.000 C 
ENDBRANCH  27  28
ENDBRANCH  17  27
TORSDOF 4
ENDMDL
MODEL 2
REMARK VINA RESULT:      -8.1      3.211     11.359
REMARK  Name = 45100669
REMARK  4 active torsions:
REMARK  status: ('A' for Active; 'I' for Inactive)
REMARK    1  A    between atoms: C_17  and  C_27
REMARK    2  A    between atoms: C_19  and  C_22
REMARK    3  A    between atoms: C_22  and  O_25
REMARK    4  A    between atoms: C_27  and  C_28
REMARK                            x       y       z     vdW  Elec       q    Type
REMARK                         _______ _______ _______ _____ _____    ______ ____
ROOT
ATOM      1  N   UNL     1      32.886 -12.441 -22.570  0.00  0.00    -0.294 N 
ATOM      2  N   UNL     1      32.555  -9.656 -22.696  0.00  0.00    -0.289 N 
ATOM      3  N   UNL     1      33.241  -7.509 -21.999  0.00  0.00    -0.134 NA
ATOM      4  N   UNL     1      33.567 -14.563 -23.374  0.00  0.00    -0.252 NA
ATOM      5  N   UNL     1      33.139  -6.154 -22.059  0.00  0.00    -0.151 NA
ATOM      6  N   UNL     1      34.282 -15.256 -20.752  0.00  0.00    -0.267 NA
ATOM      7  C   UNL     1      31.943 -11.814 -21.629  0.00  0.00    +0.094 C 
ATOM      8  C   UNL     1      32.333 -10.338 -21.416  0.00  0.00    +0.112 C 
ATOM      9  C   UNL     1      33.083 -11.756 -23.851  0.00  0.00    +0.113 C 
ATOM     10  C   UNL     1      33.503 -10.309 -23.608  0.00  0.00    +0.114 C 
ATOM     11  C   UNL     1      30.499 -11.951 -22.120  0.00  0.00    +0.023 C 
ATOM     12  C   UNL     1      32.434  -8.264 -22.773  0.00  0.00    +0.149 A 
ATOM     13  C   UNL     1      33.413 -13.708 -22.343  0.00  0.00    +0.129 C 
ATOM     14  C   UNL     1      31.499  -7.725 -23.632  0.00  0.00    +0.009 A 
ATOM     15  C   UNL     1      31.395  -6.346 -23.693  0.00  0.00    -0.007 A 
ATOM     16  C   UNL     1      33.765 -14.049 -21.055  0.00  0.00    +0.185 C 
ATOM     17  C   UNL     1      32.233  -5.598 -22.891  0.00  0.00    +0.081 A 
ATOM     18  C   UNL     1      30.621  -8.591 -24.475  0.00  0.00    +0.034 C 
ATOM     19  C   UNL     1      34.435 -16.111 -21.783  0.00  0.00    +0.080 C 
ATOM     20  C   UNL     1      34.084 -15.771 -23.070  0.00  0.00    +0.169 C 
ATOM     21  C   UNL     1      30.407  -5.688 -24.599  0.00  0.00    +0.032 C 
ENDROOT
BRANCH  19  22
ATOM     22  C   UNL     1      35.004 -17.454 -21.485  0.00  0.00    +0.121 C 
ATOM     23  C   UNL     1      36.052 -17.894 -22.537  0.00  0.00    +0.035 C 
ATOM     24  C   UNL     1      33.910 -18.543 -21.371  0.00  0.00    +0.035 C 
BRANCH  22  25
ATOM     25  O   UNL     1      35.700 -17.472 -20.217  0.00  0.00    -0.381 OA
ATOM     26  H   UNL     1      35.190 -16.974 -19.560  0.00  0.00    +0.211 HD
ENDBRANCH  22  25
ENDBRANCH  19  22
BRANCH  17  27
ATOM     27  C   UNL     1      32.179  -4.108 -22.902  0.00  0.00    +0.074 C 
BRANCH  27  28
ATOM     28  C   UNL     1      32.665  -3.484 -24.194  0.00  0.00    -0.016 C 
ATOM     29  C   UNL     1      33.756  -4.035 -24.868  0.00  0.00    -0.004 C 
ATOM     30  C   UNL     1      32.022  -2.359 -24.711  0.00  0.00    -0.004 C 
ATOM     31  C   UNL     1      34.203  -3.461 -26.058  0.00  0.00    -0.000 C 
ATOM     32  C   UNL     1      32.468  -1.786 -25.901  0.00  0.00    -0.000 C 
ATOM     33  C   UNL     1      33.560  -2.336 -26.574  0.00  0.00    -0.000 C 
ENDBRANCH  27  28
ENDBRANCH  17  27
TORSDOF 4
ENDMDL
MODEL 3
REMARK VINA RESULT:      -8.0      1.816      3.052
REMARK  Name = 45100669
REMARK  4 active torsions:
REMARK  status: ('A' for Active; 'I' for Inactive)
REMARK    1  A    between atoms: C_17  and  C_27
REMARK    2  A    between atoms: C_19  and  C_22
REMARK    3  A    between atoms: C_22  and  O_25
REMARK    4  A    between atoms: C_27  and  C_28
REMARK                            x       y       z     vdW  Elec       q    Type
REMARK                         _______ _______ _______ _____ _____    ______ ____
ROOT
ATOM      1  N   UNL     1      32.338  -9.293 -22.878  0.00  0.00    -0.294 N 
ATOM      2  N   UNL     1      32.887 -12.038 -23.099  0.00  0.00    -0.289 N 
ATOM      3  N   UNL     1      32.957 -13.980 -24.437  0.00  0.00    -0.134 NA
ATOM      4  N   UNL     1      32.895  -6.998 -22.708  0.00  0.00    -0.252 NA
ATOM      5  N   UNL     1      33.246 -15.300 -24.598  0.00  0.00    -0.151 NA
ATOM      6  N   UNL     1      30.668  -6.404 -24.307  0.00  0.00    -0.267 NA
ATOM      7  C   UNL     1      31.254 -10.242 -22.571  0.00  0.00    +0.094 C 
ATOM      8  C   UNL     1      31.511 -11.573 -23.305  0.00  0.00    +0.112 C 
ATOM      9  C   UNL     1      33.706  -9.769 -22.651  0.00  0.00    +0.113 C 
ATOM     10  C   UNL     1      33.941 -11.066 -23.418  0.00  0.00    +0.114 C 
ATOM     11  C   UNL     1      31.114 -10.450 -21.060  0.00  0.00    +0.023 C 
ATOM     12  C   UNL     1      33.191 -13.396 -23.244  0.00  0.00    +0.149 A 
ATOM     13  C   UNL     1      32.080  -7.961 -23.181  0.00  0.00    +0.129 C 
ATOM     14  C   UNL     1      33.715 -14.078 -22.164  0.00  0.00    +0.009 A 
ATOM     15  C   UNL     1      34.008 -15.421 -22.327  0.00  0.00    -0.007 A 
ATOM     16  C   UNL     1      30.986  -7.669 -23.967  0.00  0.00    +0.185 C 
ATOM     17  C   UNL     1      33.759 -15.992 -23.559  0.00  0.00    +0.081 A 
ATOM     18  C   UNL     1      33.961 -13.400 -20.857  0.00  0.00    +0.034 C 
ATOM     19  C   UNL     1      31.483  -5.441 -23.832  0.00  0.00    +0.080 C 
ATOM     20  C   UNL     1      32.576  -5.732 -23.047  0.00  0.00    +0.169 C 
ATOM     21  C   UNL     1      34.577 -16.226 -21.206  0.00  0.00    +0.032 C 
ENDROOT
BRANCH  19  22
ATOM     22  C   UNL     1      31.162  -4.030 -24.187  0.00  0.00    +0.121 C 
ATOM     23  C   UNL     1      31.716  -3.635 -25.578  0.00  0.00    +0.035 C 
ATOM     24  C   UNL     1      31.680  -3.027 -23.129  0.00  0.00    +0.035 C 
BRANCH  22  25
ATOM     25  O   UNL     1      29.734  -3.809 -24.264  0.00  0.00    -0.381 OA
ATOM     26  H   UNL     1      29.368  -4.311 -25.007  0.00  0.00    +0.211 HD
ENDBRANCH  22  25
ENDBRANCH  19  22
BRANCH  17  27
ATOM     27  C   UNL     1      34.049 -17.433 -23.810  0.00  0.00    +0.074 C 
BRANCH  27  28
ATOM     28  C   UNL     1      34.632 -18.161 -22.615  0.00  0.00    -0.016 C 
ATOM     29  C   UNL     1      33.816 -18.968 -21.823  0.00  0.00    -0.004 C 
ATOM     30  C   UNL     1      35.986 -18.023 -22.307  0.00  0.00    -0.004 C 
ATOM     31  C   UNL     1      34.352 -19.638 -20.724  0.00  0.00    -0.000 C 
ATOM     32  C   UNL     1      36.523 -18.692 -21.208  0.00  0.00    -0.000 C 
ATOM     33  C   UNL     1      35.706 -19.500 -20.416  0.00  0.00    -0.000 C 
ENDBRANCH  27  28
ENDBRANCH  17  27
TORSDOF 4
ENDMDL
MODEL 4
REMARK VINA RESULT:      -7.3      3.173     11.134
REMARK  Name = 45100669
REMARK  4 active torsions:
REMARK  status: ('A' for Active; 'I' for Inactive)
REMARK    1  A    between atoms: C_17  and  C_27
REMARK    2  A    between atoms: C_19  and  C_22
REMARK    3  A    between atoms: C_22  and  O_25
REMARK    4  A    between atoms: C_27  and  C_28
REMARK                            x       y       z     vdW  Elec       q    Type
REMARK                         _______ _______ _______ _____ _____    ______ ____
ROOT
ATOM      1  N   UNL     1      33.080 -12.813 -22.874  0.00  0.00    -0.294 N 
ATOM      2  N   UNL     1      32.984 -10.018 -23.120  0.00  0.00    -0.289 N 
ATOM      3  N   UNL     1      33.979  -7.920 -22.701  0.00  0.00    -0.134 NA
ATOM      4  N   UNL     1      33.404 -15.028 -23.648  0.00  0.00    -0.252 NA
ATOM      5  N   UNL     1      33.990  -6.566 -22.831  0.00  0.00    -0.151 NA
ATOM      6  N   UNL     1      34.532 -15.664 -21.160  0.00  0.00    -0.267 NA
ATOM      7  C   UNL     1      32.391 -12.050 -21.821  0.00  0.00    +0.094 C 
ATOM      8  C   UNL     1      32.944 -10.612 -21.779  0.00  0.00    +0.112 C 
ATOM      9  C   UNL     1      33.095 -12.213 -24.212  0.00  0.00    +0.113 C 
ATOM     10  C   UNL     1      33.681 -10.806 -24.145  0.00  0.00    +0.114 C 
ATOM     11  C   UNL     1      30.874 -12.064 -22.031  0.00  0.00    +0.023 C 
ATOM     12  C   UNL     1      32.976  -8.626 -23.264  0.00  0.00    +0.149 A 
ATOM     13  C   UNL     1      33.524 -14.115 -22.665  0.00  0.00    +0.129 C 
ATOM     14  C   UNL     1      31.949  -8.037 -23.974  0.00  0.00    +0.009 A 
ATOM     15  C   UNL     1      31.961  -6.659 -24.104  0.00  0.00    -0.007 A 
ATOM     16  C   UNL     1      34.078 -14.427 -21.443  0.00  0.00    +0.185 C 
ATOM     17  C   UNL     1      32.998  -5.962 -23.518  0.00  0.00    +0.081 A 
ATOM     18  C   UNL     1      30.856  -8.849 -24.584  0.00  0.00    +0.034 C 
ATOM     19  C   UNL     1      34.412 -16.578 -22.144  0.00  0.00    +0.080 C 
ATOM     20  C   UNL     1      33.859 -16.266 -23.365  0.00  0.00    +0.169 C 
ATOM     21  C   UNL     1      30.885  -5.949 -24.857  0.00  0.00    +0.032 C 
ENDROOT
BRANCH  19  22
ATOM     22  C   UNL     1      34.904 -17.957 -21.867  0.00  0.00    +0.121 C 
ATOM     23  C   UNL     1      36.445 -18.015 -21.736  0.00  0.00    +0.035 C 
ATOM     24  C   UNL     1      34.446 -18.970 -22.944  0.00  0.00    +0.035 C 
BRANCH  22  25
ATOM     25  O   UNL     1      34.391 -18.466 -20.614  0.00  0.00    -0.381 OA
ATOM     26  H   UNL     1      34.389 -17.758 -19.952  0.00  0.00    +0.211 HD
ENDBRANCH  22  25
ENDBRANCH  19  22
BRANCH  17  27
ATOM     27  C   UNL     1      33.077  -4.476 -23.617  0.00  0.00    +0.074 C 
BRANCH  27  28
ATOM     28  C   UNL     1      31.908  -3.754 -22.978  0.00  0.00    -0.016 C 
ATOM     29  C   UNL     1      31.484  -2.526 -23.487  0.00  0.00    -0.004 C 
ATOM     30  C   UNL     1      31.256  -4.317 -21.881  0.00  0.00    -0.004 C 
ATOM     31  C   UNL     1      30.408  -1.862 -22.900  0.00  0.00    -0.000 C 
ATOM     32  C   UNL     1      30.180  -3.653 -21.294  0.00  0.00    -0.000 C 
ATOM     33  C   UNL     1      29.756  -2.424 -21.803  0.00  0.00    -0.000 C 
ENDBRANCH  27  28
ENDBRANCH  17  27
TORSDOF 4
ENDMDL
