MODEL 1
REMARK VINA RESULT:     -10.4      0.000      0.000
REMARK  Name = 5311501
REMARK  4 active torsions:
REMARK  status: ('A' for Active; 'I' for Inactive)
REMARK    1  A    between atoms: C_3  and  C_26
REMARK    2  A    between atoms: C_8  and  C_15
REMARK    3  A    between atoms: C_15  and  C_16
REMARK    4  A    between atoms: C_26  and  N_28
REMARK                            x       y       z     vdW  Elec       q    Type
REMARK                         _______ _______ _______ _____ _____    ______ ____
ROOT
ATOM      1  O   UNL     1      32.284 -22.433 -18.593  0.00  0.00    -0.472 OA
ATOM      2  N   UNL     1      34.860 -21.998 -17.395  0.00  0.00    -0.328 N 
ATOM      3  C   UNL     1      34.720 -21.749 -18.825  0.00  0.00    +0.108 C 
ATOM      4  C   UNL     1      33.752 -22.394 -16.703  0.00  0.00    +0.094 A 
ATOM      5  C   UNL     1      33.518 -22.587 -19.350  0.00  0.00    +0.226 C 
ATOM      6  C   UNL     1      35.930 -21.901 -16.564  0.00  0.00    +0.041 A 
ATOM      7  C   UNL     1      34.088 -22.524 -15.371  0.00  0.00    +0.023 A 
ATOM      8  C   UNL     1      35.480 -22.219 -15.291  0.00  0.00    +0.052 A 
ATOM      9  C   UNL     1      32.496 -22.611 -17.246  0.00  0.00    +0.154 C 
ATOM     10  C   UNL     1      37.272 -21.509 -17.039  0.00  0.00    +0.050 C 
ATOM     11  C   UNL     1      33.062 -22.895 -14.482  0.00  0.00    +0.002 C 
ATOM     12  C   UNL     1      31.479 -22.950 -16.361  0.00  0.00    +0.038 C 
ATOM     13  C   UNL     1      31.764 -23.097 -14.995  0.00  0.00    +0.003 C 
ENDROOT
BRANCH   8  15
ATOM     14  O   UNL     1      36.795 -21.191 -13.620  0.00  0.00    -0.287 OA
ATOM     15  C   UNL     1      36.308 -22.222 -14.117  0.00  0.00    +0.197 C 
BRANCH  15  16
ATOM     16  C   UNL     1      36.650 -23.498 -13.418  0.00  0.00    +0.039 C 
ATOM     17  C   UNL     1      37.783 -24.222 -13.756  0.00  0.00    +0.003 C 
ATOM     18  C   UNL     1      35.768 -23.892 -12.432  0.00  0.00    +0.003 C 
ATOM     19  C   UNL     1      38.041 -25.422 -13.051  0.00  0.00    +0.000 C 
ATOM     20  C   UNL     1      38.673 -23.810 -14.761  0.00  0.00    +0.000 C 
ATOM     21  C   UNL     1      36.022 -25.073 -11.739  0.00  0.00    +0.000 C 
ATOM     22  C   UNL     1      37.152 -25.832 -12.046  0.00  0.00    +0.000 C 
ATOM     23  C   UNL     1      39.182 -26.174 -13.372  0.00  0.00    +0.000 C 
ATOM     24  C   UNL     1      39.802 -24.571 -15.068  0.00  0.00    +0.000 C 
ATOM     25  C   UNL     1      40.057 -25.750 -14.375  0.00  0.00    +0.000 C 
ENDBRANCH  15  16
ENDBRANCH   8  15
BRANCH   3  26
ATOM     26  C   UNL     1      34.519 -20.259 -19.094  0.00  0.00    -0.050 C 
BRANCH  26  28
ATOM     27  O   UNL     1      35.505 -18.027 -22.509  0.00  0.00    -0.358 OA
ATOM     28  N   UNL     1      35.014 -19.898 -20.422  0.00  0.00    +0.392 N 
ATOM     29  C   UNL     1      36.091 -18.904 -20.324  0.00  0.00    -0.045 C 
ATOM     30  C   UNL     1      33.925 -19.380 -21.262  0.00  0.00    -0.045 C 
ATOM     31  C   UNL     1      36.582 -18.534 -21.720  0.00  0.00    +0.119 C 
ATOM     32  C   UNL     1      34.468 -19.001 -22.636  0.00  0.00    +0.119 C 
ATOM     33  H   UNL     1      35.388 -20.743 -20.855  0.00  0.00    -0.079 HD
ENDBRANCH  26  28
ENDBRANCH   3  26
TORSDOF 4
ENDMDL
MODEL 2
REMARK VINA RESULT:     -10.1      2.144      7.620
REMARK  Name = 5311501
REMARK  4 active torsions:
REMARK  status: ('A' for Active; 'I' for Inactive)
REMARK    1  A    between atoms: C_3  and  C_26
REMARK    2  A    between atoms: C_8  and  C_15
REMARK    3  A    between atoms: C_15  and  C_16
REMARK    4  A    between atoms: C_26  and  N_28
REMARK                            x       y       z     vdW  Elec       q    Type
REMARK                         _______ _______ _______ _____ _____    ______ ____
ROOT
ATOM      1  O   UNL     1      32.566 -23.719 -13.333  0.00  0.00    -0.472 OA
ATOM      2  N   UNL     1      34.768 -22.890 -14.984  0.00  0.00    -0.328 N 
ATOM      3  C   UNL     1      35.063 -23.366 -13.638  0.00  0.00    +0.108 C 
ATOM      4  C   UNL     1      33.465 -22.895 -15.392  0.00  0.00    +0.094 A 
ATOM      5  C   UNL     1      33.790 -23.176 -12.763  0.00  0.00    +0.226 C 
ATOM      6  C   UNL     1      35.573 -22.425 -15.973  0.00  0.00    +0.041 A 
ATOM      7  C   UNL     1      33.412 -22.459 -16.701  0.00  0.00    +0.023 A 
ATOM      8  C   UNL     1      34.759 -22.150 -17.061  0.00  0.00    +0.052 A 
ATOM      9  C   UNL     1      32.380 -23.289 -14.626  0.00  0.00    +0.154 C 
ATOM     10  C   UNL     1      37.035 -22.291 -15.808  0.00  0.00    +0.050 C 
ATOM     11  C   UNL     1      32.147 -22.425 -17.317  0.00  0.00    +0.002 C 
ATOM     12  C   UNL     1      31.136 -23.282 -15.247  0.00  0.00    +0.038 C 
ATOM     13  C   UNL     1      31.024 -22.846 -16.576  0.00  0.00    +0.003 C 
ENDROOT
BRANCH   8  15
ATOM     14  O   UNL     1      36.402 -21.786 -18.717  0.00  0.00    -0.287 OA
ATOM     15  C   UNL     1      35.231 -21.648 -18.321  0.00  0.00    +0.197 C 
BRANCH  15  16
ATOM     16  C   UNL     1      34.322 -20.900 -19.242  0.00  0.00    +0.039 C 
ATOM     17  C   UNL     1      34.807 -19.916 -20.089  0.00  0.00    +0.003 C 
ATOM     18  C   UNL     1      32.990 -21.258 -19.184  0.00  0.00    +0.003 C 
ATOM     19  C   UNL     1      33.886 -19.251 -20.933  0.00  0.00    +0.000 C 
ATOM     20  C   UNL     1      36.165 -19.561 -20.139  0.00  0.00    +0.000 C 
ATOM     21  C   UNL     1      32.085 -20.603 -20.014  0.00  0.00    +0.000 C 
ATOM     22  C   UNL     1      32.530 -19.606 -20.884  0.00  0.00    +0.000 C 
ATOM     23  C   UNL     1      34.351 -18.250 -21.802  0.00  0.00    +0.000 C 
ATOM     24  C   UNL     1      36.609 -18.564 -21.008  0.00  0.00    +0.000 C 
ATOM     25  C   UNL     1      35.704 -17.910 -21.838  0.00  0.00    +0.000 C 
ENDBRANCH  15  16
ENDBRANCH   8  15
BRANCH   3  26
ATOM     26  C   UNL     1      35.504 -24.829 -13.669  0.00  0.00    -0.050 C 
BRANCH  26  28
ATOM     27  O   UNL     1      39.652 -24.231 -13.459  0.00  0.00    -0.358 OA
ATOM     28  N   UNL     1      36.907 -24.958 -13.280  0.00  0.00    +0.392 N 
ATOM     29  C   UNL     1      37.407 -23.701 -12.707  0.00  0.00    -0.045 C 
ATOM     30  C   UNL     1      37.733 -25.352 -14.431  0.00  0.00    -0.045 C 
ATOM     31  C   UNL     1      38.875 -23.857 -12.321  0.00  0.00    +0.119 C 
ATOM     32  C   UNL     1      39.192 -25.469 -14.002  0.00  0.00    +0.119 C 
ATOM     33  H   UNL     1      36.968 -25.688 -12.570  0.00  0.00    -0.079 HD
ENDBRANCH  26  28
ENDBRANCH   3  26
TORSDOF 4
ENDMDL
MODEL 3
REMARK VINA RESULT:      -9.8     10.409     15.177
REMARK  Name = 5311501
REMARK  4 active torsions:
REMARK  status: ('A' for Active; 'I' for Inactive)
REMARK    1  A    between atoms: C_3  and  C_26
REMARK    2  A    between atoms: C_8  and  C_15
REMARK    3  A    between atoms: C_15  and  C_16
REMARK    4  A    between atoms: C_26  and  N_28
REMARK                            x       y       z     vdW  Elec       q    Type
REMARK                         _______ _______ _______ _____ _____    ______ ____
ROOT
ATOM      1  O   UNL     1      33.409  -6.151 -22.314  0.00  0.00    -0.472 OA
ATOM      2  N   UNL     1      31.967  -8.627 -22.086  0.00  0.00    -0.328 N 
ATOM      3  C   UNL     1      31.423  -7.454 -21.414  0.00  0.00    +0.108 C 
ATOM      4  C   UNL     1      33.114  -8.474 -22.812  0.00  0.00    +0.094 A 
ATOM      5  C   UNL     1      32.589  -6.457 -21.151  0.00  0.00    +0.226 C 
ATOM      6  C   UNL     1      31.534  -9.912 -22.150  0.00  0.00    +0.041 A 
ATOM      7  C   UNL     1      33.427  -9.681 -23.403  0.00  0.00    +0.023 A 
ATOM      8  C   UNL     1      32.421 -10.596 -22.967  0.00  0.00    +0.052 A 
ATOM      9  C   UNL     1      33.833  -7.297 -22.945  0.00  0.00    +0.154 C 
ATOM     10  C   UNL     1      30.323 -10.378 -21.444  0.00  0.00    +0.050 C 
ATOM     11  C   UNL     1      34.567  -9.718 -24.226  0.00  0.00    +0.002 C 
ATOM     12  C   UNL     1      34.943  -7.330 -23.782  0.00  0.00    +0.038 C 
ATOM     13  C   UNL     1      35.308  -8.531 -24.407  0.00  0.00    +0.003 C 
ENDROOT
BRANCH   8  15
ATOM     14  O   UNL     1      31.684 -12.407 -24.292  0.00  0.00    -0.287 OA
ATOM     15  C   UNL     1      32.307 -11.989 -23.300  0.00  0.00    +0.197 C 
BRANCH  15  16
ATOM     16  C   UNL     1      32.935 -13.040 -22.442  0.00  0.00    +0.039 C 
ATOM     17  C   UNL     1      33.396 -14.230 -22.984  0.00  0.00    +0.003 C 
ATOM     18  C   UNL     1      33.019 -12.740 -21.097  0.00  0.00    +0.003 C 
ATOM     19  C   UNL     1      33.979 -15.178 -22.109  0.00  0.00    +0.000 C 
ATOM     20  C   UNL     1      33.306 -14.524 -24.354  0.00  0.00    +0.000 C 
ATOM     21  C   UNL     1      33.593 -13.672 -20.237  0.00  0.00    +0.000 C 
ATOM     22  C   UNL     1      34.070 -14.883 -20.740  0.00  0.00    +0.000 C 
ATOM     23  C   UNL     1      34.455 -16.392 -22.631  0.00  0.00    +0.000 C 
ATOM     24  C   UNL     1      33.783 -15.736 -24.855  0.00  0.00    +0.000 C 
ATOM     25  C   UNL     1      34.356 -16.667 -23.996  0.00  0.00    +0.000 C 
ENDBRANCH  15  16
ENDBRANCH   8  15
BRANCH   3  26
ATOM     26  C   UNL     1      30.321  -6.813 -22.256  0.00  0.00    -0.050 C 
BRANCH  26  28
ATOM     27  O   UNL     1      30.065  -2.882 -23.703  0.00  0.00    -0.358 OA
ATOM     28  N   UNL     1      30.675  -5.442 -22.621  0.00  0.00    +0.392 N 
ATOM     29  C   UNL     1      29.843  -4.477 -21.888  0.00  0.00    -0.045 C 
ATOM     30  C   UNL     1      30.532  -5.234 -24.069  0.00  0.00    -0.045 C 
ATOM     31  C   UNL     1      30.221  -3.056 -22.294  0.00  0.00    +0.119 C 
ATOM     32  C   UNL     1      30.895  -3.795 -24.422  0.00  0.00    +0.119 C 
ATOM     33  H   UNL     1      31.651  -5.293 -22.364  0.00  0.00    -0.079 HD
ENDBRANCH  26  28
ENDBRANCH   3  26
TORSDOF 4
ENDMDL
MODEL 4
REMARK VINA RESULT:      -9.7      8.049     12.182
REMARK  Name = 5311501
REMARK  4 active torsions:
REMARK  status: ('A' for Active; 'I' for Inactive)
REMARK    1  A    between atoms: C_3  and  C_26
REMARK    2  A    between atoms: C_8  and  C_15
REMARK    3  A    between atoms: C_15  and  C_16
REMARK    4  A    between atoms: C_26  and  N_28
REMARK                            x       y       z     vdW  Elec       q    Type
REMARK                         _______ _______ _______ _____ _____    ______ ____
ROOT
ATOM      1  O   UNL     1      31.300 -11.128 -20.751  0.00  0.00    -0.472 OA
ATOM      2  N   UNL     1      32.300 -12.195 -23.225  0.00  0.00    -0.328 N 
ATOM      3  C   UNL     1      31.598 -10.918 -23.265  0.00  0.00    +0.108 C 
ATOM      4  C   UNL     1      32.468 -12.795 -22.011  0.00  0.00    +0.094 A 
ATOM      5  C   UNL     1      30.660 -10.838 -22.026  0.00  0.00    +0.226 C 
ATOM      6  C   UNL     1      32.860 -12.947 -24.207  0.00  0.00    +0.041 A 
ATOM      7  C   UNL     1      33.193 -13.955 -22.188  0.00  0.00    +0.023 A 
ATOM      8  C   UNL     1      33.431 -14.052 -23.593  0.00  0.00    +0.052 A 
ATOM      9  C   UNL     1      32.002 -12.309 -20.799  0.00  0.00    +0.154 C 
ATOM     10  C   UNL     1      32.817 -12.554 -25.631  0.00  0.00    +0.050 C 
ATOM     11  C   UNL     1      33.501 -14.705 -21.038  0.00  0.00    +0.002 C 
ATOM     12  C   UNL     1      32.332 -13.037 -19.662  0.00  0.00    +0.038 C 
ATOM     13  C   UNL     1      33.067 -14.225 -19.784  0.00  0.00    +0.003 C 
ENDROOT
BRANCH   8  15
ATOM     14  O   UNL     1      35.093 -14.874 -25.055  0.00  0.00    -0.287 OA
ATOM     15  C   UNL     1      34.138 -15.091 -24.289  0.00  0.00    +0.197 C 
BRANCH  15  16
ATOM     16  C   UNL     1      33.745 -16.525 -24.137  0.00  0.00    +0.039 C 
ATOM     17  C   UNL     1      34.320 -17.329 -23.164  0.00  0.00    +0.003 C 
ATOM     18  C   UNL     1      32.786 -16.977 -25.021  0.00  0.00    +0.003 C 
ATOM     19  C   UNL     1      33.897 -18.677 -23.080  0.00  0.00    +0.000 C 
ATOM     20  C   UNL     1      35.294 -16.857 -22.269  0.00  0.00    +0.000 C 
ATOM     21  C   UNL     1      32.372 -18.303 -24.938  0.00  0.00    +0.000 C 
ATOM     22  C   UNL     1      32.923 -19.148 -23.973  0.00  0.00    +0.000 C 
ATOM     23  C   UNL     1      34.462 -19.514 -22.104  0.00  0.00    +0.000 C 
ATOM     24  C   UNL     1      35.845 -17.702 -21.306  0.00  0.00    +0.000 C 
ATOM     25  C   UNL     1      35.430 -19.028 -21.223  0.00  0.00    +0.000 C 
ENDBRANCH  15  16
ENDBRANCH   8  15
BRANCH   3  26
ATOM     26  C   UNL     1      32.593  -9.758 -23.286  0.00  0.00    -0.050 C 
BRANCH  26  28
ATOM     27  O   UNL     1      31.554  -5.720 -22.813  0.00  0.00    -0.358 OA
ATOM     28  N   UNL     1      31.976  -8.534 -22.779  0.00  0.00    +0.392 N 
ATOM     29  C   UNL     1      31.159  -7.893 -23.818  0.00  0.00    -0.045 C 
ATOM     30  C   UNL     1      32.999  -7.597 -22.293  0.00  0.00    -0.045 C 
ATOM     31  C   UNL     1      30.536  -6.612 -23.269  0.00  0.00    +0.119 C 
ATOM     32  C   UNL     1      32.332  -6.325 -21.780  0.00  0.00    +0.119 C 
ATOM     33  H   UNL     1      31.371  -8.790 -21.998  0.00  0.00    -0.079 HD
ENDBRANCH  26  28
ENDBRANCH   3  26
TORSDOF 4
ENDMDL
MODEL 5
REMARK VINA RESULT:      -9.3      6.062     10.552
REMARK  Name = 5311501
REMARK  4 active torsions:
REMARK  status: ('A' for Active; 'I' for Inactive)
REMARK    1  A    between atoms: C_3  and  C_26
REMARK    2  A    between atoms: C_8  and  C_15
REMARK    3  A    between atoms: C_15  and  C_16
REMARK    4  A    between atoms: C_26  and  N_28
REMARK                            x       y       z     vdW  Elec       q    Type
REMARK                         _______ _______ _______ _____ _____    ______ ____
ROOT
ATOM      1  O   UNL     1      33.206 -11.536 -23.409  0.00  0.00    -0.472 OA
ATOM      2  N   UNL     1      33.712 -14.050 -22.111  0.00  0.00    -0.328 N 
ATOM      3  C   UNL     1      33.673 -12.849 -21.285  0.00  0.00    +0.108 C 
ATOM      4  C   UNL     1      33.475 -13.914 -23.449  0.00  0.00    +0.094 A 
ATOM      5  C   UNL     1      33.996 -11.624 -22.190  0.00  0.00    +0.226 C 
ATOM      6  C   UNL     1      33.940 -15.352 -21.800  0.00  0.00    +0.041 A 
ATOM      7  C   UNL     1      33.507 -15.165 -24.032  0.00  0.00    +0.023 A 
ATOM      8  C   UNL     1      33.815 -16.076 -22.976  0.00  0.00    +0.052 A 
ATOM      9  C   UNL     1      33.226 -12.721 -24.107  0.00  0.00    +0.154 C 
ATOM     10  C   UNL     1      34.243 -15.798 -20.424  0.00  0.00    +0.050 C 
ATOM     11  C   UNL     1      33.250 -15.238 -25.413  0.00  0.00    +0.002 C 
ATOM     12  C   UNL     1      32.944 -12.800 -25.466  0.00  0.00    +0.038 C 
ATOM     13  C   UNL     1      32.965 -14.046 -26.111  0.00  0.00    +0.003 C 
ENDROOT
BRANCH   8  15
ATOM     14  O   UNL     1      33.432 -18.191 -23.954  0.00  0.00    -0.287 OA
ATOM     15  C   UNL     1      33.971 -17.500 -23.071  0.00  0.00    +0.197 C 
BRANCH  15  16
ATOM     16  C   UNL     1      34.800 -18.253 -22.080  0.00  0.00    +0.039 C 
ATOM     17  C   UNL     1      34.224 -19.152 -21.197  0.00  0.00    +0.003 C 
ATOM     18  C   UNL     1      36.154 -17.987 -22.113  0.00  0.00    +0.003 C 
ATOM     19  C   UNL     1      35.073 -19.828 -20.287  0.00  0.00    +0.000 C 
ATOM     20  C   UNL     1      32.845 -19.414 -21.174  0.00  0.00    +0.000 C 
ATOM     21  C   UNL     1      36.988 -18.652 -21.218  0.00  0.00    +0.000 C 
ATOM     22  C   UNL     1      36.451 -19.566 -20.311  0.00  0.00    +0.000 C 
ATOM     23  C   UNL     1      34.516 -20.745 -19.381  0.00  0.00    +0.000 C 
ATOM     24  C   UNL     1      32.309 -20.328 -20.266  0.00  0.00    +0.000 C 
ATOM     25  C   UNL     1      33.142 -20.993 -19.372  0.00  0.00    +0.000 C 
ENDBRANCH  15  16
ENDBRANCH   8  15
BRANCH   3  26
ATOM     26  C   UNL     1      32.308 -12.702 -20.614  0.00  0.00    -0.050 C 
BRANCH  26  28
ATOM     27  O   UNL     1      30.009  -9.243 -20.019  0.00  0.00    -0.358 OA
ATOM     28  N   UNL     1      31.866 -11.309 -20.633  0.00  0.00    +0.392 N 
ATOM     29  C   UNL     1      31.720 -10.790 -19.266  0.00  0.00    -0.045 C 
ATOM     30  C   UNL     1      30.598 -11.174 -21.363  0.00  0.00    -0.045 C 
ATOM     31  C   UNL     1      31.246  -9.340 -19.312  0.00  0.00    +0.119 C 
ATOM     32  C   UNL     1      30.152  -9.715 -21.359  0.00  0.00    +0.119 C 
ATOM     33  H   UNL     1      32.580 -10.761 -21.115  0.00  0.00    -0.079 HD
ENDBRANCH  26  28
ENDBRANCH   3  26
TORSDOF 4
ENDMDL
MODEL 6
REMARK VINA RESULT:      -9.1      2.709      7.648
REMARK  Name = 5311501
REMARK  4 active torsions:
REMARK  status: ('A' for Active; 'I' for Inactive)
REMARK    1  A    between atoms: C_3  and  C_26
REMARK    2  A    between atoms: C_8  and  C_15
REMARK    3  A    between atoms: C_15  and  C_16
REMARK    4  A    between atoms: C_26  and  N_28
REMARK                            x       y       z     vdW  Elec       q    Type
REMARK                         _______ _______ _______ _____ _____    ______ ____
ROOT
ATOM      1  O   UNL     1      33.800 -23.666 -12.469  0.00  0.00    -0.472 OA
ATOM      2  N   UNL     1      33.307 -23.116 -15.246  0.00  0.00    -0.328 N 
ATOM      3  C   UNL     1      32.209 -23.649 -14.448  0.00  0.00    +0.108 C 
ATOM      4  C   UNL     1      34.496 -22.880 -14.619  0.00  0.00    +0.094 A 
ATOM      5  C   UNL     1      32.813 -24.413 -13.235  0.00  0.00    +0.226 C 
ATOM      6  C   UNL     1      33.387 -22.778 -16.559  0.00  0.00    +0.041 A 
ATOM      7  C   UNL     1      35.376 -22.335 -15.533  0.00  0.00    +0.023 A 
ATOM      8  C   UNL     1      34.665 -22.283 -16.770  0.00  0.00    +0.052 A 
ATOM      9  C   UNL     1      34.769 -23.131 -13.284  0.00  0.00    +0.154 C 
ATOM     10  C   UNL     1      32.253 -22.942 -17.491  0.00  0.00    +0.050 C 
ATOM     11  C   UNL     1      36.657 -21.989 -15.065  0.00  0.00    +0.002 C 
ATOM     12  C   UNL     1      36.026 -22.761 -12.819  0.00  0.00    +0.038 C 
ATOM     13  C   UNL     1      36.960 -22.204 -13.705  0.00  0.00    +0.003 C 
ENDROOT
BRANCH   8  15
ATOM     14  O   UNL     1      36.321 -21.955 -18.421  0.00  0.00    -0.287 OA
ATOM     15  C   UNL     1      35.149 -21.803 -18.034  0.00  0.00    +0.197 C 
BRANCH  15  16
ATOM     16  C   UNL     1      34.250 -21.062 -18.972  0.00  0.00    +0.039 C 
ATOM     17  C   UNL     1      34.753 -20.116 -19.852  0.00  0.00    +0.003 C 
ATOM     18  C   UNL     1      32.911 -21.385 -18.894  0.00  0.00    +0.003 C 
ATOM     19  C   UNL     1      33.841 -19.455 -20.710  0.00  0.00    +0.000 C 
ATOM     20  C   UNL     1      36.118 -19.796 -19.923  0.00  0.00    +0.000 C 
ATOM     21  C   UNL     1      32.015 -20.735 -19.738  0.00  0.00    +0.000 C 
ATOM     22  C   UNL     1      32.477 -19.776 -20.641  0.00  0.00    +0.000 C 
ATOM     23  C   UNL     1      34.323 -18.493 -21.612  0.00  0.00    +0.000 C 
ATOM     24  C   UNL     1      36.579 -18.836 -20.825  0.00  0.00    +0.000 C 
ATOM     25  C   UNL     1      35.684 -18.186 -21.668  0.00  0.00    +0.000 C 
ENDBRANCH  15  16
ENDBRANCH   8  15
BRANCH   3  26
ATOM     26  C   UNL     1      31.280 -22.525 -13.992  0.00  0.00    -0.050 C 
BRANCH  26  28
ATOM     27  O   UNL     1      27.767 -23.471 -16.084  0.00  0.00    -0.358 OA
ATOM     28  N   UNL     1      29.886 -22.848 -14.289  0.00  0.00    +0.392 N 
ATOM     29  C   UNL     1      29.781 -24.169 -14.925  0.00  0.00    -0.045 C 
ATOM     30  C   UNL     1      29.285 -21.823 -15.154  0.00  0.00    -0.045 C 
ATOM     31  C   UNL     1      28.320 -24.479 -15.237  0.00  0.00    +0.119 C 
ATOM     32  C   UNL     1      27.836 -22.189 -15.458  0.00  0.00    +0.119 C 
ATOM     33  H   UNL     1      29.375 -22.870 -13.405  0.00  0.00    -0.079 HD
ENDBRANCH  26  28
ENDBRANCH   3  26
TORSDOF 4
ENDMDL
MODEL 7
REMARK VINA RESULT:      -8.9      0.783      2.113
REMARK  Name = 5311501
REMARK  4 active torsions:
REMARK  status: ('A' for Active; 'I' for Inactive)
REMARK    1  A    between atoms: C_3  and  C_26
REMARK    2  A    between atoms: C_8  and  C_15
REMARK    3  A    between atoms: C_15  and  C_16
REMARK    4  A    between atoms: C_26  and  N_28
REMARK                            x       y       z     vdW  Elec       q    Type
REMARK                         _______ _______ _______ _____ _____    ______ ____
ROOT
ATOM      1  O   UNL     1      31.900 -22.390 -18.565  0.00  0.00    -0.472 OA
ATOM      2  N   UNL     1      34.646 -21.936 -17.847  0.00  0.00    -0.328 N 
ATOM      3  C   UNL     1      34.256 -21.715 -19.234  0.00  0.00    +0.108 C 
ATOM      4  C   UNL     1      33.677 -22.316 -16.964  0.00  0.00    +0.094 A 
ATOM      5  C   UNL     1      32.982 -22.561 -19.524  0.00  0.00    +0.226 C 
ATOM      6  C   UNL     1      35.844 -21.825 -17.218  0.00  0.00    +0.041 A 
ATOM      7  C   UNL     1      34.242 -22.421 -15.708  0.00  0.00    +0.023 A 
ATOM      8  C   UNL     1      35.626 -22.117 -15.881  0.00  0.00    +0.052 A 
ATOM      9  C   UNL     1      32.345 -22.542 -17.273  0.00  0.00    +0.154 C 
ATOM     10  C   UNL     1      37.082 -21.445 -17.930  0.00  0.00    +0.050 C 
ATOM     11  C   UNL     1      33.388 -22.773 -14.646  0.00  0.00    +0.002 C 
ATOM     12  C   UNL     1      31.500 -22.861 -16.217  0.00  0.00    +0.038 C 
ATOM     13  C   UNL     1      32.021 -22.982 -14.920  0.00  0.00    +0.003 C 
ENDROOT
BRANCH   8  15
ATOM     14  O   UNL     1      37.252 -21.068 -14.527  0.00  0.00    -0.287 OA
ATOM     15  C   UNL     1      36.647 -22.099 -14.870  0.00  0.00    +0.197 C 
BRANCH  15  16
ATOM     16  C   UNL     1      37.059 -23.353 -14.168  0.00  0.00    +0.039 C 
ATOM     17  C   UNL     1      36.574 -23.663 -12.907  0.00  0.00    +0.003 C 
ATOM     18  C   UNL     1      37.940 -24.160 -14.859  0.00  0.00    +0.003 C 
ATOM     19  C   UNL     1      37.008 -24.868 -12.305  0.00  0.00    +0.000 C 
ATOM     20  C   UNL     1      35.677 -22.833 -12.215  0.00  0.00    +0.000 C 
ATOM     21  C   UNL     1      38.367 -25.345 -14.266  0.00  0.00    +0.000 C 
ATOM     22  C   UNL     1      37.904 -25.697 -12.997  0.00  0.00    +0.000 C 
ATOM     23  C   UNL     1      36.533 -25.207 -11.028  0.00  0.00    +0.000 C 
ATOM     24  C   UNL     1      35.215 -23.185 -10.946  0.00  0.00    +0.000 C 
ATOM     25  C   UNL     1      35.642 -24.370 -10.354  0.00  0.00    +0.000 C 
ENDBRANCH  15  16
ENDBRANCH   8  15
BRANCH   3  26
ATOM     26  C   UNL     1      34.009 -20.229 -19.494  0.00  0.00    -0.050 C 
BRANCH  26  28
ATOM     27  O   UNL     1      35.515 -17.797 -22.563  0.00  0.00    -0.358 OA
ATOM     28  N   UNL     1      34.686 -19.794 -20.713  0.00  0.00    +0.392 N 
ATOM     29  C   UNL     1      35.777 -18.861 -20.398  0.00  0.00    -0.045 C 
ATOM     30  C   UNL     1      33.737 -19.165 -21.642  0.00  0.00    -0.045 C 
ATOM     31  C   UNL     1      36.461 -18.410 -21.686  0.00  0.00    +0.119 C 
ATOM     32  C   UNL     1      34.469 -18.709 -22.900  0.00  0.00    +0.119 C 
ATOM     33  H   UNL     1      35.084 -20.620 -21.162  0.00  0.00    -0.079 HD
ENDBRANCH  26  28
ENDBRANCH   3  26
TORSDOF 4
ENDMDL
MODEL 8
REMARK VINA RESULT:      -8.7     13.704     19.613
REMARK  Name = 5311501
REMARK  4 active torsions:
REMARK  status: ('A' for Active; 'I' for Inactive)
REMARK    1  A    between atoms: C_3  and  C_26
REMARK    2  A    between atoms: C_8  and  C_15
REMARK    3  A    between atoms: C_15  and  C_16
REMARK    4  A    between atoms: C_26  and  N_28
REMARK                            x       y       z     vdW  Elec       q    Type
REMARK                         _______ _______ _______ _____ _____    ______ ____
ROOT
ATOM      1  O   UNL     1      31.085  -6.492 -20.784  0.00  0.00    -0.472 OA
ATOM      2  N   UNL     1      32.787  -6.169 -23.077  0.00  0.00    -0.328 N 
ATOM      3  C   UNL     1      32.848  -7.432 -22.352  0.00  0.00    +0.108 C 
ATOM      4  C   UNL     1      31.903  -5.224 -22.642  0.00  0.00    +0.094 A 
ATOM      5  C   UNL     1      32.361  -7.183 -20.895  0.00  0.00    +0.226 C 
ATOM      6  C   UNL     1      33.464  -5.719 -24.165  0.00  0.00    +0.041 A 
ATOM      7  C   UNL     1      31.968  -4.136 -23.488  0.00  0.00    +0.023 A 
ATOM      8  C   UNL     1      32.973  -4.454 -24.450  0.00  0.00    +0.052 A 
ATOM      9  C   UNL     1      31.066  -5.346 -21.543  0.00  0.00    +0.154 C 
ATOM     10  C   UNL     1      34.503  -6.523 -24.841  0.00  0.00    +0.050 C 
ATOM     11  C   UNL     1      31.098  -3.061 -23.223  0.00  0.00    +0.002 C 
ATOM     12  C   UNL     1      30.189  -4.295 -21.301  0.00  0.00    +0.038 C 
ATOM     13  C   UNL     1      30.213  -3.163 -22.130  0.00  0.00    +0.003 C 
ENDROOT
BRANCH   8  15
ATOM     14  O   UNL     1      33.453  -2.396 -25.503  0.00  0.00    -0.287 OA
ATOM     15  C   UNL     1      33.424  -3.638 -25.544  0.00  0.00    +0.197 C 
BRANCH  15  16
ATOM     16  C   UNL     1      33.880  -4.254 -26.827  0.00  0.00    +0.039 C 
ATOM     17  C   UNL     1      35.212  -4.212 -27.211  0.00  0.00    +0.003 C 
ATOM     18  C   UNL     1      32.894  -4.853 -27.584  0.00  0.00    +0.003 C 
ATOM     19  C   UNL     1      35.570  -4.817 -28.440  0.00  0.00    +0.000 C 
ATOM     20  C   UNL     1      36.207  -3.599 -26.431  0.00  0.00    +0.000 C 
ATOM     21  C   UNL     1      33.247  -5.448 -28.793  0.00  0.00    +0.000 C 
ATOM     22  C   UNL     1      34.576  -5.430 -29.218  0.00  0.00    +0.000 C 
ATOM     23  C   UNL     1      36.911  -4.790 -28.853  0.00  0.00    +0.000 C 
ATOM     24  C   UNL     1      37.535  -3.582 -26.858  0.00  0.00    +0.000 C 
ATOM     25  C   UNL     1      37.887  -4.176 -28.065  0.00  0.00    +0.000 C 
ENDBRANCH  15  16
ENDBRANCH   8  15
BRANCH   3  26
ATOM     26  C   UNL     1      31.999  -8.494 -23.049  0.00  0.00    -0.050 C 
BRANCH  26  28
ATOM     27  O   UNL     1      31.750 -12.612 -22.283  0.00  0.00    -0.358 OA
ATOM     28  N   UNL     1      32.219  -9.811 -22.454  0.00  0.00    +0.392 N 
ATOM     29  C   UNL     1      32.773 -10.744 -23.444  0.00  0.00    -0.045 C 
ATOM     30  C   UNL     1      30.968 -10.348 -21.900  0.00  0.00    -0.045 C 
ATOM     31  C   UNL     1      32.982 -12.113 -22.804  0.00  0.00    +0.119 C 
ATOM     32  C   UNL     1      31.221 -11.726 -21.295  0.00  0.00    +0.119 C 
ATOM     33  H   UNL     1      32.892  -9.702 -21.695  0.00  0.00    -0.079 HD
ENDBRANCH  26  28
ENDBRANCH   3  26
TORSDOF 4
ENDMDL
MODEL 9
REMARK VINA RESULT:      -8.6      2.961      8.821
REMARK  Name = 5311501
REMARK  4 active torsions:
REMARK  status: ('A' for Active; 'I' for Inactive)
REMARK    1  A    between atoms: C_3  and  C_26
REMARK    2  A    between atoms: C_8  and  C_15
REMARK    3  A    between atoms: C_15  and  C_16
REMARK    4  A    between atoms: C_26  and  N_28
REMARK                            x       y       z     vdW  Elec       q    Type
REMARK                         _______ _______ _______ _____ _____    ______ ____
ROOT
ATOM      1  O   UNL     1      33.937 -23.350 -16.443  0.00  0.00    -0.472 OA
ATOM      2  N   UNL     1      33.634 -21.557 -18.669  0.00  0.00    -0.328 N 
ATOM      3  C   UNL     1      32.503 -22.406 -18.315  0.00  0.00    +0.108 C 
ATOM      4  C   UNL     1      34.761 -21.641 -17.902  0.00  0.00    +0.094 A 
ATOM      5  C   UNL     1      33.046 -23.650 -17.554  0.00  0.00    +0.226 C 
ATOM      6  C   UNL     1      33.800 -20.640 -19.657  0.00  0.00    +0.041 A 
ATOM      7  C   UNL     1      35.682 -20.727 -18.371  0.00  0.00    +0.023 A 
ATOM      8  C   UNL     1      35.067 -20.100 -19.497  0.00  0.00    +0.052 A 
ATOM      9  C   UNL     1      34.941 -22.490 -16.822  0.00  0.00    +0.154 C 
ATOM     10  C   UNL     1      32.749 -20.349 -20.654  0.00  0.00    +0.050 C 
ATOM     11  C   UNL     1      36.907 -20.637 -17.684  0.00  0.00    +0.002 C 
ATOM     12  C   UNL     1      36.141 -22.379 -16.129  0.00  0.00    +0.038 C 
ATOM     13  C   UNL     1      37.114 -21.467 -16.563  0.00  0.00    +0.003 C 
ENDROOT
BRANCH   8  15
ATOM     14  O   UNL     1      36.605 -18.386 -20.017  0.00  0.00    -0.287 OA
ATOM     15  C   UNL     1      35.624 -19.079 -20.340  0.00  0.00    +0.197 C 
BRANCH  15  16
ATOM     16  C   UNL     1      35.032 -18.777 -21.679  0.00  0.00    +0.039 C 
ATOM     17  C   UNL     1      34.609 -17.498 -22.006  0.00  0.00    +0.003 C 
ATOM     18  C   UNL     1      34.941 -19.848 -22.545  0.00  0.00    +0.003 C 
ATOM     19  C   UNL     1      34.058 -17.288 -23.293  0.00  0.00    +0.000 C 
ATOM     20  C   UNL     1      34.707 -16.416 -21.116  0.00  0.00    +0.000 C 
ATOM     21  C   UNL     1      34.399 -19.640 -23.811  0.00  0.00    +0.000 C 
ATOM     22  C   UNL     1      33.961 -18.369 -24.183  0.00  0.00    +0.000 C 
ATOM     23  C   UNL     1      33.622 -16.002 -23.651  0.00  0.00    +0.000 C 
ATOM     24  C   UNL     1      34.268 -15.145 -21.488  0.00  0.00    +0.000 C 
ATOM     25  C   UNL     1      33.727 -14.938 -22.753  0.00  0.00    +0.000 C 
ENDBRANCH  15  16
ENDBRANCH   8  15
BRANCH   3  26
ATOM     26  C   UNL     1      31.493 -21.633 -17.469  0.00  0.00    -0.050 C 
BRANCH  26  28
ATOM     27  O   UNL     1      29.343 -22.930 -14.107  0.00  0.00    -0.358 OA
ATOM     28  N   UNL     1      30.898 -22.495 -16.450  0.00  0.00    +0.392 N 
ATOM     29  C   UNL     1      29.432 -22.392 -16.471  0.00  0.00    -0.045 C 
ATOM     30  C   UNL     1      31.409 -22.154 -15.115  0.00  0.00    -0.045 C 
ATOM     31  C   UNL     1      28.835 -23.290 -15.392  0.00  0.00    +0.119 C 
ATOM     32  C   UNL     1      30.765 -23.060 -14.069  0.00  0.00    +0.119 C 
ATOM     33  H   UNL     1      31.160 -23.458 -16.664  0.00  0.00    -0.079 HD
ENDBRANCH  26  28
ENDBRANCH   3  26
TORSDOF 4
ENDMDL
