MODEL 1
REMARK VINA RESULT:     -12.5      0.000      0.000
REMARK  Name = 11304743
REMARK  5 active torsions:
REMARK  status: ('A' for Active; 'I' for Inactive)
REMARK    1  A    between atoms: C_4  and  C_15
REMARK    2  A    between atoms: C_5  and  N_28
REMARK    3  A    between atoms: N_10  and  C_19
REMARK    4  A    between atoms: C_19  and  C_21
REMARK    5  A    between atoms: C_30  and  O_31
REMARK                            x       y       z     vdW  Elec       q    Type
REMARK                         _______ _______ _______ _____ _____    ______ ____
ROOT
ATOM      1  N   UNL     1      34.698 -24.899 -15.586  0.00  0.00    -0.326 NA
ATOM      2  N   UNL     1      35.149 -22.745 -14.606  0.00  0.00    -0.326 NA
ATOM      3  N   UNL     1      36.027 -26.775 -15.021  0.00  0.00    -0.334 N 
ATOM      4  C   UNL     1      34.473 -23.588 -15.403  0.00  0.00    +0.160 C 
ATOM      5  C   UNL     1      36.506 -24.643 -14.018  0.00  0.00    +0.213 C 
ATOM      6  C   UNL     1      35.730 -25.398 -14.873  0.00  0.00    +0.193 C 
ATOM      7  C   UNL     1      36.166 -23.309 -13.924  0.00  0.00    +0.193 C 
ATOM      8  H   UNL     1      35.487 -27.334 -15.624  0.00  0.00    +0.144 HD
ATOM      9  H   UNL     1      36.774 -27.174 -14.517  0.00  0.00    +0.144 HD
ATOM     10  N   UNL     1      36.925 -22.476 -13.063  0.00  0.00    -0.334 N 
ATOM     11  H   UNL     1      36.701 -21.521 -12.979  0.00  0.00    +0.144 HD
ATOM     12  H   UNL     1      37.675 -22.853 -12.549  0.00  0.00    +0.144 HD
ENDROOT
BRANCH   4  18
ATOM     13  N   UNL     1      32.365 -22.084 -17.738  0.00  0.00    -0.229 N 
ATOM     14  N   UNL     1      33.586 -22.506 -17.364  0.00  0.00    -0.155 NA
ATOM     15  N   UNL     1      30.093 -21.998 -16.911  0.00  0.00    -0.225 NA
ATOM     16  C   UNL     1      32.031 -22.933 -15.741  0.00  0.00    +0.066 A 
ATOM     17  C   UNL     1      31.396 -22.314 -16.807  0.00  0.00    +0.162 A 
ATOM     18  C   UNL     1      33.377 -23.021 -16.148  0.00  0.00    +0.189 A 
ATOM     19  C   UNL     1      31.255 -23.282 -14.629  0.00  0.00    +0.007 C 
ATOM     20  C   UNL     1      29.894 -22.981 -14.680  0.00  0.00    +0.021 C 
ATOM     21  C   UNL     1      29.385 -22.356 -15.814  0.00  0.00    +0.101 C 
BRANCH  13  22
ATOM     22  C   UNL     1      32.194 -21.461 -19.030  0.00  0.00    +0.158 C 
BRANCH  22  24
ATOM     23  F   UNL     1      32.287 -19.535 -21.097  0.00  0.00    -0.204 F 
ATOM     24  C   UNL     1      33.479 -20.849 -19.519  0.00  0.00    +0.030 C 
ATOM     25  C   UNL     1      33.447 -19.908 -20.539  0.00  0.00    +0.138 C 
ATOM     26  C   UNL     1      34.681 -21.237 -18.942  0.00  0.00    -0.000 C 
ATOM     27  C   UNL     1      34.641 -19.344 -20.990  0.00  0.00    +0.029 C 
ATOM     28  C   UNL     1      35.874 -20.673 -19.393  0.00  0.00    -0.000 C 
ATOM     29  C   UNL     1      35.854 -19.726 -20.418  0.00  0.00    +0.002 C 
ENDBRANCH  22  24
ENDBRANCH  13  22
ENDBRANCH   4  18
BRANCH   5  31
ATOM     30  O   UNL     1      39.212 -24.822 -14.954  0.00  0.00    -0.226 OA
ATOM     31  N   UNL     1      37.569 -25.192 -13.298  0.00  0.00    -0.231 N 
ATOM     32  C   UNL     1      37.374 -25.753 -11.926  0.00  0.00    +0.119 C 
ATOM     33  C   UNL     1      38.901 -25.243 -13.842  0.00  0.00    +0.406 C 
BRANCH  33  34
ATOM     34  O   UNL     1      39.821 -25.844 -13.018  0.00  0.00    -0.430 OA
ATOM     35  C   UNL     1      40.833 -26.632 -13.657  0.00  0.00    +0.257 C 
ENDBRANCH  33  34
ENDBRANCH   5  31
TORSDOF 5
ENDMDL
MODEL 2
REMARK VINA RESULT:     -12.1      3.929      7.909
REMARK  Name = 11304743
REMARK  5 active torsions:
REMARK  status: ('A' for Active; 'I' for Inactive)
REMARK    1  A    between atoms: C_4  and  C_15
REMARK    2  A    between atoms: C_5  and  N_28
REMARK    3  A    between atoms: N_10  and  C_19
REMARK    4  A    between atoms: C_19  and  C_21
REMARK    5  A    between atoms: C_30  and  O_31
REMARK                            x       y       z     vdW  Elec       q    Type
REMARK                         _______ _______ _______ _____ _____    ______ ____
ROOT
ATOM      1  N   UNL     1      34.989 -21.076 -18.648  0.00  0.00    -0.326 NA
ATOM      2  N   UNL     1      32.621 -21.110 -19.094  0.00  0.00    -0.326 NA
ATOM      3  N   UNL     1      36.450 -19.818 -20.022  0.00  0.00    -0.334 N 
ATOM      4  C   UNL     1      33.723 -21.455 -18.408  0.00  0.00    +0.160 C 
ATOM      5  C   UNL     1      34.093 -19.824 -20.497  0.00  0.00    +0.213 C 
ATOM      6  C   UNL     1      35.139 -20.255 -19.708  0.00  0.00    +0.193 C 
ATOM      7  C   UNL     1      32.844 -20.288 -20.140  0.00  0.00    +0.193 C 
ATOM      8  H   UNL     1      37.212 -20.112 -19.473  0.00  0.00    +0.144 HD
ATOM      9  H   UNL     1      36.598 -19.219 -20.790  0.00  0.00    +0.144 HD
ATOM     10  N   UNL     1      31.725 -19.884 -20.911  0.00  0.00    -0.334 N 
ATOM     11  H   UNL     1      30.824 -20.203 -20.675  0.00  0.00    +0.144 HD
ATOM     12  H   UNL     1      31.849 -19.285 -21.682  0.00  0.00    +0.144 HD
ENDROOT
BRANCH   4  18
ATOM     13  N   UNL     1      34.000 -23.705 -15.759  0.00  0.00    -0.229 N 
ATOM     14  N   UNL     1      34.555 -23.014 -16.771  0.00  0.00    -0.155 NA
ATOM     15  N   UNL     1      31.856 -24.040 -14.691  0.00  0.00    -0.225 NA
ATOM     16  C   UNL     1      32.314 -22.581 -16.605  0.00  0.00    +0.066 A 
ATOM     17  C   UNL     1      32.663 -23.485 -15.613  0.00  0.00    +0.162 A 
ATOM     18  C   UNL     1      33.525 -22.332 -17.282  0.00  0.00    +0.189 A 
ATOM     19  C   UNL     1      30.976 -22.178 -16.683  0.00  0.00    +0.007 C 
ATOM     20  C   UNL     1      30.090 -22.720 -15.751  0.00  0.00    +0.021 C 
ATOM     21  C   UNL     1      30.573 -23.619 -14.807  0.00  0.00    +0.101 C 
BRANCH  13  22
ATOM     22  C   UNL     1      34.828 -24.573 -14.954  0.00  0.00    +0.158 C 
BRANCH  22  24
ATOM     23  F   UNL     1      37.238 -23.096 -14.951  0.00  0.00    -0.204 F 
ATOM     24  C   UNL     1      35.348 -23.860 -13.734  0.00  0.00    +0.030 C 
ATOM     25  C   UNL     1      36.540 -23.153 -13.808  0.00  0.00    +0.138 C 
ATOM     26  C   UNL     1      34.624 -23.921 -12.550  0.00  0.00    -0.000 C 
ATOM     27  C   UNL     1      37.018 -22.494 -12.675  0.00  0.00    +0.029 C 
ATOM     28  C   UNL     1      35.103 -23.262 -11.418  0.00  0.00    -0.000 C 
ATOM     29  C   UNL     1      36.300 -22.549 -11.480  0.00  0.00    +0.002 C 
ENDBRANCH  22  24
ENDBRANCH  13  22
ENDBRANCH   4  18
BRANCH   5  31
ATOM     30  O   UNL     1      34.956 -17.093 -20.329  0.00  0.00    -0.226 OA
ATOM     31  N   UNL     1      34.286 -18.975 -21.590  0.00  0.00    -0.231 N 
ATOM     32  C   UNL     1      34.050 -19.439 -22.991  0.00  0.00    +0.119 C 
ATOM     33  C   UNL     1      34.723 -17.613 -21.418  0.00  0.00    +0.406 C 
BRANCH  33  34
ATOM     34  O   UNL     1      34.832 -16.907 -22.591  0.00  0.00    -0.430 OA
ATOM     35  C   UNL     1      34.458 -15.524 -22.540  0.00  0.00    +0.257 C 
ENDBRANCH  33  34
ENDBRANCH   5  31
TORSDOF 5
ENDMDL
MODEL 3
REMARK VINA RESULT:     -12.0      4.152      8.412
REMARK  Name = 11304743
REMARK  5 active torsions:
REMARK  status: ('A' for Active; 'I' for Inactive)
REMARK    1  A    between atoms: C_4  and  C_15
REMARK    2  A    between atoms: C_5  and  N_28
REMARK    3  A    between atoms: N_10  and  C_19
REMARK    4  A    between atoms: C_19  and  C_21
REMARK    5  A    between atoms: C_30  and  O_31
REMARK                            x       y       z     vdW  Elec       q    Type
REMARK                         _______ _______ _______ _____ _____    ______ ____
ROOT
ATOM      1  N   UNL     1      33.340 -20.818 -19.319  0.00  0.00    -0.326 NA
ATOM      2  N   UNL     1      35.701 -20.404 -19.076  0.00  0.00    -0.326 NA
ATOM      3  N   UNL     1      32.111 -19.773 -21.053  0.00  0.00    -0.334 N 
ATOM      4  C   UNL     1      34.536 -20.974 -18.728  0.00  0.00    +0.160 C 
ATOM      5  C   UNL     1      34.467 -19.337 -20.845  0.00  0.00    +0.213 C 
ATOM      6  C   UNL     1      33.341 -19.987 -20.382  0.00  0.00    +0.193 C 
ATOM      7  C   UNL     1      35.630 -19.586 -20.146  0.00  0.00    +0.193 C 
ATOM      8  H   UNL     1      31.295 -20.226 -20.741  0.00  0.00    +0.144 HD
ATOM      9  H   UNL     1      32.074 -19.171 -21.832  0.00  0.00    +0.144 HD
ATOM     10  N   UNL     1      36.823 -18.948 -20.569  0.00  0.00    -0.334 N 
ATOM     11  H   UNL     1      37.666 -19.110 -20.085  0.00  0.00    +0.144 HD
ATOM     12  H   UNL     1      36.811 -18.344 -21.346  0.00  0.00    +0.144 HD
ENDROOT
BRANCH   4  18
ATOM     13  N   UNL     1      33.887 -23.242 -16.161  0.00  0.00    -0.229 N 
ATOM     14  N   UNL     1      33.482 -22.546 -17.239  0.00  0.00    -0.155 NA
ATOM     15  N   UNL     1      35.854 -23.572 -14.792  0.00  0.00    -0.225 NA
ATOM     16  C   UNL     1      35.672 -22.104 -16.745  0.00  0.00    +0.066 A 
ATOM     17  C   UNL     1      35.188 -23.017 -15.820  0.00  0.00    +0.162 A 
ATOM     18  C   UNL     1      34.572 -21.856 -17.590  0.00  0.00    +0.189 A 
ATOM     19  C   UNL     1      37.004 -21.692 -16.623  0.00  0.00    +0.007 C 
ATOM     20  C   UNL     1      37.748 -22.236 -15.575  0.00  0.00    +0.021 C 
ATOM     21  C   UNL     1      37.137 -23.144 -14.717  0.00  0.00    +0.101 C 
BRANCH  13  22
ATOM     22  C   UNL     1      32.957 -24.125 -15.495  0.00  0.00    +0.158 C 
BRANCH  22  24
ATOM     23  F   UNL     1      32.401 -23.014 -12.956  0.00  0.00    -0.204 F 
ATOM     24  C   UNL     1      31.665 -23.422 -15.176  0.00  0.00    +0.030 C 
ATOM     25  C   UNL     1      31.462 -22.900 -13.906  0.00  0.00    +0.138 C 
ATOM     26  C   UNL     1      30.692 -23.306 -16.161  0.00  0.00    -0.000 C 
ATOM     27  C   UNL     1      30.262 -22.250 -13.615  0.00  0.00    +0.029 C 
ATOM     28  C   UNL     1      29.494 -22.656 -15.869  0.00  0.00    -0.000 C 
ATOM     29  C   UNL     1      29.278 -22.128 -14.595  0.00  0.00    +0.002 C 
ENDBRANCH  22  24
ENDBRANCH  13  22
ENDBRANCH   4  18
BRANCH   5  31
ATOM     30  O   UNL     1      34.719 -16.482 -20.723  0.00  0.00    -0.226 OA
ATOM     31  N   UNL     1      34.431 -18.481 -21.948  0.00  0.00    -0.231 N 
ATOM     32  C   UNL     1      34.252 -19.004 -23.337  0.00  0.00    +0.119 C 
ATOM     33  C   UNL     1      34.566 -17.055 -21.799  0.00  0.00    +0.406 C 
BRANCH  33  34
ATOM     34  O   UNL     1      34.476 -16.357 -22.979  0.00  0.00    -0.430 OA
ATOM     35  C   UNL     1      34.228 -14.949 -22.871  0.00  0.00    +0.257 C 
ENDBRANCH  33  34
ENDBRANCH   5  31
TORSDOF 5
ENDMDL
MODEL 4
REMARK VINA RESULT:     -12.0      3.935      7.867
REMARK  Name = 11304743
REMARK  5 active torsions:
REMARK  status: ('A' for Active; 'I' for Inactive)
REMARK    1  A    between atoms: C_4  and  C_15
REMARK    2  A    between atoms: C_5  and  N_28
REMARK    3  A    between atoms: N_10  and  C_19
REMARK    4  A    between atoms: C_19  and  C_21
REMARK    5  A    between atoms: C_30  and  O_31
REMARK                            x       y       z     vdW  Elec       q    Type
REMARK                         _______ _______ _______ _____ _____    ______ ____
ROOT
ATOM      1  N   UNL     1      32.586 -21.095 -19.106  0.00  0.00    -0.326 NA
ATOM      2  N   UNL     1      34.953 -21.094 -18.655  0.00  0.00    -0.326 NA
ATOM      3  N   UNL     1      31.712 -19.853 -20.922  0.00  0.00    -0.334 N 
ATOM      4  C   UNL     1      33.682 -21.455 -18.417  0.00  0.00    +0.160 C 
ATOM      5  C   UNL     1      34.080 -19.830 -20.507  0.00  0.00    +0.213 C 
ATOM      6  C   UNL     1      32.824 -20.276 -20.152  0.00  0.00    +0.193 C 
ATOM      7  C   UNL     1      35.118 -20.276 -19.714  0.00  0.00    +0.193 C 
ATOM      8  H   UNL     1      30.806 -20.159 -20.689  0.00  0.00    +0.144 HD
ATOM      9  H   UNL     1      31.847 -19.253 -21.693  0.00  0.00    +0.144 HD
ATOM     10  N   UNL     1      36.435 -19.853 -20.023  0.00  0.00    -0.334 N 
ATOM     11  H   UNL     1      37.192 -20.158 -19.471  0.00  0.00    +0.144 HD
ATOM     12  H   UNL     1      36.594 -19.256 -20.788  0.00  0.00    +0.144 HD
ENDROOT
BRANCH   4  18
ATOM     13  N   UNL     1      33.917 -23.712 -15.770  0.00  0.00    -0.229 N 
ATOM     14  N   UNL     1      34.485 -23.027 -16.779  0.00  0.00    -0.155 NA
ATOM     15  N   UNL     1      31.763 -24.017 -14.711  0.00  0.00    -0.225 NA
ATOM     16  C   UNL     1      32.250 -22.563 -16.621  0.00  0.00    +0.066 A 
ATOM     17  C   UNL     1      32.582 -23.473 -15.629  0.00  0.00    +0.162 A 
ATOM     18  C   UNL     1      33.466 -22.330 -17.293  0.00  0.00    +0.189 A 
ATOM     19  C   UNL     1      30.918 -22.141 -16.704  0.00  0.00    +0.007 C 
ATOM     20  C   UNL     1      30.021 -22.670 -15.776  0.00  0.00    +0.021 C 
ATOM     21  C   UNL     1      30.488 -23.578 -14.831  0.00  0.00    +0.101 C 
BRANCH  13  22
ATOM     22  C   UNL     1      34.729 -24.592 -14.963  0.00  0.00    +0.158 C 
BRANCH  22  24
ATOM     23  F   UNL     1      37.169 -23.166 -14.954  0.00  0.00    -0.204 F 
ATOM     24  C   UNL     1      35.258 -23.887 -13.743  0.00  0.00    +0.030 C 
ATOM     25  C   UNL     1      36.466 -23.205 -13.814  0.00  0.00    +0.138 C 
ATOM     26  C   UNL     1      34.530 -23.929 -12.562  0.00  0.00    -0.000 C 
ATOM     27  C   UNL     1      36.953 -22.553 -12.681  0.00  0.00    +0.029 C 
ATOM     28  C   UNL     1      35.017 -23.277 -11.430  0.00  0.00    -0.000 C 
ATOM     29  C   UNL     1      36.230 -22.589 -11.489  0.00  0.00    +0.002 C 
ENDBRANCH  22  24
ENDBRANCH  13  22
ENDBRANCH   4  18
BRANCH   5  31
ATOM     30  O   UNL     1      34.953 -17.104 -20.324  0.00  0.00    -0.226 OA
ATOM     31  N   UNL     1      34.288 -18.980 -21.595  0.00  0.00    -0.231 N 
ATOM     32  C   UNL     1      34.065 -19.441 -23.000  0.00  0.00    +0.119 C 
ATOM     33  C   UNL     1      34.729 -17.621 -21.416  0.00  0.00    +0.406 C 
BRANCH  33  34
ATOM     34  O   UNL     1      34.853 -16.912 -22.586  0.00  0.00    -0.430 OA
ATOM     35  C   UNL     1      34.486 -15.527 -22.537  0.00  0.00    +0.257 C 
ENDBRANCH  33  34
ENDBRANCH   5  31
TORSDOF 5
ENDMDL
MODEL 5
REMARK VINA RESULT:     -11.7      4.175      8.323
REMARK  Name = 11304743
REMARK  5 active torsions:
REMARK  status: ('A' for Active; 'I' for Inactive)
REMARK    1  A    between atoms: C_4  and  C_15
REMARK    2  A    between atoms: C_5  and  N_28
REMARK    3  A    between atoms: N_10  and  C_19
REMARK    4  A    between atoms: C_19  and  C_21
REMARK    5  A    between atoms: C_30  and  O_31
REMARK                            x       y       z     vdW  Elec       q    Type
REMARK                         _______ _______ _______ _____ _____    ______ ____
ROOT
ATOM      1  N   UNL     1      33.508 -21.090 -18.898  0.00  0.00    -0.326 NA
ATOM      2  N   UNL     1      35.860 -20.587 -18.757  0.00  0.00    -0.326 NA
ATOM      3  N   UNL     1      32.172 -20.115 -20.592  0.00  0.00    -0.334 N 
ATOM      4  C   UNL     1      34.732 -21.194 -18.355  0.00  0.00    +0.160 C 
ATOM      5  C   UNL     1      34.517 -19.591 -20.487  0.00  0.00    +0.213 C 
ATOM      6  C   UNL     1      33.435 -20.274 -19.970  0.00  0.00    +0.193 C 
ATOM      7  C   UNL     1      35.715 -19.787 -19.833  0.00  0.00    +0.193 C 
ATOM      8  H   UNL     1      31.387 -20.593 -20.241  0.00  0.00    +0.144 HD
ATOM      9  H   UNL     1      32.081 -19.525 -21.377  0.00  0.00    +0.144 HD
ATOM     10  N   UNL     1      36.866 -19.113 -20.313  0.00  0.00    -0.334 N 
ATOM     11  H   UNL     1      37.733 -19.237 -19.862  0.00  0.00    +0.144 HD
ATOM     12  H   UNL     1      36.800 -18.520 -21.096  0.00  0.00    +0.144 HD
ENDROOT
BRANCH   4  18
ATOM     13  N   UNL     1      35.768 -23.220 -15.713  0.00  0.00    -0.229 N 
ATOM     14  N   UNL     1      36.051 -22.442 -16.772  0.00  0.00    -0.155 NA
ATOM     15  N   UNL     1      33.863 -24.053 -14.475  0.00  0.00    -0.225 NA
ATOM     16  C   UNL     1      33.793 -22.585 -16.434  0.00  0.00    +0.066 A 
ATOM     17  C   UNL     1      34.433 -23.341 -15.463  0.00  0.00    +0.162 A 
ATOM     18  C   UNL     1      34.847 -22.058 -17.208  0.00  0.00    +0.189 A 
ATOM     19  C   UNL     1      32.394 -22.537 -16.411  0.00  0.00    +0.007 C 
ATOM     20  C   UNL     1      31.747 -23.256 -15.406  0.00  0.00    +0.021 C 
ATOM     21  C   UNL     1      32.511 -23.975 -14.494  0.00  0.00    +0.101 C 
BRANCH  13  22
ATOM     22  C   UNL     1      36.846 -23.825 -14.966  0.00  0.00    +0.158 C 
BRANCH  22  24
ATOM     23  F   UNL     1      36.389 -26.120 -13.381  0.00  0.00    -0.204 F 
ATOM     24  C   UNL     1      36.594 -23.757 -13.484  0.00  0.00    +0.030 C 
ATOM     25  C   UNL     1      36.378 -24.927 -12.770  0.00  0.00    +0.138 C 
ATOM     26  C   UNL     1      36.581 -22.521 -12.852  0.00  0.00    -0.000 C 
ATOM     27  C   UNL     1      36.143 -24.860 -11.396  0.00  0.00    +0.029 C 
ATOM     28  C   UNL     1      36.347 -22.454 -11.478  0.00  0.00    -0.000 C 
ATOM     29  C   UNL     1      36.128 -23.624 -10.751  0.00  0.00    +0.002 C 
ENDBRANCH  22  24
ENDBRANCH  13  22
ENDBRANCH   4  18
BRANCH   5  31
ATOM     30  O   UNL     1      34.878 -16.746 -20.445  0.00  0.00    -0.226 OA
ATOM     31  N   UNL     1      34.404 -18.752 -21.598  0.00  0.00    -0.231 N 
ATOM     32  C   UNL     1      34.074 -19.291 -22.953  0.00  0.00    +0.119 C 
ATOM     33  C   UNL     1      34.602 -17.329 -21.491  0.00  0.00    +0.406 C 
BRANCH  33  34
ATOM     34  O   UNL     1      34.423 -16.648 -22.670  0.00  0.00    -0.430 OA
ATOM     35  C   UNL     1      34.249 -15.229 -22.567  0.00  0.00    +0.257 C 
ENDBRANCH  33  34
ENDBRANCH   5  31
TORSDOF 5
ENDMDL
MODEL 6
REMARK VINA RESULT:     -11.6      1.765      4.639
REMARK  Name = 11304743
REMARK  5 active torsions:
REMARK  status: ('A' for Active; 'I' for Inactive)
REMARK    1  A    between atoms: C_4  and  C_15
REMARK    2  A    between atoms: C_5  and  N_28
REMARK    3  A    between atoms: N_10  and  C_19
REMARK    4  A    between atoms: C_19  and  C_21
REMARK    5  A    between atoms: C_30  and  O_31
REMARK                            x       y       z     vdW  Elec       q    Type
REMARK                         _______ _______ _______ _____ _____    ______ ____
ROOT
ATOM      1  N   UNL     1      34.868 -24.819 -15.574  0.00  0.00    -0.326 NA
ATOM      2  N   UNL     1      35.436 -22.627 -14.750  0.00  0.00    -0.326 NA
ATOM      3  N   UNL     1      36.156 -26.705 -14.950  0.00  0.00    -0.334 N 
ATOM      4  C   UNL     1      34.696 -23.491 -15.463  0.00  0.00    +0.160 C 
ATOM      5  C   UNL     1      36.752 -24.535 -14.104  0.00  0.00    +0.213 C 
ATOM      6  C   UNL     1      35.913 -25.311 -14.877  0.00  0.00    +0.193 C 
ATOM      7  C   UNL     1      36.463 -23.186 -14.078  0.00  0.00    +0.193 C 
ATOM      8  H   UNL     1      35.570 -27.278 -15.495  0.00  0.00    +0.144 HD
ATOM      9  H   UNL     1      36.911 -27.100 -14.456  0.00  0.00    +0.144 HD
ATOM     10  N   UNL     1      37.288 -22.332 -13.304  0.00  0.00    -0.334 N 
ATOM     11  H   UNL     1      37.101 -21.365 -13.270  0.00  0.00    +0.144 HD
ATOM     12  H   UNL     1      38.047 -22.703 -12.800  0.00  0.00    +0.144 HD
ENDROOT
BRANCH   4  18
ATOM     13  N   UNL     1      31.597 -22.425 -16.653  0.00  0.00    -0.229 N 
ATOM     14  N   UNL     1      32.342 -23.057 -15.729  0.00  0.00    -0.155 NA
ATOM     15  N   UNL     1      31.847 -21.225 -18.739  0.00  0.00    -0.225 NA
ATOM     16  C   UNL     1      33.648 -22.220 -17.410  0.00  0.00    +0.066 A 
ATOM     17  C   UNL     1      32.325 -21.904 -17.681  0.00  0.00    +0.162 A 
ATOM     18  C   UNL     1      33.589 -22.930 -16.194  0.00  0.00    +0.189 A 
ATOM     19  C   UNL     1      34.623 -21.799 -18.322  0.00  0.00    +0.007 C 
ATOM     20  C   UNL     1      34.187 -21.087 -19.440  0.00  0.00    +0.021 C 
ATOM     21  C   UNL     1      32.826 -20.838 -19.591  0.00  0.00    +0.101 C 
BRANCH  13  22
ATOM     22  C   UNL     1      30.164 -22.352 -16.483  0.00  0.00    +0.158 C 
BRANCH  22  24
ATOM     23  F   UNL     1      28.023 -24.162 -16.838  0.00  0.00    -0.204 F 
ATOM     24  C   UNL     1      29.692 -23.282 -15.397  0.00  0.00    +0.030 C 
ATOM     25  C   UNL     1      28.633 -24.144 -15.645  0.00  0.00    +0.138 C 
ATOM     26  C   UNL     1      30.325 -23.262 -14.161  0.00  0.00    -0.000 C 
ATOM     27  C   UNL     1      28.198 -25.004 -14.636  0.00  0.00    +0.029 C 
ATOM     28  C   UNL     1      29.889 -24.122 -13.153  0.00  0.00    -0.000 C 
ATOM     29  C   UNL     1      28.826 -24.993 -13.391  0.00  0.00    +0.002 C 
ENDBRANCH  22  24
ENDBRANCH  13  22
ENDBRANCH   4  18
BRANCH   5  31
ATOM     30  O   UNL     1      39.410 -24.854 -15.135  0.00  0.00    -0.226 OA
ATOM     31  N   UNL     1      37.827 -25.079 -13.396  0.00  0.00    -0.231 N 
ATOM     32  C   UNL     1      37.673 -25.556 -11.989  0.00  0.00    +0.119 C 
ATOM     33  C   UNL     1      39.133 -25.203 -13.990  0.00  0.00    +0.406 C 
BRANCH  33  34
ATOM     34  O   UNL     1      40.068 -25.788 -13.171  0.00  0.00    -0.430 OA
ATOM     35  C   UNL     1      40.900 -26.792 -13.765  0.00  0.00    +0.257 C 
ENDBRANCH  33  34
ENDBRANCH   5  31
TORSDOF 5
ENDMDL
MODEL 7
REMARK VINA RESULT:     -10.6      4.298      8.368
REMARK  Name = 11304743
REMARK  5 active torsions:
REMARK  status: ('A' for Active; 'I' for Inactive)
REMARK    1  A    between atoms: C_4  and  C_15
REMARK    2  A    between atoms: C_5  and  N_28
REMARK    3  A    between atoms: N_10  and  C_19
REMARK    4  A    between atoms: C_19  and  C_21
REMARK    5  A    between atoms: C_30  and  O_31
REMARK                            x       y       z     vdW  Elec       q    Type
REMARK                         _______ _______ _______ _____ _____    ______ ____
ROOT
ATOM      1  N   UNL     1      31.756 -23.961 -14.068  0.00  0.00    -0.326 NA
ATOM      2  N   UNL     1      32.119 -22.575 -16.005  0.00  0.00    -0.326 NA
ATOM      3  N   UNL     1      29.571 -24.667 -13.491  0.00  0.00    -0.334 N 
ATOM      4  C   UNL     1      32.520 -23.263 -14.924  0.00  0.00    +0.160 C 
ATOM      5  C   UNL     1      29.893 -23.287 -15.434  0.00  0.00    +0.213 C 
ATOM      6  C   UNL     1      30.437 -23.952 -14.354  0.00  0.00    +0.193 C 
ATOM      7  C   UNL     1      30.790 -22.609 -16.232  0.00  0.00    +0.193 C 
ATOM      8  H   UNL     1      29.936 -25.149 -12.715  0.00  0.00    +0.144 HD
ATOM      9  H   UNL     1      28.601 -24.681 -13.668  0.00  0.00    +0.144 HD
ATOM     10  N   UNL     1      30.295 -21.902 -17.357  0.00  0.00    -0.334 N 
ATOM     11  H   UNL     1      30.917 -21.410 -17.942  0.00  0.00    +0.144 HD
ATOM     12  H   UNL     1      29.331 -21.903 -17.555  0.00  0.00    +0.144 HD
ENDROOT
BRANCH   4  18
ATOM     13  N   UNL     1      35.738 -23.645 -13.638  0.00  0.00    -0.229 N 
ATOM     14  N   UNL     1      34.413 -23.861 -13.559  0.00  0.00    -0.155 NA
ATOM     15  N   UNL     1      37.364 -22.562 -15.064  0.00  0.00    -0.225 NA
ATOM     16  C   UNL     1      34.943 -22.647 -15.425  0.00  0.00    +0.066 A 
ATOM     17  C   UNL     1      36.113 -22.925 -14.733  0.00  0.00    +0.162 A 
ATOM     18  C   UNL     1      33.934 -23.252 -14.649  0.00  0.00    +0.189 A 
ATOM     19  C   UNL     1      35.042 -21.906 -16.608  0.00  0.00    +0.007 C 
ATOM     20  C   UNL     1      36.318 -21.501 -17.004  0.00  0.00    +0.021 C 
ATOM     21  C   UNL     1      37.409 -21.848 -16.214  0.00  0.00    +0.101 C 
BRANCH  13  22
ATOM     22  C   UNL     1      36.606 -24.172 -12.609  0.00  0.00    +0.158 C 
BRANCH  22  24
ATOM     23  F   UNL     1      36.529 -26.626 -14.009  0.00  0.00    -0.204 F 
ATOM     24  C   UNL     1      37.832 -24.813 -13.201  0.00  0.00    +0.030 C 
ATOM     25  C   UNL     1      37.717 -26.020 -13.876  0.00  0.00    +0.138 C 
ATOM     26  C   UNL     1      39.063 -24.185 -13.062  0.00  0.00    -0.000 C 
ATOM     27  C   UNL     1      38.857 -26.612 -14.422  0.00  0.00    +0.029 C 
ATOM     28  C   UNL     1      40.201 -24.777 -13.608  0.00  0.00    -0.000 C 
ATOM     29  C   UNL     1      40.098 -25.991 -14.288  0.00  0.00    +0.002 C 
ENDBRANCH  22  24
ENDBRANCH  13  22
ENDBRANCH   4  18
BRANCH   5  31
ATOM     30  O   UNL     1      28.045 -21.246 -14.629  0.00  0.00    -0.226 OA
ATOM     31  N   UNL     1      28.521 -23.297 -15.698  0.00  0.00    -0.231 N 
ATOM     32  C   UNL     1      27.880 -24.416 -16.453  0.00  0.00    +0.119 C 
ATOM     33  C   UNL     1      27.661 -22.229 -15.258  0.00  0.00    +0.406 C 
BRANCH  33  34
ATOM     34  O   UNL     1      26.336 -22.410 -15.572  0.00  0.00    -0.430 OA
ATOM     35  C   UNL     1      25.723 -21.388 -16.369  0.00  0.00    +0.257 C 
ENDBRANCH  33  34
ENDBRANCH   5  31
TORSDOF 5
ENDMDL
MODEL 8
REMARK VINA RESULT:     -10.5      2.611      4.072
REMARK  Name = 11304743
REMARK  5 active torsions:
REMARK  status: ('A' for Active; 'I' for Inactive)
REMARK    1  A    between atoms: C_4  and  C_15
REMARK    2  A    between atoms: C_5  and  N_28
REMARK    3  A    between atoms: N_10  and  C_19
REMARK    4  A    between atoms: C_19  and  C_21
REMARK    5  A    between atoms: C_30  and  O_31
REMARK                            x       y       z     vdW  Elec       q    Type
REMARK                         _______ _______ _______ _____ _____    ______ ____
ROOT
ATOM      1  N   UNL     1      34.422 -22.384 -16.462  0.00  0.00    -0.326 NA
ATOM      2  N   UNL     1      36.785 -22.106 -16.846  0.00  0.00    -0.326 NA
ATOM      3  N   UNL     1      33.648 -23.577 -14.568  0.00  0.00    -0.334 N 
ATOM      4  C   UNL     1      35.487 -21.939 -17.149  0.00  0.00    +0.160 C 
ATOM      5  C   UNL     1      36.014 -23.317 -14.916  0.00  0.00    +0.213 C 
ATOM      6  C   UNL     1      34.724 -23.075 -15.342  0.00  0.00    +0.193 C 
ATOM      7  C   UNL     1      37.014 -22.804 -15.716  0.00  0.00    +0.193 C 
ATOM      8  H   UNL     1      32.720 -23.416 -14.852  0.00  0.00    +0.144 HD
ATOM      9  H   UNL     1      33.831 -24.088 -13.746  0.00  0.00    +0.144 HD
ATOM     10  N   UNL     1      38.362 -23.020 -15.336  0.00  0.00    -0.334 N 
ATOM     11  H   UNL     1      39.093 -22.663 -15.891  0.00  0.00    +0.144 HD
ATOM     12  H   UNL     1      38.569 -23.526 -14.517  0.00  0.00    +0.144 HD
ENDROOT
BRANCH   4  18
ATOM     13  N   UNL     1      35.563 -20.032 -20.067  0.00  0.00    -0.229 N 
ATOM     14  N   UNL     1      36.195 -20.617 -19.034  0.00  0.00    -0.155 NA
ATOM     15  N   UNL     1      33.334 -19.754 -20.966  0.00  0.00    -0.225 NA
ATOM     16  C   UNL     1      33.939 -20.989 -18.939  0.00  0.00    +0.066 A 
ATOM     17  C   UNL     1      34.213 -20.222 -20.062  0.00  0.00    +0.162 A 
ATOM     18  C   UNL     1      35.203 -21.197 -18.350  0.00  0.00    +0.189 A 
ATOM     19  C   UNL     1      32.606 -21.333 -18.690  0.00  0.00    +0.007 C 
ATOM     20  C   UNL     1      31.648 -20.877 -19.595  0.00  0.00    +0.021 C 
ATOM     21  C   UNL     1      32.059 -20.113 -20.683  0.00  0.00    +0.101 C 
BRANCH  13  22
ATOM     22  C   UNL     1      36.330 -19.295 -21.045  0.00  0.00    +0.158 C 
BRANCH  22  24
ATOM     23  F   UNL     1      35.245 -19.536 -23.643  0.00  0.00    -0.204 F 
ATOM     24  C   UNL     1      35.505 -18.214 -21.688  0.00  0.00    +0.030 C 
ATOM     25  C   UNL     1      35.004 -18.403 -22.969  0.00  0.00    +0.138 C 
ATOM     26  C   UNL     1      35.257 -17.040 -20.990  0.00  0.00    -0.000 C 
ATOM     27  C   UNL     1      34.241 -17.398 -23.563  0.00  0.00    +0.029 C 
ATOM     28  C   UNL     1      34.494 -16.035 -21.584  0.00  0.00    -0.000 C 
ATOM     29  C   UNL     1      33.985 -16.214 -22.871  0.00  0.00    +0.002 C 
ENDBRANCH  22  24
ENDBRANCH  13  22
ENDBRANCH   4  18
BRANCH   5  31
ATOM     30  O   UNL     1      36.330 -22.173 -12.304  0.00  0.00    -0.226 OA
ATOM     31  N   UNL     1      36.289 -24.039 -13.752  0.00  0.00    -0.231 N 
ATOM     32  C   UNL     1      36.447 -25.526 -13.774  0.00  0.00    +0.119 C 
ATOM     33  C   UNL     1      36.433 -23.386 -12.477  0.00  0.00    +0.406 C 
BRANCH  33  34
ATOM     34  O   UNL     1      36.734 -24.237 -11.441  0.00  0.00    -0.430 OA
ATOM     35  C   UNL     1      35.857 -24.200 -10.308  0.00  0.00    +0.257 C 
ENDBRANCH  33  34
ENDBRANCH   5  31
TORSDOF 5
ENDMDL
MODEL 9
REMARK VINA RESULT:     -10.5      7.684     12.122
REMARK  Name = 11304743
REMARK  5 active torsions:
REMARK  status: ('A' for Active; 'I' for Inactive)
REMARK    1  A    between atoms: C_4  and  C_15
REMARK    2  A    between atoms: C_5  and  N_28
REMARK    3  A    between atoms: N_10  and  C_19
REMARK    4  A    between atoms: C_19  and  C_21
REMARK    5  A    between atoms: C_30  and  O_31
REMARK                            x       y       z     vdW  Elec       q    Type
REMARK                         _______ _______ _______ _____ _____    ______ ____
ROOT
ATOM      1  N   UNL     1      34.046 -14.538 -21.305  0.00  0.00    -0.326 NA
ATOM      2  N   UNL     1      33.438 -14.890 -23.610  0.00  0.00    -0.326 NA
ATOM      3  N   UNL     1      33.787 -12.405 -20.309  0.00  0.00    -0.334 N 
ATOM      4  C   UNL     1      33.906 -15.283 -22.414  0.00  0.00    +0.160 C 
ATOM      5  C   UNL     1      33.165 -12.718 -22.611  0.00  0.00    +0.213 C 
ATOM      6  C   UNL     1      33.664 -13.250 -21.440  0.00  0.00    +0.193 C 
ATOM      7  C   UNL     1      33.074 -13.593 -23.674  0.00  0.00    +0.193 C 
ATOM      8  H   UNL     1      34.139 -12.763 -19.463  0.00  0.00    +0.144 HD
ATOM      9  H   UNL     1      33.520 -11.459 -20.371  0.00  0.00    +0.144 HD
ATOM     10  N   UNL     1      32.572 -13.109 -24.908  0.00  0.00    -0.334 N 
ATOM     11  H   UNL     1      32.498 -13.715 -25.680  0.00  0.00    +0.144 HD
ATOM     12  H   UNL     1      32.297 -12.168 -24.993  0.00  0.00    +0.144 HD
ENDROOT
BRANCH   4  18
ATOM     13  N   UNL     1      35.122 -18.407 -21.458  0.00  0.00    -0.229 N 
ATOM     14  N   UNL     1      34.908 -17.105 -21.199  0.00  0.00    -0.155 NA
ATOM     15  N   UNL     1      34.757 -20.040 -23.206  0.00  0.00    -0.225 NA
ATOM     16  C   UNL     1      34.128 -17.673 -23.273  0.00  0.00    +0.066 A 
ATOM     17  C   UNL     1      34.676 -18.803 -22.684  0.00  0.00    +0.162 A 
ATOM     18  C   UNL     1      34.304 -16.663 -22.306  0.00  0.00    +0.189 A 
ATOM     19  C   UNL     1      33.590 -17.801 -24.559  0.00  0.00    +0.007 C 
ATOM     20  C   UNL     1      33.644 -19.062 -25.153  0.00  0.00    +0.021 C 
ATOM     21  C   UNL     1      34.223 -20.112 -24.448  0.00  0.00    +0.101 C 
BRANCH  13  22
ATOM     22  C   UNL     1      35.768 -19.233 -20.464  0.00  0.00    +0.158 C 
BRANCH  22  24
ATOM     23  F   UNL     1      36.553 -21.254 -18.651  0.00  0.00    -0.204 F 
ATOM     24  C   UNL     1      34.785 -20.152 -19.789  0.00  0.00    +0.030 C 
ATOM     25  C   UNL     1      35.245 -21.122 -18.909  0.00  0.00    +0.138 C 
ATOM     26  C   UNL     1      33.430 -20.015 -20.059  0.00  0.00    -0.000 C 
ATOM     27  C   UNL     1      34.330 -21.973 -18.287  0.00  0.00    +0.029 C 
ATOM     28  C   UNL     1      32.517 -20.865 -19.436  0.00  0.00    -0.000 C 
ATOM     29  C   UNL     1      32.967 -21.845 -18.551  0.00  0.00    +0.002 C 
ENDBRANCH  22  24
ENDBRANCH  13  22
ENDBRANCH   4  18
BRANCH   5  31
ATOM     30  O   UNL     1      30.854 -11.565 -21.363  0.00  0.00    -0.226 OA
ATOM     31  N   UNL     1      32.782 -11.379 -22.715  0.00  0.00    -0.231 N 
ATOM     32  C   UNL     1      33.577 -10.399 -23.516  0.00  0.00    +0.119 C 
ATOM     33  C   UNL     1      31.603 -10.880 -22.054  0.00  0.00    +0.406 C 
BRANCH  33  34
ATOM     34  O   UNL     1      31.352  -9.549 -22.286  0.00  0.00    -0.430 OA
ATOM     35  C   UNL     1      31.263  -8.705 -21.131  0.00  0.00    +0.257 C 
ENDBRANCH  33  34
ENDBRANCH   5  31
TORSDOF 5
ENDMDL
