MODEL 1
REMARK VINA RESULT:     -12.0      0.000      0.000
REMARK  Name = 24893974
REMARK  11 active torsions:
REMARK  status: ('A' for Active; 'I' for Inactive)
REMARK    1  A    between atoms: C_1  and  C_4
REMARK    2  A    between atoms: C_1  and  C_20
REMARK    3  A    between atoms: N_3  and  C_6
REMARK    4  A    between atoms: C_7  and  C_14
REMARK    5  A    between atoms: N_13  and  C_16
REMARK    6  A    between atoms: C_16  and  C_17
REMARK    7  A    between atoms: C_17  and  C_18
REMARK    8  A    between atoms: C_20  and  C_21
REMARK    9  A    between atoms: C_21  and  C_22
REMARK   10  A    between atoms: C_22  and  C_23
REMARK   11  A    between atoms: C_23  and  N_24
REMARK                            x       y       z     vdW  Elec       q    Type
REMARK                         _______ _______ _______ _____ _____    ______ ____
ROOT
ATOM      1  C   UNL     1      34.594 -21.443 -19.122  0.00  0.00    +0.085 C 
ENDROOT
BRANCH   1   4
ATOM      2  O   UNL     1      32.673 -20.423 -20.160  0.00  0.00    -0.275 OA
ATOM      3  N   UNL     1      34.826 -19.690 -20.742  0.00  0.00    -0.284 N 
ATOM      4  C   UNL     1      33.894 -20.462 -20.054  0.00  0.00    +0.226 C 
ATOM      5  H   UNL     1      35.773 -19.871 -20.542  0.00  0.00    +0.155 HD
BRANCH   3   6
ATOM      6  C   UNL     1      34.570 -18.673 -21.692  0.00  0.00    +0.050 C 
ATOM      7  C   UNL     1      34.213 -16.343 -22.219  0.00  0.00    +0.055 C 
ATOM      8  C   UNL     1      34.464 -17.344 -21.282  0.00  0.00    +0.019 C 
ATOM      9  C   UNL     1      34.426 -19.001 -23.041  0.00  0.00    +0.015 C 
ATOM     10  C   UNL     1      34.068 -16.670 -23.568  0.00  0.00    +0.005 C 
ATOM     11  C   UNL     1      34.175 -17.999 -23.979  0.00  0.00    +0.001 C 
BRANCH   7  14
ATOM     12  O   UNL     1      34.247 -14.652 -20.596  0.00  0.00    -0.270 OA
ATOM     13  N   UNL     1      33.855 -14.004 -22.788  0.00  0.00    -0.301 N 
ATOM     14  C   UNL     1      34.103 -14.957 -21.793  0.00  0.00    +0.246 C 
ATOM     15  H   UNL     1      33.751 -14.315 -23.716  0.00  0.00    +0.150 HD
BRANCH  13  16
ATOM     16  C   UNL     1      33.742 -12.587 -22.526  0.00  0.00    +0.090 C 
BRANCH  16  17
ATOM     17  C   UNL     1      32.292 -12.115 -22.494  0.00  0.00    +0.021 C 
BRANCH  17  18
ATOM     18  C   UNL     1      31.788 -11.856 -21.072  0.00  0.00    +0.002 C 
ATOM     19  C   UNL     1      30.703 -10.792 -21.052  0.00  0.00    +0.000 C 
ENDBRANCH  17  18
ENDBRANCH  16  17
ENDBRANCH  13  16
ENDBRANCH   7  14
ENDBRANCH   3   6
ENDBRANCH   1   4
BRANCH   1  20
ATOM     20  C   UNL     1      35.963 -20.966 -18.636  0.00  0.00    +0.010 C 
BRANCH  20  21
ATOM     21  C   UNL     1      36.312 -21.512 -17.247  0.00  0.00    +0.002 C 
BRANCH  21  22
ATOM     22  C   UNL     1      35.072 -22.083 -16.551  0.00  0.00    +0.021 C 
BRANCH  22  23
ATOM     23  C   UNL     1      35.271 -22.259 -15.048  0.00  0.00    +0.088 C 
BRANCH  23  24
ATOM     24  N   UNL     1      36.582 -22.788 -14.762  0.00  0.00    -0.320 N 
ATOM     25  N   UNL     1      39.341 -23.985 -14.161  0.00  0.00    -0.270 NA
ATOM     26  N   UNL     1      35.900 -25.067 -14.882  0.00  0.00    -0.232 NA
ATOM     27  N   UNL     1      39.739 -26.176 -14.049  0.00  0.00    -0.307 N 
ATOM     28  N   UNL     1      37.468 -26.901 -14.525  0.00  0.00    -0.232 NA
ATOM     29  C   UNL     1      36.867 -24.142 -14.687  0.00  0.00    +0.124 C 
ATOM     30  C   UNL     1      38.142 -24.593 -14.409  0.00  0.00    +0.164 C 
ATOM     31  C   UNL     1      38.416 -25.952 -14.334  0.00  0.00    +0.125 C 
ATOM     32  C   UNL     1      40.266 -24.973 -13.952  0.00  0.00    +0.163 C 
ATOM     33  C   UNL     1      36.254 -26.370 -14.791  0.00  0.00    +0.252 C 
ATOM     34  H   UNL     1      37.317 -22.149 -14.612  0.00  0.00    +0.148 HD
ATOM     35  H   UNL     1      39.508 -23.016 -14.137  0.00  0.00    +0.126 HD
ATOM     36  H   UNL     1      40.193 -27.042 -13.942  0.00  0.00    +0.149 HD
ENDBRANCH  23  24
ENDBRANCH  22  23
ENDBRANCH  21  22
ENDBRANCH  20  21
ENDBRANCH   1  20
TORSDOF 11
ENDMDL
MODEL 2
REMARK VINA RESULT:     -11.9      1.461      2.068
REMARK  Name = 24893974
REMARK  11 active torsions:
REMARK  status: ('A' for Active; 'I' for Inactive)
REMARK    1  A    between atoms: C_1  and  C_4
REMARK    2  A    between atoms: C_1  and  C_20
REMARK    3  A    between atoms: N_3  and  C_6
REMARK    4  A    between atoms: C_7  and  C_14
REMARK    5  A    between atoms: N_13  and  C_16
REMARK    6  A    between atoms: C_16  and  C_17
REMARK    7  A    between atoms: C_17  and  C_18
REMARK    8  A    between atoms: C_20  and  C_21
REMARK    9  A    between atoms: C_21  and  C_22
REMARK   10  A    between atoms: C_22  and  C_23
REMARK   11  A    between atoms: C_23  and  N_24
REMARK                            x       y       z     vdW  Elec       q    Type
REMARK                         _______ _______ _______ _____ _____    ______ ____
ROOT
ATOM      1  C   UNL     1      35.363 -20.452 -19.703  0.00  0.00    +0.085 C 
ENDROOT
BRANCH   1   4
ATOM      2  O   UNL     1      33.334 -19.825 -20.844  0.00  0.00    -0.275 OA
ATOM      3  N   UNL     1      35.240 -18.471 -21.049  0.00  0.00    -0.284 N 
ATOM      4  C   UNL     1      34.503 -19.557 -20.588  0.00  0.00    +0.226 C 
ATOM      5  H   UNL     1      36.179 -18.425 -20.754  0.00  0.00    +0.155 HD
BRANCH   3   6
ATOM      6  C   UNL     1      34.797 -17.422 -21.890  0.00  0.00    +0.050 C 
ATOM      7  C   UNL     1      34.044 -15.145 -22.177  0.00  0.00    +0.055 C 
ATOM      8  C   UNL     1      34.480 -16.177 -21.347  0.00  0.00    +0.019 C 
ATOM      9  C   UNL     1      34.679 -17.635 -23.264  0.00  0.00    +0.015 C 
ATOM     10  C   UNL     1      33.926 -15.357 -23.551  0.00  0.00    +0.005 C 
ATOM     11  C   UNL     1      34.244 -16.602 -24.094  0.00  0.00    +0.001 C 
BRANCH   7  14
ATOM     12  O   UNL     1      34.179 -13.500 -20.511  0.00  0.00    -0.270 OA
ATOM     13  N   UNL     1      32.880 -13.016 -22.370  0.00  0.00    -0.301 N 
ATOM     14  C   UNL     1      33.714 -13.846 -21.612  0.00  0.00    +0.246 C 
ATOM     15  H   UNL     1      32.548 -13.354 -23.233  0.00  0.00    +0.150 HD
BRANCH  13  16
ATOM     16  C   UNL     1      32.481 -11.691 -21.955  0.00  0.00    +0.090 C 
BRANCH  16  17
ATOM     17  C   UNL     1      31.352 -11.717 -20.932  0.00  0.00    +0.021 C 
BRANCH  17  18
ATOM     18  C   UNL     1      31.129 -10.357 -20.265  0.00  0.00    +0.002 C 
ATOM     19  C   UNL     1      31.117  -9.233 -21.289  0.00  0.00    +0.000 C 
ENDBRANCH  17  18
ENDBRANCH  16  17
ENDBRANCH  13  16
ENDBRANCH   7  14
ENDBRANCH   3   6
ENDBRANCH   1   4
BRANCH   1  20
ATOM     20  C   UNL     1      34.563 -21.467 -18.887  0.00  0.00    +0.010 C 
BRANCH  20  21
ATOM     21  C   UNL     1      35.248 -21.821 -17.562  0.00  0.00    +0.002 C 
BRANCH  21  22
ATOM     22  C   UNL     1      36.417 -20.873 -17.275  0.00  0.00    +0.021 C 
BRANCH  22  23
ATOM     23  C   UNL     1      37.236 -21.301 -16.061  0.00  0.00    +0.088 C 
BRANCH  23  24
ATOM     24  N   UNL     1      37.089 -22.715 -15.815  0.00  0.00    -0.320 N 
ATOM     25  N   UNL     1      36.781 -25.707 -15.217  0.00  0.00    -0.270 NA
ATOM     26  N   UNL     1      37.188 -22.510 -13.445  0.00  0.00    -0.232 NA
ATOM     27  N   UNL     1      36.756 -26.559 -13.157  0.00  0.00    -0.307 N 
ATOM     28  N   UNL     1      37.024 -24.451 -11.976  0.00  0.00    -0.232 NA
ATOM     29  C   UNL     1      37.067 -23.279 -14.550  0.00  0.00    +0.124 C 
ATOM     30  C   UNL     1      36.925 -24.642 -14.374  0.00  0.00    +0.164 C 
ATOM     31  C   UNL     1      36.906 -25.196 -13.101  0.00  0.00    +0.125 C 
ATOM     32  C   UNL     1      36.683 -26.832 -14.443  0.00  0.00    +0.163 C 
ATOM     33  C   UNL     1      37.159 -23.133 -12.243  0.00  0.00    +0.252 C 
ATOM     34  H   UNL     1      37.000 -23.314 -16.593  0.00  0.00    +0.148 HD
ATOM     35  H   UNL     1      36.752 -25.672 -16.201  0.00  0.00    +0.126 HD
ATOM     36  H   UNL     1      36.711 -27.190 -12.404  0.00  0.00    +0.149 HD
ENDBRANCH  23  24
ENDBRANCH  22  23
ENDBRANCH  21  22
ENDBRANCH  20  21
ENDBRANCH   1  20
TORSDOF 11
ENDMDL
MODEL 3
REMARK VINA RESULT:     -11.8      2.979      4.441
REMARK  Name = 24893974
REMARK  11 active torsions:
REMARK  status: ('A' for Active; 'I' for Inactive)
REMARK    1  A    between atoms: C_1  and  C_4
REMARK    2  A    between atoms: C_1  and  C_20
REMARK    3  A    between atoms: N_3  and  C_6
REMARK    4  A    between atoms: C_7  and  C_14
REMARK    5  A    between atoms: N_13  and  C_16
REMARK    6  A    between atoms: C_16  and  C_17
REMARK    7  A    between atoms: C_17  and  C_18
REMARK    8  A    between atoms: C_20  and  C_21
REMARK    9  A    between atoms: C_21  and  C_22
REMARK   10  A    between atoms: C_22  and  C_23
REMARK   11  A    between atoms: C_23  and  N_24
REMARK                            x       y       z     vdW  Elec       q    Type
REMARK                         _______ _______ _______ _____ _____    ______ ____
ROOT
ATOM      1  C   UNL     1      30.782 -22.894 -16.537  0.00  0.00    +0.085 C 
ENDROOT
BRANCH   1   4
ATOM      2  O   UNL     1      33.177 -22.943 -16.261  0.00  0.00    -0.275 OA
ATOM      3  N   UNL     1      32.247 -21.808 -18.094  0.00  0.00    -0.284 N 
ATOM      4  C   UNL     1      32.218 -22.572 -16.932  0.00  0.00    +0.226 C 
ATOM      5  H   UNL     1      31.373 -21.587 -18.491  0.00  0.00    +0.155 HD
BRANCH   3   6
ATOM      6  C   UNL     1      33.386 -21.313 -18.774  0.00  0.00    +0.050 C 
ATOM      7  C   UNL     1      34.368 -19.825 -20.402  0.00  0.00    +0.055 C 
ATOM      8  C   UNL     1      33.246 -20.311 -19.734  0.00  0.00    +0.019 C 
ATOM      9  C   UNL     1      34.649 -21.828 -18.481  0.00  0.00    +0.015 C 
ATOM     10  C   UNL     1      35.632 -20.339 -20.111  0.00  0.00    +0.005 C 
ATOM     11  C   UNL     1      35.772 -21.340 -19.150  0.00  0.00    +0.001 C 
BRANCH   7  14
ATOM     12  O   UNL     1      33.648 -19.012 -22.480  0.00  0.00    -0.270 OA
ATOM     13  N   UNL     1      34.737 -17.517 -21.083  0.00  0.00    -0.301 N 
ATOM     14  C   UNL     1      34.223 -18.779 -21.403  0.00  0.00    +0.246 C 
ATOM     15  H   UNL     1      35.181 -17.402 -20.212  0.00  0.00    +0.150 HD
BRANCH  13  16
ATOM     16  C   UNL     1      34.650 -16.373 -21.961  0.00  0.00    +0.090 C 
BRANCH  16  17
ATOM     17  C   UNL     1      34.138 -15.128 -21.246  0.00  0.00    +0.021 C 
BRANCH  17  18
ATOM     18  C   UNL     1      33.728 -14.017 -22.218  0.00  0.00    +0.002 C 
ATOM     19  C   UNL     1      33.585 -14.545 -23.636  0.00  0.00    +0.000 C 
ENDBRANCH  17  18
ENDBRANCH  16  17
ENDBRANCH  13  16
ENDBRANCH   7  14
ENDBRANCH   3   6
ENDBRANCH   1   4
BRANCH   1  20
ATOM     20  C   UNL     1      30.522 -22.816 -15.032  0.00  0.00    +0.010 C 
BRANCH  20  21
ATOM     21  C   UNL     1      30.149 -24.177 -14.433  0.00  0.00    +0.002 C 
BRANCH  21  22
ATOM     22  C   UNL     1      31.207 -24.648 -13.431  0.00  0.00    +0.021 C 
BRANCH  22  23
ATOM     23  C   UNL     1      32.291 -23.602 -13.185  0.00  0.00    +0.088 C 
BRANCH  23  24
ATOM     24  N   UNL     1      33.597 -24.138 -13.485  0.00  0.00    -0.320 N 
ATOM     25  N   UNL     1      36.396 -25.257 -14.049  0.00  0.00    -0.270 NA
ATOM     26  N   UNL     1      34.516 -23.607 -11.352  0.00  0.00    -0.232 NA
ATOM     27  N   UNL     1      38.064 -25.217 -12.570  0.00  0.00    -0.307 N 
ATOM     28  N   UNL     1      36.830 -24.127 -10.782  0.00  0.00    -0.232 NA
ATOM     29  C   UNL     1      34.656 -24.133 -12.590  0.00  0.00    +0.124 C 
ATOM     30  C   UNL     1      35.886 -24.659 -12.931  0.00  0.00    +0.164 C 
ATOM     31  C   UNL     1      36.940 -24.647 -12.027  0.00  0.00    +0.125 C 
ATOM     32  C   UNL     1      37.702 -25.574 -13.785  0.00  0.00    +0.163 C 
ATOM     33  C   UNL     1      35.596 -23.636 -10.536  0.00  0.00    +0.252 C 
ATOM     34  H   UNL     1      33.744 -24.530 -14.376  0.00  0.00    +0.148 HD
ATOM     35  H   UNL     1      35.913 -25.429 -14.890  0.00  0.00    +0.126 HD
ATOM     36  H   UNL     1      38.943 -25.335 -12.146  0.00  0.00    +0.149 HD
ENDBRANCH  23  24
ENDBRANCH  22  23
ENDBRANCH  21  22
ENDBRANCH  20  21
ENDBRANCH   1  20
TORSDOF 11
ENDMDL
MODEL 4
REMARK VINA RESULT:     -11.7      2.903     11.732
REMARK  Name = 24893974
REMARK  11 active torsions:
REMARK  status: ('A' for Active; 'I' for Inactive)
REMARK    1  A    between atoms: C_1  and  C_4
REMARK    2  A    between atoms: C_1  and  C_20
REMARK    3  A    between atoms: N_3  and  C_6
REMARK    4  A    between atoms: C_7  and  C_14
REMARK    5  A    between atoms: N_13  and  C_16
REMARK    6  A    between atoms: C_16  and  C_17
REMARK    7  A    between atoms: C_17  and  C_18
REMARK    8  A    between atoms: C_20  and  C_21
REMARK    9  A    between atoms: C_21  and  C_22
REMARK   10  A    between atoms: C_22  and  C_23
REMARK   11  A    between atoms: C_23  and  N_24
REMARK                            x       y       z     vdW  Elec       q    Type
REMARK                         _______ _______ _______ _____ _____    ______ ____
ROOT
ATOM      1  C   UNL     1      33.304 -21.900 -19.473  0.00  0.00    +0.085 C 
ENDROOT
BRANCH   1   4
ATOM      2  O   UNL     1      34.666 -22.287 -17.523  0.00  0.00    -0.275 OA
ATOM      3  N   UNL     1      32.330 -22.443 -17.350  0.00  0.00    -0.284 N 
ATOM      4  C   UNL     1      33.539 -22.221 -18.002  0.00  0.00    +0.226 C 
ATOM      5  H   UNL     1      31.518 -22.365 -17.901  0.00  0.00    +0.155 HD
BRANCH   3   6
ATOM      6  C   UNL     1      32.132 -22.766 -15.986  0.00  0.00    +0.050 C 
ATOM      7  C   UNL     1      33.019 -23.459 -13.850  0.00  0.00    +0.055 C 
ATOM      8  C   UNL     1      33.216 -23.142 -15.193  0.00  0.00    +0.019 C 
ATOM      9  C   UNL     1      30.851 -22.706 -15.436  0.00  0.00    +0.015 C 
ATOM     10  C   UNL     1      31.739 -23.400 -13.299  0.00  0.00    +0.005 C 
ATOM     11  C   UNL     1      30.655 -23.023 -14.092  0.00  0.00    +0.001 C 
BRANCH   7  14
ATOM     12  O   UNL     1      34.195 -23.523 -11.822  0.00  0.00    -0.270 OA
ATOM     13  N   UNL     1      35.148 -24.619 -13.630  0.00  0.00    -0.301 N 
ATOM     14  C   UNL     1      34.149 -23.850 -13.021  0.00  0.00    +0.246 C 
ATOM     15  H   UNL     1      35.048 -24.842 -14.583  0.00  0.00    +0.150 HD
BRANCH  13  16
ATOM     16  C   UNL     1      36.318 -25.103 -12.934  0.00  0.00    +0.090 C 
BRANCH  16  17
ATOM     17  C   UNL     1      37.433 -25.516 -13.889  0.00  0.00    +0.021 C 
BRANCH  17  18
ATOM     18  C   UNL     1      38.826 -25.196 -13.341  0.00  0.00    +0.002 C 
ATOM     19  C   UNL     1      39.899 -25.401 -14.399  0.00  0.00    +0.000 C 
ENDBRANCH  17  18
ENDBRANCH  16  17
ENDBRANCH  13  16
ENDBRANCH   7  14
ENDBRANCH   3   6
ENDBRANCH   1   4
BRANCH   1  20
ATOM     20  C   UNL     1      32.651 -20.538 -19.711  0.00  0.00    +0.010 C 
BRANCH  20  21
ATOM     21  C   UNL     1      33.436 -19.681 -20.711  0.00  0.00    +0.002 C 
BRANCH  21  22
ATOM     22  C   UNL     1      34.938 -19.720 -20.410  0.00  0.00    +0.021 C 
BRANCH  22  23
ATOM     23  C   UNL     1      35.724 -18.682 -21.206  0.00  0.00    +0.088 C 
BRANCH  23  24
ATOM     24  N   UNL     1      35.207 -17.355 -20.970  0.00  0.00    -0.320 N 
ATOM     25  N   UNL     1      34.093 -14.530 -20.543  0.00  0.00    -0.270 NA
ATOM     26  N   UNL     1      34.651 -16.957 -23.251  0.00  0.00    -0.232 NA
ATOM     27  N   UNL     1      33.283 -13.261 -22.186  0.00  0.00    -0.307 N 
ATOM     28  N   UNL     1      33.647 -14.858 -23.983  0.00  0.00    -0.232 NA
ATOM     29  C   UNL     1      34.694 -16.540 -21.965  0.00  0.00    +0.124 C 
ATOM     30  C   UNL     1      34.213 -15.276 -21.682  0.00  0.00    +0.164 C 
ATOM     31  C   UNL     1      33.703 -14.467 -22.688  0.00  0.00    +0.125 C 
ATOM     32  C   UNL     1      33.531 -13.332 -20.896  0.00  0.00    +0.163 C 
ATOM     33  C   UNL     1      34.137 -16.103 -24.167  0.00  0.00    +0.252 C 
ATOM     34  H   UNL     1      35.221 -17.011 -20.047  0.00  0.00    +0.148 HD
ATOM     35  H   UNL     1      34.361 -14.804 -19.636  0.00  0.00    +0.126 HD
ATOM     36  H   UNL     1      32.884 -12.510 -22.682  0.00  0.00    +0.149 HD
ENDBRANCH  23  24
ENDBRANCH  22  23
ENDBRANCH  21  22
ENDBRANCH  20  21
ENDBRANCH   1  20
TORSDOF 11
ENDMDL
MODEL 5
REMARK VINA RESULT:     -11.6      2.827     11.909
REMARK  Name = 24893974
REMARK  11 active torsions:
REMARK  status: ('A' for Active; 'I' for Inactive)
REMARK    1  A    between atoms: C_1  and  C_4
REMARK    2  A    between atoms: C_1  and  C_20
REMARK    3  A    between atoms: N_3  and  C_6
REMARK    4  A    between atoms: C_7  and  C_14
REMARK    5  A    between atoms: N_13  and  C_16
REMARK    6  A    between atoms: C_16  and  C_17
REMARK    7  A    between atoms: C_17  and  C_18
REMARK    8  A    between atoms: C_20  and  C_21
REMARK    9  A    between atoms: C_21  and  C_22
REMARK   10  A    between atoms: C_22  and  C_23
REMARK   11  A    between atoms: C_23  and  N_24
REMARK                            x       y       z     vdW  Elec       q    Type
REMARK                         _______ _______ _______ _____ _____    ______ ____
ROOT
ATOM      1  C   UNL     1      34.377 -21.435 -19.474  0.00  0.00    +0.085 C 
ENDROOT
BRANCH   1   4
ATOM      2  O   UNL     1      35.403 -21.980 -17.362  0.00  0.00    -0.275 OA
ATOM      3  N   UNL     1      33.089 -22.269 -17.631  0.00  0.00    -0.284 N 
ATOM      4  C   UNL     1      34.375 -21.914 -18.027  0.00  0.00    +0.226 C 
ATOM      5  H   UNL     1      32.381 -22.167 -18.308  0.00  0.00    +0.155 HD
BRANCH   3   6
ATOM      6  C   UNL     1      32.680 -22.758 -16.367  0.00  0.00    +0.050 C 
ATOM      7  C   UNL     1      33.229 -23.632 -14.183  0.00  0.00    +0.055 C 
ATOM      8  C   UNL     1      33.634 -23.151 -15.428  0.00  0.00    +0.019 C 
ATOM      9  C   UNL     1      31.322 -22.846 -16.061  0.00  0.00    +0.015 C 
ATOM     10  C   UNL     1      31.871 -23.720 -13.877  0.00  0.00    +0.005 C 
ATOM     11  C   UNL     1      30.917 -23.327 -14.816  0.00  0.00    +0.001 C 
BRANCH   7  14
ATOM     12  O   UNL     1      34.021 -23.863 -11.989  0.00  0.00    -0.270 OA
ATOM     13  N   UNL     1      35.383 -24.653 -13.691  0.00  0.00    -0.301 N 
ATOM     14  C   UNL     1      34.223 -24.041 -13.203  0.00  0.00    +0.246 C 
ATOM     15  H   UNL     1      35.478 -24.762 -14.665  0.00  0.00    +0.150 HD
BRANCH  13  16
ATOM     16  C   UNL     1      36.449 -25.135 -12.843  0.00  0.00    +0.090 C 
BRANCH  16  17
ATOM     17  C   UNL     1      37.578 -25.781 -13.638  0.00  0.00    +0.021 C 
BRANCH  17  18
ATOM     18  C   UNL     1      38.924 -25.081 -13.427  0.00  0.00    +0.002 C 
ATOM     19  C   UNL     1      39.720 -25.008 -14.719  0.00  0.00    +0.000 C 
ENDBRANCH  17  18
ENDBRANCH  16  17
ENDBRANCH  13  16
ENDBRANCH   7  14
ENDBRANCH   3   6
ENDBRANCH   1   4
BRANCH   1  20
ATOM     20  C   UNL     1      33.256 -20.447 -19.799  0.00  0.00    +0.010 C 
BRANCH  20  21
ATOM     21  C   UNL     1      33.705 -19.359 -20.781  0.00  0.00    +0.002 C 
BRANCH  21  22
ATOM     22  C   UNL     1      35.221 -19.406 -21.003  0.00  0.00    +0.021 C 
BRANCH  22  23
ATOM     23  C   UNL     1      35.838 -18.018 -21.146  0.00  0.00    +0.088 C 
BRANCH  23  24
ATOM     24  N   UNL     1      35.245 -17.305 -22.252  0.00  0.00    -0.320 N 
ATOM     25  N   UNL     1      33.961 -15.733 -24.551  0.00  0.00    -0.270 NA
ATOM     26  N   UNL     1      34.410 -15.526 -20.906  0.00  0.00    -0.232 NA
ATOM     27  N   UNL     1      32.870 -13.809 -24.274  0.00  0.00    -0.307 N 
ATOM     28  N   UNL     1      33.162 -13.662 -21.865  0.00  0.00    -0.232 NA
ATOM     29  C   UNL     1      34.562 -16.106 -22.118  0.00  0.00    +0.124 C 
ATOM     30  C   UNL     1      34.013 -15.466 -23.212  0.00  0.00    +0.164 C 
ATOM     31  C   UNL     1      33.330 -14.267 -23.065  0.00  0.00    +0.125 C 
ATOM     32  C   UNL     1      33.267 -14.712 -25.145  0.00  0.00    +0.163 C 
ATOM     33  C   UNL     1      33.729 -14.356 -20.855  0.00  0.00    +0.252 C 
ATOM     34  H   UNL     1      35.331 -17.692 -23.153  0.00  0.00    +0.148 HD
ATOM     35  H   UNL     1      34.350 -16.515 -25.005  0.00  0.00    +0.126 HD
ATOM     36  H   UNL     1      32.359 -12.987 -24.451  0.00  0.00    +0.149 HD
ENDBRANCH  23  24
ENDBRANCH  22  23
ENDBRANCH  21  22
ENDBRANCH  20  21
ENDBRANCH   1  20
TORSDOF 11
ENDMDL
MODEL 6
REMARK VINA RESULT:     -11.5      3.743      5.910
REMARK  Name = 24893974
REMARK  11 active torsions:
REMARK  status: ('A' for Active; 'I' for Inactive)
REMARK    1  A    between atoms: C_1  and  C_4
REMARK    2  A    between atoms: C_1  and  C_20
REMARK    3  A    between atoms: N_3  and  C_6
REMARK    4  A    between atoms: C_7  and  C_14
REMARK    5  A    between atoms: N_13  and  C_16
REMARK    6  A    between atoms: C_16  and  C_17
REMARK    7  A    between atoms: C_17  and  C_18
REMARK    8  A    between atoms: C_20  and  C_21
REMARK    9  A    between atoms: C_21  and  C_22
REMARK   10  A    between atoms: C_22  and  C_23
REMARK   11  A    between atoms: C_23  and  N_24
REMARK                            x       y       z     vdW  Elec       q    Type
REMARK                         _______ _______ _______ _____ _____    ______ ____
ROOT
ATOM      1  C   UNL     1      37.492 -22.137 -16.078  0.00  0.00    +0.085 C 
ENDROOT
BRANCH   1   4
ATOM      2  O   UNL     1      36.987 -19.915 -16.866  0.00  0.00    -0.275 OA
ATOM      3  N   UNL     1      35.835 -21.751 -17.768  0.00  0.00    -0.284 N 
ATOM      4  C   UNL     1      36.762 -21.119 -16.946  0.00  0.00    +0.226 C 
ATOM      5  H   UNL     1      35.777 -22.731 -17.685  0.00  0.00    +0.155 HD
BRANCH   3   6
ATOM      6  C   UNL     1      34.968 -21.151 -18.712  0.00  0.00    +0.050 C 
ATOM      7  C   UNL     1      34.609 -19.629 -20.553  0.00  0.00    +0.055 C 
ATOM      8  C   UNL     1      35.464 -20.220 -19.624  0.00  0.00    +0.019 C 
ATOM      9  C   UNL     1      33.615 -21.492 -18.729  0.00  0.00    +0.015 C 
ATOM     10  C   UNL     1      33.256 -19.970 -20.571  0.00  0.00    +0.005 C 
ATOM     11  C   UNL     1      32.759 -20.901 -19.660  0.00  0.00    +0.001 C 
BRANCH   7  14
ATOM     12  O   UNL     1      36.351 -18.480 -21.622  0.00  0.00    -0.270 OA
ATOM     13  N   UNL     1      34.188 -17.969 -22.283  0.00  0.00    -0.301 N 
ATOM     14  C   UNL     1      35.126 -18.659 -21.506  0.00  0.00    +0.246 C 
ATOM     15  H   UNL     1      33.233 -18.159 -22.138  0.00  0.00    +0.150 HD
BRANCH  13  16
ATOM     16  C   UNL     1      34.546 -16.993 -23.286  0.00  0.00    +0.090 C 
BRANCH  16  17
ATOM     17  C   UNL     1      34.566 -15.572 -22.733  0.00  0.00    +0.021 C 
BRANCH  17  18
ATOM     18  C   UNL     1      34.184 -15.511 -21.252  0.00  0.00    +0.002 C 
ATOM     19  C   UNL     1      33.739 -14.114 -20.850  0.00  0.00    +0.000 C 
ENDBRANCH  17  18
ENDBRANCH  16  17
ENDBRANCH  13  16
ENDBRANCH   7  14
ENDBRANCH   3   6
ENDBRANCH   1   4
BRANCH   1  20
ATOM     20  C   UNL     1      36.721 -22.545 -14.822  0.00  0.00    +0.010 C 
BRANCH  20  21
ATOM     21  C   UNL     1      36.193 -23.981 -14.903  0.00  0.00    +0.002 C 
BRANCH  21  22
ATOM     22  C   UNL     1      34.683 -24.000 -15.160  0.00  0.00    +0.021 C 
BRANCH  22  23
ATOM     23  C   UNL     1      33.985 -22.738 -14.661  0.00  0.00    +0.088 C 
BRANCH  23  24
ATOM     24  N   UNL     1      32.667 -22.620 -15.236  0.00  0.00    -0.320 N 
ATOM     25  N   UNL     1      29.838 -22.418 -16.403  0.00  0.00    -0.270 NA
ATOM     26  N   UNL     1      31.657 -24.150 -13.715  0.00  0.00    -0.232 NA
ATOM     27  N   UNL     1      28.090 -23.550 -15.608  0.00  0.00    -0.307 N 
ATOM     28  N   UNL     1      29.283 -24.700 -13.829  0.00  0.00    -0.232 NA
ATOM     29  C   UNL     1      31.558 -23.305 -14.767  0.00  0.00    +0.124 C 
ATOM     30  C   UNL     1      30.318 -23.154 -15.356  0.00  0.00    +0.164 C 
ATOM     31  C   UNL     1      29.214 -23.848 -14.879  0.00  0.00    +0.125 C 
ATOM     32  C   UNL     1      28.500 -22.688 -16.514  0.00  0.00    +0.163 C 
ATOM     33  C   UNL     1      30.530 -24.785 -13.316  0.00  0.00    +0.252 C 
ATOM     34  H   UNL     1      32.549 -22.016 -16.005  0.00  0.00    +0.148 HD
ATOM     35  H   UNL     1      30.358 -21.805 -16.971  0.00  0.00    +0.126 HD
ATOM     36  H   UNL     1      27.180 -23.902 -15.480  0.00  0.00    +0.149 HD
ENDBRANCH  23  24
ENDBRANCH  22  23
ENDBRANCH  21  22
ENDBRANCH  20  21
ENDBRANCH   1  20
TORSDOF 11
ENDMDL
MODEL 7
REMARK VINA RESULT:     -11.5      2.082      3.219
REMARK  Name = 24893974
REMARK  11 active torsions:
REMARK  status: ('A' for Active; 'I' for Inactive)
REMARK    1  A    between atoms: C_1  and  C_4
REMARK    2  A    between atoms: C_1  and  C_20
REMARK    3  A    between atoms: N_3  and  C_6
REMARK    4  A    between atoms: C_7  and  C_14
REMARK    5  A    between atoms: N_13  and  C_16
REMARK    6  A    between atoms: C_16  and  C_17
REMARK    7  A    between atoms: C_17  and  C_18
REMARK    8  A    between atoms: C_20  and  C_21
REMARK    9  A    between atoms: C_21  and  C_22
REMARK   10  A    between atoms: C_22  and  C_23
REMARK   11  A    between atoms: C_23  and  N_24
REMARK                            x       y       z     vdW  Elec       q    Type
REMARK                         _______ _______ _______ _____ _____    ______ ____
ROOT
ATOM      1  C   UNL     1      32.614 -22.315 -18.518  0.00  0.00    +0.085 C 
ENDROOT
BRANCH   1   4
ATOM      2  O   UNL     1      32.000 -20.206 -19.510  0.00  0.00    -0.275 OA
ATOM      3  N   UNL     1      34.208 -20.977 -19.710  0.00  0.00    -0.284 N 
ATOM      4  C   UNL     1      32.882 -21.030 -19.293  0.00  0.00    +0.226 C 
ATOM      5  H   UNL     1      34.774 -21.742 -19.458  0.00  0.00    +0.155 HD
BRANCH   3   6
ATOM      6  C   UNL     1      34.839 -19.949 -20.451  0.00  0.00    +0.050 C 
ATOM      7  C   UNL     1      34.804 -18.351 -22.262  0.00  0.00    +0.055 C 
ATOM      8  C   UNL     1      34.181 -19.363 -21.533  0.00  0.00    +0.019 C 
ATOM      9  C   UNL     1      36.119 -19.522 -20.098  0.00  0.00    +0.015 C 
ATOM     10  C   UNL     1      36.084 -17.923 -21.909  0.00  0.00    +0.005 C 
ATOM     11  C   UNL     1      36.742 -18.508 -20.827  0.00  0.00    +0.001 C 
BRANCH   7  14
ATOM     12  O   UNL     1      33.275 -18.381 -24.040  0.00  0.00    -0.270 OA
ATOM     13  N   UNL     1      34.438 -16.408 -23.681  0.00  0.00    -0.301 N 
ATOM     14  C   UNL     1      34.118 -17.739 -23.390  0.00  0.00    +0.246 C 
ATOM     15  H   UNL     1      35.116 -15.959 -23.126  0.00  0.00    +0.150 HD
BRANCH  13  16
ATOM     16  C   UNL     1      33.828 -15.656 -24.754  0.00  0.00    +0.090 C 
BRANCH  16  17
ATOM     17  C   UNL     1      33.102 -14.413 -24.252  0.00  0.00    +0.021 C 
BRANCH  17  18
ATOM     18  C   UNL     1      33.421 -14.094 -22.789  0.00  0.00    +0.002 C 
ATOM     19  C   UNL     1      33.575 -12.598 -22.567  0.00  0.00    +0.000 C 
ENDBRANCH  17  18
ENDBRANCH  16  17
ENDBRANCH  13  16
ENDBRANCH   7  14
ENDBRANCH   3   6
ENDBRANCH   1   4
BRANCH   1  20
ATOM     20  C   UNL     1      31.868 -22.099 -17.202  0.00  0.00    +0.010 C 
BRANCH  20  21
ATOM     21  C   UNL     1      32.366 -23.028 -16.089  0.00  0.00    +0.002 C 
BRANCH  21  22
ATOM     22  C   UNL     1      31.630 -22.758 -14.773  0.00  0.00    +0.021 C 
BRANCH  22  23
ATOM     23  C   UNL     1      32.401 -23.257 -13.555  0.00  0.00    +0.088 C 
BRANCH  23  24
ATOM     24  N   UNL     1      33.398 -24.227 -13.940  0.00  0.00    -0.320 N 
ATOM     25  N   UNL     1      35.569 -26.235 -14.749  0.00  0.00    -0.270 NA
ATOM     26  N   UNL     1      35.230 -22.725 -13.705  0.00  0.00    -0.232 NA
ATOM     27  N   UNL     1      37.740 -25.737 -14.840  0.00  0.00    -0.307 N 
ATOM     28  N   UNL     1      37.527 -23.416 -14.151  0.00  0.00    -0.232 NA
ATOM     29  C   UNL     1      34.754 -23.954 -14.006  0.00  0.00    +0.124 C 
ATOM     30  C   UNL     1      35.664 -24.922 -14.382  0.00  0.00    +0.164 C 
ATOM     31  C   UNL     1      37.022 -24.637 -14.446  0.00  0.00    +0.125 C 
ATOM     32  C   UNL     1      36.838 -26.680 -15.012  0.00  0.00    +0.163 C 
ATOM     33  C   UNL     1      36.568 -22.534 -13.794  0.00  0.00    +0.252 C 
ATOM     34  H   UNL     1      33.095 -25.136 -14.169  0.00  0.00    +0.148 HD
ATOM     35  H   UNL     1      34.742 -26.765 -14.811  0.00  0.00    +0.126 HD
ATOM     36  H   UNL     1      38.714 -25.806 -14.964  0.00  0.00    +0.149 HD
ENDBRANCH  23  24
ENDBRANCH  22  23
ENDBRANCH  21  22
ENDBRANCH  20  21
ENDBRANCH   1  20
TORSDOF 11
ENDMDL
MODEL 8
REMARK VINA RESULT:     -11.4      3.289     11.562
REMARK  Name = 24893974
REMARK  11 active torsions:
REMARK  status: ('A' for Active; 'I' for Inactive)
REMARK    1  A    between atoms: C_1  and  C_4
REMARK    2  A    between atoms: C_1  and  C_20
REMARK    3  A    between atoms: N_3  and  C_6
REMARK    4  A    between atoms: C_7  and  C_14
REMARK    5  A    between atoms: N_13  and  C_16
REMARK    6  A    between atoms: C_16  and  C_17
REMARK    7  A    between atoms: C_17  and  C_18
REMARK    8  A    between atoms: C_20  and  C_21
REMARK    9  A    between atoms: C_21  and  C_22
REMARK   10  A    between atoms: C_22  and  C_23
REMARK   11  A    between atoms: C_23  and  N_24
REMARK                            x       y       z     vdW  Elec       q    Type
REMARK                         _______ _______ _______ _____ _____    ______ ____
ROOT
ATOM      1  C   UNL     1      34.956 -20.838 -19.733  0.00  0.00    +0.085 C 
ENDROOT
BRANCH   1   4
ATOM      2  O   UNL     1      33.927 -22.666 -18.546  0.00  0.00    -0.275 OA
ATOM      3  N   UNL     1      35.667 -21.462 -17.530  0.00  0.00    -0.284 N 
ATOM      4  C   UNL     1      34.776 -21.781 -18.550  0.00  0.00    +0.226 C 
ATOM      5  H   UNL     1      36.270 -20.703 -17.700  0.00  0.00    +0.155 HD
BRANCH   3   6
ATOM      6  C   UNL     1      35.809 -22.104 -16.276  0.00  0.00    +0.050 C 
ATOM      7  C   UNL     1      34.819 -23.068 -14.295  0.00  0.00    +0.055 C 
ATOM      8  C   UNL     1      34.678 -22.437 -15.530  0.00  0.00    +0.019 C 
ATOM      9  C   UNL     1      37.081 -22.403 -15.787  0.00  0.00    +0.015 C 
ATOM     10  C   UNL     1      36.091 -23.368 -13.806  0.00  0.00    +0.005 C 
ATOM     11  C   UNL     1      37.222 -23.036 -14.552  0.00  0.00    +0.001 C 
BRANCH   7  14
ATOM     12  O   UNL     1      33.758 -23.910 -12.381  0.00  0.00    -0.270 OA
ATOM     13  N   UNL     1      32.395 -23.150 -14.096  0.00  0.00    -0.301 N 
ATOM     14  C   UNL     1      33.641 -23.417 -13.516  0.00  0.00    +0.246 C 
ATOM     15  H   UNL     1      32.375 -22.759 -14.999  0.00  0.00    +0.150 HD
BRANCH  13  16
ATOM     16  C   UNL     1      31.135 -23.418 -13.440  0.00  0.00    +0.090 C 
BRANCH  16  17
ATOM     17  C   UNL     1      29.953 -22.793 -14.172  0.00  0.00    +0.021 C 
BRANCH  17  18
ATOM     18  C   UNL     1      29.260 -23.777 -15.119  0.00  0.00    +0.002 C 
ATOM     19  C   UNL     1      28.784 -25.017 -14.381  0.00  0.00    +0.000 C 
ENDBRANCH  17  18
ENDBRANCH  16  17
ENDBRANCH  13  16
ENDBRANCH   7  14
ENDBRANCH   3   6
ENDBRANCH   1   4
BRANCH   1  20
ATOM     20  C   UNL     1      33.684 -20.083 -20.120  0.00  0.00    +0.010 C 
BRANCH  20  21
ATOM     21  C   UNL     1      33.871 -19.234 -21.383  0.00  0.00    +0.002 C 
BRANCH  21  22
ATOM     22  C   UNL     1      35.355 -19.089 -21.736  0.00  0.00    +0.021 C 
BRANCH  22  23
ATOM     23  C   UNL     1      35.819 -17.635 -21.739  0.00  0.00    +0.088 C 
BRANCH  23  24
ATOM     24  N   UNL     1      35.167 -16.891 -22.790  0.00  0.00    -0.320 N 
ATOM     25  N   UNL     1      33.758 -15.257 -24.968  0.00  0.00    -0.270 NA
ATOM     26  N   UNL     1      34.304 -15.218 -21.331  0.00  0.00    -0.232 NA
ATOM     27  N   UNL     1      32.602 -13.395 -24.563  0.00  0.00    -0.307 N 
ATOM     28  N   UNL     1      32.957 -13.360 -22.158  0.00  0.00    -0.232 NA
ATOM     29  C   UNL     1      34.443 -15.729 -22.575  0.00  0.00    +0.124 C 
ATOM     30  C   UNL     1      33.839 -15.057 -23.619  0.00  0.00    +0.164 C 
ATOM     31  C   UNL     1      33.114 -13.895 -23.392  0.00  0.00    +0.125 C 
ATOM     32  C   UNL     1      33.008 -14.236 -25.490  0.00  0.00    +0.163 C 
ATOM     33  C   UNL     1      33.580 -14.081 -21.201  0.00  0.00    +0.252 C 
ATOM     34  H   UNL     1      35.242 -17.229 -23.712  0.00  0.00    +0.148 HD
ATOM     35  H   UNL     1      34.164 -15.998 -25.473  0.00  0.00    +0.126 HD
ATOM     36  H   UNL     1      32.054 -12.586 -24.682  0.00  0.00    +0.149 HD
ENDBRANCH  23  24
ENDBRANCH  22  23
ENDBRANCH  21  22
ENDBRANCH  20  21
ENDBRANCH   1  20
TORSDOF 11
ENDMDL
MODEL 9
REMARK VINA RESULT:     -11.3      4.150      5.600
REMARK  Name = 24893974
REMARK  11 active torsions:
REMARK  status: ('A' for Active; 'I' for Inactive)
REMARK    1  A    between atoms: C_1  and  C_4
REMARK    2  A    between atoms: C_1  and  C_20
REMARK    3  A    between atoms: N_3  and  C_6
REMARK    4  A    between atoms: C_7  and  C_14
REMARK    5  A    between atoms: N_13  and  C_16
REMARK    6  A    between atoms: C_16  and  C_17
REMARK    7  A    between atoms: C_17  and  C_18
REMARK    8  A    between atoms: C_20  and  C_21
REMARK    9  A    between atoms: C_21  and  C_22
REMARK   10  A    between atoms: C_22  and  C_23
REMARK   11  A    between atoms: C_23  and  N_24
REMARK                            x       y       z     vdW  Elec       q    Type
REMARK                         _______ _______ _______ _____ _____    ______ ____
ROOT
ATOM      1  C   UNL     1      36.321 -19.497 -20.170  0.00  0.00    +0.085 C 
ENDROOT
BRANCH   1   4
ATOM      2  O   UNL     1      37.309 -17.897 -21.678  0.00  0.00    -0.275 OA
ATOM      3  N   UNL     1      34.979 -17.928 -21.390  0.00  0.00    -0.284 N 
ATOM      4  C   UNL     1      36.287 -18.354 -21.177  0.00  0.00    +0.226 C 
ATOM      5  H   UNL     1      34.280 -18.402 -20.885  0.00  0.00    +0.155 HD
BRANCH   3   6
ATOM      6  C   UNL     1      34.538 -16.894 -22.251  0.00  0.00    +0.050 C 
ATOM      7  C   UNL     1      33.815 -14.614 -22.582  0.00  0.00    +0.055 C 
ATOM      8  C   UNL     1      34.250 -15.631 -21.734  0.00  0.00    +0.019 C 
ATOM      9  C   UNL     1      34.392 -17.140 -23.616  0.00  0.00    +0.015 C 
ATOM     10  C   UNL     1      33.669 -14.859 -23.948  0.00  0.00    +0.005 C 
ATOM     11  C   UNL     1      33.958 -16.122 -24.465  0.00  0.00    +0.001 C 
BRANCH   7  14
ATOM     12  O   UNL     1      34.069 -12.898 -21.005  0.00  0.00    -0.270 OA
ATOM     13  N   UNL     1      32.606 -12.509 -22.762  0.00  0.00    -0.301 N 
ATOM     14  C   UNL     1      33.516 -13.296 -22.045  0.00  0.00    +0.246 C 
ATOM     15  H   UNL     1      32.205 -12.887 -23.577  0.00  0.00    +0.150 HD
BRANCH  13  16
ATOM     16  C   UNL     1      32.224 -11.172 -22.369  0.00  0.00    +0.090 C 
BRANCH  16  17
ATOM     17  C   UNL     1      31.319 -11.162 -21.142  0.00  0.00    +0.021 C 
BRANCH  17  18
ATOM     18  C   UNL     1      30.831  -9.756 -20.782  0.00  0.00    +0.002 C 
ATOM     19  C   UNL     1      30.884  -9.518 -19.281  0.00  0.00    +0.000 C 
ENDBRANCH  17  18
ENDBRANCH  16  17
ENDBRANCH  13  16
ENDBRANCH   7  14
ENDBRANCH   3   6
ENDBRANCH   1   4
BRANCH   1  20
ATOM     20  C   UNL     1      35.156 -20.478 -20.308  0.00  0.00    +0.010 C 
BRANCH  20  21
ATOM     21  C   UNL     1      34.824 -21.179 -18.987  0.00  0.00    +0.002 C 
BRANCH  21  22
ATOM     22  C   UNL     1      33.404 -21.752 -19.007  0.00  0.00    +0.021 C 
BRANCH  22  23
ATOM     23  C   UNL     1      33.016 -22.410 -17.686  0.00  0.00    +0.088 C 
BRANCH  23  24
ATOM     24  N   UNL     1      31.598 -22.286 -17.448  0.00  0.00    -0.320 N 
ATOM     25  N   UNL     1      28.594 -22.058 -16.874  0.00  0.00    -0.270 NA
ATOM     26  N   UNL     1      31.664 -23.366 -15.327  0.00  0.00    -0.232 NA
ATOM     27  N   UNL     1      27.629 -22.829 -15.018  0.00  0.00    -0.307 N 
ATOM     28  N   UNL     1      29.652 -23.696 -13.987  0.00  0.00    -0.232 NA
ATOM     29  C   UNL     1      30.964 -22.751 -16.307  0.00  0.00    +0.124 C 
ATOM     30  C   UNL     1      29.602 -22.606 -16.132  0.00  0.00    +0.164 C 
ATOM     31  C   UNL     1      28.978 -23.077 -14.985  0.00  0.00    +0.125 C 
ATOM     32  C   UNL     1      27.432 -22.215 -16.166  0.00  0.00    +0.163 C 
ATOM     33  C   UNL     1      30.975 -23.794 -14.242  0.00  0.00    +0.252 C 
ATOM     34  H   UNL     1      31.049 -21.846 -18.138  0.00  0.00    +0.148 HD
ATOM     35  H   UNL     1      28.686 -21.629 -17.755  0.00  0.00    +0.126 HD
ATOM     36  H   UNL     1      26.958 -23.058 -14.336  0.00  0.00    +0.149 HD
ENDBRANCH  23  24
ENDBRANCH  22  23
ENDBRANCH  21  22
ENDBRANCH  20  21
ENDBRANCH   1  20
TORSDOF 11
ENDMDL
