MODEL 1
REMARK VINA RESULT:     -10.9      0.000      0.000
REMARK  Name = 62956
REMARK  11 active torsions:
REMARK  status: ('A' for Active; 'I' for Inactive)
REMARK    1  A    between atoms: C_3  and  C_8
REMARK    2  A    between atoms: C_6  and  C_15
REMARK    3  A    between atoms: C_7  and  C_18
REMARK    4  A    between atoms: C_15  and  O_16
REMARK    5  A    between atoms: C_18  and  P_19
REMARK    6  A    between atoms: P_19  and  O_21
REMARK    7  A    between atoms: P_19  and  C_23
REMARK    8  A    between atoms: C_23  and  C_24
REMARK    9  A    between atoms: C_24  and  C_25
REMARK   10  A    between atoms: C_25  and  C_26
REMARK   11  A    between atoms: C_26  and  C_27
REMARK                            x       y       z     vdW  Elec       q    Type
REMARK                         _______ _______ _______ _____ _____    ______ ____
ROOT
ATOM      1  O   UNL     1      38.302 -23.851 -11.844  0.00  0.00    -0.274 OA
ATOM      2  N   UNL     1      36.125 -24.186 -12.554  0.00  0.00    -0.271 N 
ATOM      3  C   UNL     1      33.785 -24.359 -12.884  0.00  0.00    +0.022 C 
ATOM      4  C   UNL     1      34.098 -23.039 -12.169  0.00  0.00    +0.033 C 
ATOM      5  C   UNL     1      35.138 -24.762 -13.466  0.00  0.00    +0.094 C 
ATOM      6  C   UNL     1      35.502 -23.258 -11.619  0.00  0.00    +0.174 C 
ATOM      7  C   UNL     1      37.499 -24.353 -12.632  0.00  0.00    +0.236 C 
ENDROOT
BRANCH   3   8
ATOM      8  C   UNL     1      32.688 -24.226 -13.939  0.00  0.00    +0.002 C 
ATOM      9  C   UNL     1      32.741 -22.845 -14.606  0.00  0.00    +0.000 C 
ATOM     10  C   UNL     1      31.306 -24.479 -13.318  0.00  0.00    +0.000 C 
ATOM     11  C   UNL     1      31.620 -22.668 -15.627  0.00  0.00    +0.000 C 
ATOM     12  C   UNL     1      30.187 -24.300 -14.341  0.00  0.00    +0.000 C 
ATOM     13  C   UNL     1      30.250 -22.930 -15.009  0.00  0.00    +0.000 C 
ENDBRANCH   3   8
BRANCH   6  15
ATOM     14  O   UNL     1      34.865 -24.952 -10.015  0.00  0.00    -0.248 OA
ATOM     15  C   UNL     1      35.480 -23.930 -10.278  0.00  0.00    +0.332 C 
BRANCH  15  16
ATOM     16  O   UNL     1      36.237 -23.245  -9.387  0.00  0.00    -0.479 OA
ATOM     17  H   UNL     1      37.171 -23.309  -9.419  0.00  0.00    +0.295 HD
ENDBRANCH  15  16
ENDBRANCH   6  15
BRANCH   7  18
ATOM     18  C   UNL     1      37.985 -25.219 -13.767  0.00  0.00    +0.172 C 
BRANCH  18  19
ATOM     19  P   UNL     1      39.266 -24.407 -14.721  0.00  0.00    +0.229 P 
ATOM     20  O   UNL     1      40.378 -23.856 -13.889  0.00  0.00    -0.289 OA
BRANCH  19  21
ATOM     21  O   UNL     1      39.718 -25.551 -15.766  0.00  0.00    -0.342 OA
ATOM     22  H   UNL     1      38.932 -26.004 -16.110  0.00  0.00    +0.218 HD
ENDBRANCH  19  21
BRANCH  19  23
ATOM     23  C   UNL     1      38.445 -23.212 -15.744  0.00  0.00    +0.087 C 
BRANCH  23  24
ATOM     24  C   UNL     1      37.327 -22.463 -15.028  0.00  0.00    +0.011 C 
BRANCH  24  25
ATOM     25  C   UNL     1      36.155 -22.150 -15.964  0.00  0.00    +0.005 C 
BRANCH  25  26
ATOM     26  C   UNL     1      36.608 -21.645 -17.339  0.00  0.00    +0.026 C 
BRANCH  26  27
ATOM     27  C   UNL     1      35.469 -21.316 -18.271  0.00  0.00    -0.022 C 
ATOM     28  C   UNL     1      34.209 -21.836 -18.019  0.00  0.00    -0.004 C 
ATOM     29  C   UNL     1      35.700 -20.496 -19.366  0.00  0.00    -0.004 C 
ATOM     30  C   UNL     1      33.156 -21.532 -18.881  0.00  0.00    -0.000 C 
ATOM     31  C   UNL     1      34.647 -20.190 -20.228  0.00  0.00    -0.000 C 
ATOM     32  C   UNL     1      33.375 -20.708 -19.985  0.00  0.00    -0.000 C 
ENDBRANCH  26  27
ENDBRANCH  25  26
ENDBRANCH  24  25
ENDBRANCH  23  24
ENDBRANCH  19  23
ENDBRANCH  18  19
ENDBRANCH   7  18
TORSDOF 11
ENDMDL
MODEL 2
REMARK VINA RESULT:     -10.8      4.327      6.363
REMARK  Name = 62956
REMARK  11 active torsions:
REMARK  status: ('A' for Active; 'I' for Inactive)
REMARK    1  A    between atoms: C_3  and  C_8
REMARK    2  A    between atoms: C_6  and  C_15
REMARK    3  A    between atoms: C_7  and  C_18
REMARK    4  A    between atoms: C_15  and  O_16
REMARK    5  A    between atoms: C_18  and  P_19
REMARK    6  A    between atoms: P_19  and  O_21
REMARK    7  A    between atoms: P_19  and  C_23
REMARK    8  A    between atoms: C_23  and  C_24
REMARK    9  A    between atoms: C_24  and  C_25
REMARK   10  A    between atoms: C_25  and  C_26
REMARK   11  A    between atoms: C_26  and  C_27
REMARK                            x       y       z     vdW  Elec       q    Type
REMARK                         _______ _______ _______ _____ _____    ______ ____
ROOT
ATOM      1  O   UNL     1      31.528 -22.771 -16.972  0.00  0.00    -0.274 OA
ATOM      2  N   UNL     1      32.978 -23.113 -15.201  0.00  0.00    -0.271 N 
ATOM      3  C   UNL     1      34.091 -23.550 -13.155  0.00  0.00    +0.022 C 
ATOM      4  C   UNL     1      32.942 -24.551 -13.329  0.00  0.00    +0.033 C 
ATOM      5  C   UNL     1      34.293 -23.013 -14.570  0.00  0.00    +0.094 C 
ATOM      6  C   UNL     1      32.059 -23.897 -14.385  0.00  0.00    +0.174 C 
ATOM      7  C   UNL     1      32.649 -22.670 -16.472  0.00  0.00    +0.236 C 
ENDROOT
BRANCH   3   8
ATOM      8  C   UNL     1      35.350 -24.178 -12.561  0.00  0.00    +0.002 C 
ATOM      9  C   UNL     1      36.339 -23.094 -12.113  0.00  0.00    +0.000 C 
ATOM     10  C   UNL     1      36.006 -25.133 -13.569  0.00  0.00    +0.000 C 
ATOM     11  C   UNL     1      37.629 -23.699 -11.566  0.00  0.00    +0.000 C 
ATOM     12  C   UNL     1      37.296 -25.735 -13.018  0.00  0.00    +0.000 C 
ATOM     13  C   UNL     1      38.273 -24.654 -12.566  0.00  0.00    +0.000 C 
ENDBRANCH   3   8
BRANCH   6  15
ATOM     14  O   UNL     1      31.184 -22.430 -12.674  0.00  0.00    -0.248 OA
ATOM     15  C   UNL     1      31.077 -22.940 -13.779  0.00  0.00    +0.332 C 
BRANCH  15  16
ATOM     16  O   UNL     1      30.044 -22.714 -14.627  0.00  0.00    -0.479 OA
ATOM     17  H   UNL     1      29.479 -23.419 -14.877  0.00  0.00    +0.295 HD
ENDBRANCH  15  16
ENDBRANCH   6  15
BRANCH   7  18
ATOM     18  C   UNL     1      33.771 -22.022 -17.245  0.00  0.00    +0.172 C 
BRANCH  18  19
ATOM     19  P   UNL     1      33.499 -22.110 -19.013  0.00  0.00    +0.229 P 
ATOM     20  O   UNL     1      33.485 -23.505 -19.551  0.00  0.00    -0.289 OA
BRANCH  19  21
ATOM     21  O   UNL     1      32.112 -21.307 -19.206  0.00  0.00    -0.342 OA
ATOM     22  H   UNL     1      31.997 -20.681 -18.474  0.00  0.00    +0.218 HD
ENDBRANCH  19  21
BRANCH  19  23
ATOM     23  C   UNL     1      34.704 -21.043 -19.759  0.00  0.00    +0.087 C 
BRANCH  23  24
ATOM     24  C   UNL     1      34.095 -19.859 -20.498  0.00  0.00    +0.011 C 
BRANCH  24  25
ATOM     25  C   UNL     1      35.162 -18.862 -20.964  0.00  0.00    +0.005 C 
BRANCH  25  26
ATOM     26  C   UNL     1      34.995 -18.452 -22.432  0.00  0.00    +0.026 C 
BRANCH  26  27
ATOM     27  C   UNL     1      34.564 -17.019 -22.618  0.00  0.00    -0.022 C 
ATOM     28  C   UNL     1      34.213 -16.570 -23.882  0.00  0.00    -0.004 C 
ATOM     29  C   UNL     1      34.525 -16.172 -21.519  0.00  0.00    -0.004 C 
ATOM     30  C   UNL     1      33.814 -15.245 -24.053  0.00  0.00    -0.000 C 
ATOM     31  C   UNL     1      34.125 -14.846 -21.690  0.00  0.00    -0.000 C 
ATOM     32  C   UNL     1      33.770 -14.383 -22.957  0.00  0.00    -0.000 C 
ENDBRANCH  26  27
ENDBRANCH  25  26
ENDBRANCH  24  25
ENDBRANCH  23  24
ENDBRANCH  19  23
ENDBRANCH  18  19
ENDBRANCH   7  18
TORSDOF 11
ENDMDL
MODEL 3
REMARK VINA RESULT:     -10.5      3.855      6.110
REMARK  Name = 62956
REMARK  11 active torsions:
REMARK  status: ('A' for Active; 'I' for Inactive)
REMARK    1  A    between atoms: C_3  and  C_8
REMARK    2  A    between atoms: C_6  and  C_15
REMARK    3  A    between atoms: C_7  and  C_18
REMARK    4  A    between atoms: C_15  and  O_16
REMARK    5  A    between atoms: C_18  and  P_19
REMARK    6  A    between atoms: P_19  and  O_21
REMARK    7  A    between atoms: P_19  and  C_23
REMARK    8  A    between atoms: C_23  and  C_24
REMARK    9  A    between atoms: C_24  and  C_25
REMARK   10  A    between atoms: C_25  and  C_26
REMARK   11  A    between atoms: C_26  and  C_27
REMARK                            x       y       z     vdW  Elec       q    Type
REMARK                         _______ _______ _______ _____ _____    ______ ____
ROOT
ATOM      1  O   UNL     1      32.382 -23.115 -16.374  0.00  0.00    -0.274 OA
ATOM      2  N   UNL     1      34.387 -23.235 -15.225  0.00  0.00    -0.271 N 
ATOM      3  C   UNL     1      36.192 -23.523 -13.717  0.00  0.00    +0.022 C 
ATOM      4  C   UNL     1      35.241 -24.721 -13.601  0.00  0.00    +0.033 C 
ATOM      5  C   UNL     1      35.802 -22.906 -15.058  0.00  0.00    +0.094 C 
ATOM      6  C   UNL     1      33.952 -24.211 -14.235  0.00  0.00    +0.174 C 
ATOM      7  C   UNL     1      33.572 -22.817 -16.266  0.00  0.00    +0.236 C 
ENDROOT
BRANCH   3   8
ATOM      8  C   UNL     1      37.666 -23.918 -13.639  0.00  0.00    +0.002 C 
ATOM      9  C   UNL     1      38.325 -23.835 -15.022  0.00  0.00    +0.000 C 
ATOM     10  C   UNL     1      37.819 -25.325 -13.044  0.00  0.00    +0.000 C 
ATOM     11  C   UNL     1      39.785 -24.277 -14.978  0.00  0.00    +0.000 C 
ATOM     12  C   UNL     1      39.280 -25.764 -13.003  0.00  0.00    +0.000 C 
ATOM     13  C   UNL     1      39.934 -25.672 -14.379  0.00  0.00    +0.000 C 
ENDBRANCH   3   8
BRANCH   6  15
ATOM     14  O   UNL     1      31.899 -23.251 -13.391  0.00  0.00    -0.248 OA
ATOM     15  C   UNL     1      33.090 -23.485 -13.246  0.00  0.00    +0.332 C 
BRANCH  15  16
ATOM     16  O   UNL     1      33.813 -23.118 -12.160  0.00  0.00    -0.479 OA
ATOM     17  H   UNL     1      34.087 -22.228 -12.059  0.00  0.00    +0.295 HD
ENDBRANCH  15  16
ENDBRANCH   6  15
BRANCH   7  18
ATOM     18  C   UNL     1      34.234 -21.937 -17.297  0.00  0.00    +0.172 C 
BRANCH  18  19
ATOM     19  P   UNL     1      33.368 -21.982 -18.864  0.00  0.00    +0.229 P 
ATOM     20  O   UNL     1      33.436 -23.308 -19.551  0.00  0.00    -0.289 OA
BRANCH  19  21
ATOM     21  O   UNL     1      31.876 -21.514 -18.466  0.00  0.00    -0.342 OA
ATOM     22  H   UNL     1      31.865 -20.553 -18.329  0.00  0.00    +0.218 HD
ENDBRANCH  19  21
BRANCH  19  23
ATOM     23  C   UNL     1      33.990 -20.622 -19.819  0.00  0.00    +0.087 C 
BRANCH  23  24
ATOM     24  C   UNL     1      35.509 -20.504 -19.793  0.00  0.00    +0.011 C 
BRANCH  24  25
ATOM     25  C   UNL     1      36.021 -19.462 -20.793  0.00  0.00    +0.005 C 
BRANCH  25  26
ATOM     26  C   UNL     1      35.234 -18.148 -20.742  0.00  0.00    +0.026 C 
BRANCH  26  27
ATOM     27  C   UNL     1      34.669 -17.725 -22.074  0.00  0.00    -0.022 C 
ATOM     28  C   UNL     1      34.103 -18.677 -22.909  0.00  0.00    -0.004 C 
ATOM     29  C   UNL     1      34.724 -16.389 -22.444  0.00  0.00    -0.004 C 
ATOM     30  C   UNL     1      33.581 -18.285 -24.141  0.00  0.00    -0.000 C 
ATOM     31  C   UNL     1      34.201 -15.997 -23.677  0.00  0.00    -0.000 C 
ATOM     32  C   UNL     1      33.630 -16.945 -24.524  0.00  0.00    -0.000 C 
ENDBRANCH  26  27
ENDBRANCH  25  26
ENDBRANCH  24  25
ENDBRANCH  23  24
ENDBRANCH  19  23
ENDBRANCH  18  19
ENDBRANCH   7  18
TORSDOF 11
ENDMDL
MODEL 4
REMARK VINA RESULT:     -10.1      4.283      5.932
REMARK  Name = 62956
REMARK  11 active torsions:
REMARK  status: ('A' for Active; 'I' for Inactive)
REMARK    1  A    between atoms: C_3  and  C_8
REMARK    2  A    between atoms: C_6  and  C_15
REMARK    3  A    between atoms: C_7  and  C_18
REMARK    4  A    between atoms: C_15  and  O_16
REMARK    5  A    between atoms: C_18  and  P_19
REMARK    6  A    between atoms: P_19  and  O_21
REMARK    7  A    between atoms: P_19  and  C_23
REMARK    8  A    between atoms: C_23  and  C_24
REMARK    9  A    between atoms: C_24  and  C_25
REMARK   10  A    between atoms: C_25  and  C_26
REMARK   11  A    between atoms: C_26  and  C_27
REMARK                            x       y       z     vdW  Elec       q    Type
REMARK                         _______ _______ _______ _____ _____    ______ ____
ROOT
ATOM      1  O   UNL     1      36.435 -21.501 -17.403  0.00  0.00    -0.274 OA
ATOM      2  N   UNL     1      34.549 -22.396 -16.403  0.00  0.00    -0.271 N 
ATOM      3  C   UNL     1      32.905 -23.461 -15.070  0.00  0.00    +0.022 C 
ATOM      4  C   UNL     1      33.931 -22.777 -14.156  0.00  0.00    +0.033 C 
ATOM      5  C   UNL     1      33.139 -22.779 -16.416  0.00  0.00    +0.094 C 
ATOM      6  C   UNL     1      35.127 -22.551 -15.074  0.00  0.00    +0.174 C 
ATOM      7  C   UNL     1      35.243 -21.811 -17.451  0.00  0.00    +0.236 C 
ENDROOT
BRANCH   3   8
ATOM      8  C   UNL     1      31.470 -23.328 -14.565  0.00  0.00    +0.002 C 
ATOM      9  C   UNL     1      30.942 -24.680 -14.067  0.00  0.00    +0.000 C 
ATOM     10  C   UNL     1      30.560 -22.758 -15.663  0.00  0.00    +0.000 C 
ATOM     11  C   UNL     1      29.489 -24.584 -13.607  0.00  0.00    +0.000 C 
ATOM     12  C   UNL     1      29.109 -22.665 -15.201  0.00  0.00    +0.000 C 
ATOM     13  C   UNL     1      28.590 -24.009 -14.698  0.00  0.00    +0.000 C 
ENDBRANCH   3   8
BRANCH   6  15
ATOM     14  O   UNL     1      35.658 -24.911 -15.073  0.00  0.00    -0.248 OA
ATOM     15  C   UNL     1      36.030 -23.748 -15.121  0.00  0.00    +0.332 C 
BRANCH  15  16
ATOM     16  O   UNL     1      37.326 -23.365 -15.223  0.00  0.00    -0.479 OA
ATOM     17  H   UNL     1      37.581 -22.741 -15.873  0.00  0.00    +0.295 HD
ENDBRANCH  15  16
ENDBRANCH   6  15
BRANCH   7  18
ATOM     18  C   UNL     1      34.443 -21.571 -18.707  0.00  0.00    +0.172 C 
BRANCH  18  19
ATOM     19  P   UNL     1      35.289 -20.464 -19.833  0.00  0.00    +0.229 P 
ATOM     20  O   UNL     1      36.314 -19.601 -19.171  0.00  0.00    -0.289 OA
BRANCH  19  21
ATOM     21  O   UNL     1      35.881 -21.467 -20.949  0.00  0.00    -0.342 OA
ATOM     22  H   UNL     1      35.528 -22.359 -20.802  0.00  0.00    +0.218 HD
ENDBRANCH  19  21
BRANCH  19  23
ATOM     23  C   UNL     1      34.024 -19.574 -20.703  0.00  0.00    +0.087 C 
BRANCH  23  24
ATOM     24  C   UNL     1      34.465 -19.071 -22.072  0.00  0.00    +0.011 C 
BRANCH  24  25
ATOM     25  C   UNL     1      35.241 -17.752 -21.977  0.00  0.00    +0.005 C 
BRANCH  25  26
ATOM     26  C   UNL     1      34.632 -16.773 -20.967  0.00  0.00    +0.026 C 
BRANCH  26  27
ATOM     27  C   UNL     1      34.257 -15.439 -21.564  0.00  0.00    -0.022 C 
ATOM     28  C   UNL     1      33.953 -14.378 -20.725  0.00  0.00    -0.004 C 
ATOM     29  C   UNL     1      34.224 -15.296 -22.943  0.00  0.00    -0.004 C 
ATOM     30  C   UNL     1      33.606 -13.146 -21.277  0.00  0.00    -0.000 C 
ATOM     31  C   UNL     1      33.878 -14.062 -23.495  0.00  0.00    -0.000 C 
ATOM     32  C   UNL     1      33.570 -12.987 -22.662  0.00  0.00    -0.000 C 
ENDBRANCH  26  27
ENDBRANCH  25  26
ENDBRANCH  24  25
ENDBRANCH  23  24
ENDBRANCH  19  23
ENDBRANCH  18  19
ENDBRANCH   7  18
TORSDOF 11
ENDMDL
MODEL 5
REMARK VINA RESULT:     -10.1     10.220     13.107
REMARK  Name = 62956
REMARK  11 active torsions:
REMARK  status: ('A' for Active; 'I' for Inactive)
REMARK    1  A    between atoms: C_3  and  C_8
REMARK    2  A    between atoms: C_6  and  C_15
REMARK    3  A    between atoms: C_7  and  C_18
REMARK    4  A    between atoms: C_15  and  O_16
REMARK    5  A    between atoms: C_18  and  P_19
REMARK    6  A    between atoms: P_19  and  O_21
REMARK    7  A    between atoms: P_19  and  C_23
REMARK    8  A    between atoms: C_23  and  C_24
REMARK    9  A    between atoms: C_24  and  C_25
REMARK   10  A    between atoms: C_25  and  C_26
REMARK   11  A    between atoms: C_26  and  C_27
REMARK                            x       y       z     vdW  Elec       q    Type
REMARK                         _______ _______ _______ _____ _____    ______ ____
ROOT
ATOM      1  O   UNL     1      34.676 -14.990 -24.176  0.00  0.00    -0.274 OA
ATOM      2  N   UNL     1      34.198 -16.704 -22.696  0.00  0.00    -0.271 N 
ATOM      3  C   UNL     1      33.679 -18.711 -21.547  0.00  0.00    +0.022 C 
ATOM      4  C   UNL     1      34.642 -19.023 -22.701  0.00  0.00    +0.033 C 
ATOM      5  C   UNL     1      33.837 -17.202 -21.370  0.00  0.00    +0.094 C 
ATOM      6  C   UNL     1      34.524 -17.798 -23.601  0.00  0.00    +0.174 C 
ATOM      7  C   UNL     1      34.371 -15.374 -23.046  0.00  0.00    +0.236 C 
ENDROOT
BRANCH   3   8
ATOM      8  C   UNL     1      33.985 -19.505 -20.279  0.00  0.00    +0.002 C 
ATOM      9  C   UNL     1      35.324 -20.243 -20.410  0.00  0.00    +0.000 C 
ATOM     10  C   UNL     1      32.847 -20.488 -19.968  0.00  0.00    +0.000 C 
ATOM     11  C   UNL     1      35.625 -21.088 -19.174  0.00  0.00    +0.000 C 
ATOM     12  C   UNL     1      33.152 -21.332 -18.733  0.00  0.00    +0.000 C 
ATOM     13  C   UNL     1      34.489 -22.057 -18.863  0.00  0.00    +0.000 C 
ENDBRANCH   3   8
BRANCH   6  15
ATOM     14  O   UNL     1      32.765 -18.951 -24.794  0.00  0.00    -0.248 OA
ATOM     15  C   UNL     1      33.388 -17.924 -24.572  0.00  0.00    +0.332 C 
BRANCH  15  16
ATOM     16  O   UNL     1      33.142 -16.737 -25.177  0.00  0.00    -0.479 OA
ATOM     17  H   UNL     1      33.240 -15.937 -24.698  0.00  0.00    +0.295 HD
ENDBRANCH  15  16
ENDBRANCH   6  15
BRANCH   7  18
ATOM     18  C   UNL     1      34.150 -14.376 -21.936  0.00  0.00    +0.172 C 
BRANCH  18  19
ATOM     19  P   UNL     1      33.047 -13.056 -22.439  0.00  0.00    +0.229 P 
ATOM     20  O   UNL     1      33.743 -11.761 -22.708  0.00  0.00    -0.289 OA
BRANCH  19  21
ATOM     21  O   UNL     1      32.289 -13.686 -23.717  0.00  0.00    -0.342 OA
ATOM     22  H   UNL     1      31.902 -14.542 -23.474  0.00  0.00    +0.218 HD
ENDBRANCH  19  21
BRANCH  19  23
ATOM     23  C   UNL     1      31.776 -12.969 -21.203  0.00  0.00    +0.087 C 
BRANCH  23  24
ATOM     24  C   UNL     1      31.903 -11.762 -20.283  0.00  0.00    +0.011 C 
BRANCH  24  25
ATOM     25  C   UNL     1      31.017 -10.597 -20.739  0.00  0.00    +0.005 C 
BRANCH  25  26
ATOM     26  C   UNL     1      31.050  -9.408 -19.772  0.00  0.00    +0.026 C 
BRANCH  26  27
ATOM     27  C   UNL     1      31.501  -8.118 -20.410  0.00  0.00    -0.022 C 
ATOM     28  C   UNL     1      31.524  -6.955 -19.655  0.00  0.00    -0.004 C 
ATOM     29  C   UNL     1      31.888  -8.116 -21.742  0.00  0.00    -0.004 C 
ATOM     30  C   UNL     1      31.940  -5.762 -20.246  0.00  0.00    -0.000 C 
ATOM     31  C   UNL     1      32.305  -6.923 -22.333  0.00  0.00    -0.000 C 
ATOM     32  C   UNL     1      32.332  -5.747 -21.584  0.00  0.00    -0.000 C 
ENDBRANCH  26  27
ENDBRANCH  25  26
ENDBRANCH  24  25
ENDBRANCH  23  24
ENDBRANCH  19  23
ENDBRANCH  18  19
ENDBRANCH   7  18
TORSDOF 11
ENDMDL
MODEL 6
REMARK VINA RESULT:     -10.0     13.518     17.050
REMARK  Name = 62956
REMARK  11 active torsions:
REMARK  status: ('A' for Active; 'I' for Inactive)
REMARK    1  A    between atoms: C_3  and  C_8
REMARK    2  A    between atoms: C_6  and  C_15
REMARK    3  A    between atoms: C_7  and  C_18
REMARK    4  A    between atoms: C_15  and  O_16
REMARK    5  A    between atoms: C_18  and  P_19
REMARK    6  A    between atoms: P_19  and  O_21
REMARK    7  A    between atoms: P_19  and  C_23
REMARK    8  A    between atoms: C_23  and  C_24
REMARK    9  A    between atoms: C_24  and  C_25
REMARK   10  A    between atoms: C_25  and  C_26
REMARK   11  A    between atoms: C_26  and  C_27
REMARK                            x       y       z     vdW  Elec       q    Type
REMARK                         _______ _______ _______ _____ _____    ______ ____
ROOT
ATOM      1  O   UNL     1      31.519  -9.145 -19.636  0.00  0.00    -0.274 OA
ATOM      2  N   UNL     1      31.940  -7.917 -21.552  0.00  0.00    -0.271 N 
ATOM      3  C   UNL     1      32.478  -6.333 -23.230  0.00  0.00    +0.022 C 
ATOM      4  C   UNL     1      33.485  -6.211 -22.079  0.00  0.00    +0.033 C 
ATOM      5  C   UNL     1      31.857  -7.708 -22.996  0.00  0.00    +0.094 C 
ATOM      6  C   UNL     1      32.784  -6.911 -20.920  0.00  0.00    +0.174 C 
ATOM      7  C   UNL     1      31.430  -9.002 -20.856  0.00  0.00    +0.236 C 
ENDROOT
BRANCH   3   8
ATOM      8  C   UNL     1      33.120  -6.185 -24.607  0.00  0.00    +0.002 C 
ATOM      9  C   UNL     1      34.159  -5.055 -24.604  0.00  0.00    +0.000 C 
ATOM     10  C   UNL     1      32.050  -5.938 -25.681  0.00  0.00    +0.000 C 
ATOM     11  C   UNL     1      34.776  -4.852 -25.986  0.00  0.00    +0.000 C 
ATOM     12  C   UNL     1      32.671  -5.735 -27.060  0.00  0.00    +0.000 C 
ATOM     13  C   UNL     1      33.710  -4.617 -27.050  0.00  0.00    +0.000 C 
ENDBRANCH   3   8
BRANCH   6  15
ATOM     14  O   UNL     1      30.781  -5.607 -20.555  0.00  0.00    -0.248 OA
ATOM     15  C   UNL     1      31.878  -5.981 -20.169  0.00  0.00    +0.332 C 
BRANCH  15  16
ATOM     16  O   UNL     1      32.443  -5.606 -18.996  0.00  0.00    -0.479 OA
ATOM     17  H   UNL     1      31.909  -5.265 -18.306  0.00  0.00    +0.295 HD
ENDBRANCH  15  16
ENDBRANCH   6  15
BRANCH   7  18
ATOM     18  C   UNL     1      30.722 -10.037 -21.694  0.00  0.00    +0.172 C 
BRANCH  18  19
ATOM     19  P   UNL     1      31.645 -11.571 -21.775  0.00  0.00    +0.229 P 
ATOM     20  O   UNL     1      31.953 -12.158 -20.436  0.00  0.00    -0.289 OA
BRANCH  19  21
ATOM     21  O   UNL     1      30.718 -12.500 -22.715  0.00  0.00    -0.342 OA
ATOM     22  H   UNL     1      30.541 -12.040 -23.550  0.00  0.00    +0.218 HD
ENDBRANCH  19  21
BRANCH  19  23
ATOM     23  C   UNL     1      33.067 -11.246 -22.785  0.00  0.00    +0.087 C 
BRANCH  23  24
ATOM     24  C   UNL     1      33.437 -12.401 -23.707  0.00  0.00    +0.011 C 
BRANCH  24  25
ATOM     25  C   UNL     1      33.847 -13.653 -22.924  0.00  0.00    +0.005 C 
BRANCH  25  26
ATOM     26  C   UNL     1      33.797 -14.930 -23.771  0.00  0.00    +0.026 C 
BRANCH  26  27
ATOM     27  C   UNL     1      34.197 -16.174 -23.019  0.00  0.00    -0.022 C 
ATOM     28  C   UNL     1      34.154 -17.402 -23.660  0.00  0.00    -0.004 C 
ATOM     29  C   UNL     1      34.604 -16.069 -21.696  0.00  0.00    -0.004 C 
ATOM     30  C   UNL     1      34.525 -18.553 -22.964  0.00  0.00    -0.000 C 
ATOM     31  C   UNL     1      34.975 -17.220 -21.000  0.00  0.00    -0.000 C 
ATOM     32  C   UNL     1      34.936 -18.461 -21.635  0.00  0.00    -0.000 C 
ENDBRANCH  26  27
ENDBRANCH  25  26
ENDBRANCH  24  25
ENDBRANCH  23  24
ENDBRANCH  19  23
ENDBRANCH  18  19
ENDBRANCH   7  18
TORSDOF 11
ENDMDL
MODEL 7
REMARK VINA RESULT:      -9.8     14.228     17.818
REMARK  Name = 62956
REMARK  11 active torsions:
REMARK  status: ('A' for Active; 'I' for Inactive)
REMARK    1  A    between atoms: C_3  and  C_8
REMARK    2  A    between atoms: C_6  and  C_15
REMARK    3  A    between atoms: C_7  and  C_18
REMARK    4  A    between atoms: C_15  and  O_16
REMARK    5  A    between atoms: C_18  and  P_19
REMARK    6  A    between atoms: P_19  and  O_21
REMARK    7  A    between atoms: P_19  and  C_23
REMARK    8  A    between atoms: C_23  and  C_24
REMARK    9  A    between atoms: C_24  and  C_25
REMARK   10  A    between atoms: C_25  and  C_26
REMARK   11  A    between atoms: C_26  and  C_27
REMARK                            x       y       z     vdW  Elec       q    Type
REMARK                         _______ _______ _______ _____ _____    ______ ____
ROOT
ATOM      1  O   UNL     1      31.679  -8.068 -20.357  0.00  0.00    -0.274 OA
ATOM      2  N   UNL     1      32.180  -7.143 -22.419  0.00  0.00    -0.271 N 
ATOM      3  C   UNL     1      32.572  -5.811 -24.339  0.00  0.00    +0.022 C 
ATOM      4  C   UNL     1      33.040  -5.050 -23.092  0.00  0.00    +0.033 C 
ATOM      5  C   UNL     1      32.481  -7.253 -23.845  0.00  0.00    +0.094 C 
ATOM      6  C   UNL     1      32.333  -5.772 -21.951  0.00  0.00    +0.174 C 
ATOM      7  C   UNL     1      31.930  -8.199 -21.556  0.00  0.00    +0.236 C 
ENDROOT
BRANCH   3   8
ATOM      8  C   UNL     1      33.506  -5.639 -25.535  0.00  0.00    +0.002 C 
ATOM      9  C   UNL     1      34.576  -4.579 -25.239  0.00  0.00    +0.000 C 
ATOM     10  C   UNL     1      32.710  -5.274 -26.796  0.00  0.00    +0.000 C 
ATOM     11  C   UNL     1      35.490  -4.350 -26.440  0.00  0.00    +0.000 C 
ATOM     12  C   UNL     1      33.627  -5.045 -27.995  0.00  0.00    +0.000 C 
ATOM     13  C   UNL     1      34.695  -3.997 -27.694  0.00  0.00    +0.000 C 
ENDBRANCH   3   8
BRANCH   6  15
ATOM     14  O   UNL     1      29.975  -5.477 -22.397  0.00  0.00    -0.248 OA
ATOM     15  C   UNL     1      30.956  -5.228 -21.712  0.00  0.00    +0.332 C 
BRANCH  15  16
ATOM     16  O   UNL     1      30.943  -4.416 -20.628  0.00  0.00    -0.479 OA
ATOM     17  H   UNL     1      30.194  -4.397 -20.065  0.00  0.00    +0.295 HD
ENDBRANCH  15  16
ENDBRANCH   6  15
BRANCH   7  18
ATOM     18  C   UNL     1      31.971  -9.572 -22.180  0.00  0.00    +0.172 C 
BRANCH  18  19
ATOM     19  P   UNL     1      31.229 -10.808 -21.116  0.00  0.00    +0.229 P 
ATOM     20  O   UNL     1      31.538 -10.617 -19.666  0.00  0.00    -0.289 OA
BRANCH  19  21
ATOM     21  O   UNL     1      29.661 -10.708 -21.484  0.00  0.00    -0.342 OA
ATOM     22  H   UNL     1      29.331 -11.585 -21.734  0.00  0.00    +0.218 HD
ENDBRANCH  19  21
BRANCH  19  23
ATOM     23  C   UNL     1      31.710 -12.385 -21.772  0.00  0.00    +0.087 C 
BRANCH  23  24
ATOM     24  C   UNL     1      32.261 -13.340 -20.721  0.00  0.00    +0.011 C 
BRANCH  24  25
ATOM     25  C   UNL     1      33.735 -13.676 -20.966  0.00  0.00    +0.005 C 
BRANCH  25  26
ATOM     26  C   UNL     1      33.984 -14.303 -22.343  0.00  0.00    +0.026 C 
BRANCH  26  27
ATOM     27  C   UNL     1      34.297 -15.777 -22.294  0.00  0.00    -0.022 C 
ATOM     28  C   UNL     1      34.303 -16.513 -23.468  0.00  0.00    -0.004 C 
ATOM     29  C   UNL     1      34.577 -16.372 -21.072  0.00  0.00    -0.004 C 
ATOM     30  C   UNL     1      34.593 -17.876 -23.422  0.00  0.00    -0.000 C 
ATOM     31  C   UNL     1      34.868 -17.736 -21.025  0.00  0.00    -0.000 C 
ATOM     32  C   UNL     1      34.876 -18.487 -22.200  0.00  0.00    -0.000 C 
ENDBRANCH  26  27
ENDBRANCH  25  26
ENDBRANCH  24  25
ENDBRANCH  23  24
ENDBRANCH  19  23
ENDBRANCH  18  19
ENDBRANCH   7  18
TORSDOF 11
ENDMDL
MODEL 8
REMARK VINA RESULT:      -9.7      2.965      7.132
REMARK  Name = 62956
REMARK  11 active torsions:
REMARK  status: ('A' for Active; 'I' for Inactive)
REMARK    1  A    between atoms: C_3  and  C_8
REMARK    2  A    between atoms: C_6  and  C_15
REMARK    3  A    between atoms: C_7  and  C_18
REMARK    4  A    between atoms: C_15  and  O_16
REMARK    5  A    between atoms: C_18  and  P_19
REMARK    6  A    between atoms: P_19  and  O_21
REMARK    7  A    between atoms: P_19  and  C_23
REMARK    8  A    between atoms: C_23  and  C_24
REMARK    9  A    between atoms: C_24  and  C_25
REMARK   10  A    between atoms: C_25  and  C_26
REMARK   11  A    between atoms: C_26  and  C_27
REMARK                            x       y       z     vdW  Elec       q    Type
REMARK                         _______ _______ _______ _____ _____    ______ ____
ROOT
ATOM      1  O   UNL     1      34.578 -22.259 -15.609  0.00  0.00    -0.274 OA
ATOM      2  N   UNL     1      34.884 -21.608 -17.809  0.00  0.00    -0.271 N 
ATOM      3  C   UNL     1      34.782 -21.097 -20.121  0.00  0.00    +0.022 C 
ATOM      4  C   UNL     1      33.427 -20.783 -19.474  0.00  0.00    +0.033 C 
ATOM      5  C   UNL     1      35.724 -21.169 -18.921  0.00  0.00    +0.094 C 
ATOM      6  C   UNL     1      33.471 -21.561 -18.164  0.00  0.00    +0.174 C 
ATOM      7  C   UNL     1      35.317 -21.890 -16.523  0.00  0.00    +0.236 C 
ENDROOT
BRANCH   3   8
ATOM      8  C   UNL     1      35.205 -20.062 -21.161  0.00  0.00    +0.002 C 
ATOM      9  C   UNL     1      36.249 -19.101 -20.578  0.00  0.00    +0.000 C 
ATOM     10  C   UNL     1      33.984 -19.291 -21.685  0.00  0.00    +0.000 C 
ATOM     11  C   UNL     1      36.647 -18.023 -21.584  0.00  0.00    +0.000 C 
ATOM     12  C   UNL     1      34.387 -18.214 -22.690  0.00  0.00    +0.000 C 
ATOM     13  C   UNL     1      35.431 -17.266 -22.109  0.00  0.00    +0.000 C 
ENDBRANCH   3   8
BRANCH   6  15
ATOM     14  O   UNL     1      33.286 -23.693 -19.290  0.00  0.00    -0.248 OA
ATOM     15  C   UNL     1      33.011 -22.977 -18.338  0.00  0.00    +0.332 C 
BRANCH  15  16
ATOM     16  O   UNL     1      32.241 -23.363 -17.292  0.00  0.00    -0.479 OA
ATOM     17  H   UNL     1      31.447 -22.902 -17.099  0.00  0.00    +0.295 HD
ENDBRANCH  15  16
ENDBRANCH   6  15
BRANCH   7  18
ATOM     18  C   UNL     1      36.798 -21.729 -16.287  0.00  0.00    +0.172 C 
BRANCH  18  19
ATOM     19  P   UNL     1      37.399 -22.861 -15.034  0.00  0.00    +0.229 P 
ATOM     20  O   UNL     1      38.830 -23.254 -15.215  0.00  0.00    -0.289 OA
BRANCH  19  21
ATOM     21  O   UNL     1      37.091 -22.074 -13.659  0.00  0.00    -0.342 OA
ATOM     22  H   UNL     1      37.900 -22.028 -13.126  0.00  0.00    +0.218 HD
ENDBRANCH  19  21
BRANCH  19  23
ATOM     23  C   UNL     1      36.258 -24.220 -15.000  0.00  0.00    +0.087 C 
BRANCH  23  24
ATOM     24  C   UNL     1      35.704 -24.516 -13.613  0.00  0.00    +0.011 C 
BRANCH  24  25
ATOM     25  C   UNL     1      34.205 -24.832 -13.648  0.00  0.00    +0.005 C 
BRANCH  25  26
ATOM     26  C   UNL     1      33.349 -23.744 -12.990  0.00  0.00    +0.026 C 
BRANCH  26  27
ATOM     27  C   UNL     1      31.948 -23.656 -13.542  0.00  0.00    -0.022 C 
ATOM     28  C   UNL     1      31.482 -22.444 -14.029  0.00  0.00    -0.004 C 
ATOM     29  C   UNL     1      31.149 -24.789 -13.555  0.00  0.00    -0.004 C 
ATOM     30  C   UNL     1      30.187 -22.362 -14.539  0.00  0.00    -0.000 C 
ATOM     31  C   UNL     1      29.853 -24.708 -14.067  0.00  0.00    -0.000 C 
ATOM     32  C   UNL     1      29.373 -23.495 -14.559  0.00  0.00    -0.000 C 
ENDBRANCH  26  27
ENDBRANCH  25  26
ENDBRANCH  24  25
ENDBRANCH  23  24
ENDBRANCH  19  23
ENDBRANCH  18  19
ENDBRANCH   7  18
TORSDOF 11
ENDMDL
MODEL 9
REMARK VINA RESULT:      -9.6      9.429     12.504
REMARK  Name = 62956
REMARK  11 active torsions:
REMARK  status: ('A' for Active; 'I' for Inactive)
REMARK    1  A    between atoms: C_3  and  C_8
REMARK    2  A    between atoms: C_6  and  C_15
REMARK    3  A    between atoms: C_7  and  C_18
REMARK    4  A    between atoms: C_15  and  O_16
REMARK    5  A    between atoms: C_18  and  P_19
REMARK    6  A    between atoms: P_19  and  O_21
REMARK    7  A    between atoms: P_19  and  C_23
REMARK    8  A    between atoms: C_23  and  C_24
REMARK    9  A    between atoms: C_24  and  C_25
REMARK   10  A    between atoms: C_25  and  C_26
REMARK   11  A    between atoms: C_26  and  C_27
REMARK                            x       y       z     vdW  Elec       q    Type
REMARK                         _______ _______ _______ _____ _____    ______ ____
ROOT
ATOM      1  O   UNL     1      34.708 -14.893 -23.238  0.00  0.00    -0.274 OA
ATOM      2  N   UNL     1      34.281 -16.978 -22.330  0.00  0.00    -0.271 N 
ATOM      3  C   UNL     1      33.806 -19.244 -21.825  0.00  0.00    +0.022 C 
ATOM      4  C   UNL     1      34.741 -19.182 -23.039  0.00  0.00    +0.033 C 
ATOM      5  C   UNL     1      33.957 -17.856 -21.207  0.00  0.00    +0.094 C 
ATOM      6  C   UNL     1      34.592 -17.746 -23.528  0.00  0.00    +0.174 C 
ATOM      7  C   UNL     1      34.435 -15.601 -22.269  0.00  0.00    +0.236 C 
ENDROOT
BRANCH   3   8
ATOM      8  C   UNL     1      34.149 -20.377 -20.860  0.00  0.00    +0.002 C 
ATOM      9  C   UNL     1      33.000 -20.615 -19.871  0.00  0.00    +0.000 C 
ATOM     10  C   UNL     1      35.457 -20.075 -20.113  0.00  0.00    +0.000 C 
ATOM     11  C   UNL     1      33.342 -21.708 -18.861  0.00  0.00    +0.000 C 
ATOM     12  C   UNL     1      35.795 -21.168 -19.104  0.00  0.00    +0.000 C 
ATOM     13  C   UNL     1      34.646 -21.409 -18.129  0.00  0.00    +0.000 C 
ENDBRANCH   3   8
BRANCH   6  15
ATOM     14  O   UNL     1      32.520 -18.394 -24.593  0.00  0.00    -0.248 OA
ATOM     15  C   UNL     1      33.433 -17.592 -24.467  0.00  0.00    +0.332 C 
BRANCH  15  16
ATOM     16  O   UNL     1      33.533 -16.435 -25.165  0.00  0.00    -0.479 OA
ATOM     17  H   UNL     1      32.811 -15.838 -25.190  0.00  0.00    +0.295 HD
ENDBRANCH  15  16
ENDBRANCH   6  15
BRANCH   7  18
ATOM     18  C   UNL     1      34.234 -14.985 -20.907  0.00  0.00    +0.172 C 
BRANCH  18  19
ATOM     19  P   UNL     1      33.025 -13.663 -20.947  0.00  0.00    +0.229 P 
ATOM     20  O   UNL     1      31.786 -13.958 -20.164  0.00  0.00    -0.289 OA
BRANCH  19  21
ATOM     21  O   UNL     1      33.863 -12.390 -20.416  0.00  0.00    -0.342 OA
ATOM     22  H   UNL     1      34.473 -12.674 -19.717  0.00  0.00    +0.218 HD
ENDBRANCH  19  21
BRANCH  19  23
ATOM     23  C   UNL     1      32.746 -13.293 -22.660  0.00  0.00    +0.087 C 
BRANCH  23  24
ATOM     24  C   UNL     1      33.377 -11.981 -23.109  0.00  0.00    +0.011 C 
BRANCH  24  25
ATOM     25  C   UNL     1      32.323 -10.906 -23.399  0.00  0.00    +0.005 C 
BRANCH  25  26
ATOM     26  C   UNL     1      31.181 -10.900 -22.376  0.00  0.00    +0.026 C 
BRANCH  26  27
ATOM     27  C   UNL     1      31.291  -9.803 -21.348  0.00  0.00    -0.022 C 
ATOM     28  C   UNL     1      31.178 -10.116 -20.002  0.00  0.00    -0.004 C 
ATOM     29  C   UNL     1      31.506  -8.497 -21.765  0.00  0.00    -0.004 C 
ATOM     30  C   UNL     1      31.280  -9.101 -19.051  0.00  0.00    -0.000 C 
ATOM     31  C   UNL     1      31.609  -7.482 -20.814  0.00  0.00    -0.000 C 
ATOM     32  C   UNL     1      31.496  -7.784 -19.457  0.00  0.00    -0.000 C 
ENDBRANCH  26  27
ENDBRANCH  25  26
ENDBRANCH  24  25
ENDBRANCH  23  24
ENDBRANCH  19  23
ENDBRANCH  18  19
ENDBRANCH   7  18
TORSDOF 11
ENDMDL
