MODEL 1
REMARK VINA RESULT:     -13.6      0.000      0.000
REMARK  Name = 5567
REMARK  8 active torsions:
REMARK  status: ('A' for Active; 'I' for Inactive)
REMARK    1  A    between atoms: N_1  and  C_20
REMARK    2  A    between atoms: C_2  and  C_8
REMARK    3  A    between atoms: C_2  and  O_18
REMARK    4  A    between atoms: C_11  and  C_17
REMARK    5  A    between atoms: C_20  and  C_21
REMARK    6  A    between atoms: C_21  and  C_22
REMARK    7  A    between atoms: C_22  and  C_24
REMARK    8  A    between atoms: C_24  and  C_26
REMARK                            x       y       z     vdW  Elec       q    Type
REMARK                         _______ _______ _______ _____ _____    ______ ____
ROOT
ATOM      1  N   UNL     1      34.886 -19.931 -20.005  0.00  0.00    +0.387 N 
ATOM      2  C   UNL     1      33.494 -22.010 -18.403  0.00  0.00    +0.103 C 
ATOM      3  C   UNL     1      32.769 -20.857 -19.131  0.00  0.00    +0.008 C 
ATOM      4  C   UNL     1      34.965 -21.596 -18.167  0.00  0.00    +0.008 C 
ATOM      5  C   UNL     1      33.528 -20.354 -20.365  0.00  0.00    -0.075 C 
ATOM      6  C   UNL     1      35.647 -21.041 -19.423  0.00  0.00    -0.075 C 
ATOM      7  H   UNL     1      34.809 -19.197 -19.300  0.00  0.00    -0.080 HD
ENDROOT
BRANCH   2   8
ATOM      8  C   UNL     1      32.844 -22.454 -17.091  0.00  0.00    +0.002 C 
ATOM      9  C   UNL     1      31.461 -22.380 -16.940  0.00  0.00    +0.002 C 
ATOM     10  C   UNL     1      33.637 -22.936 -16.052  0.00  0.00    -0.002 C 
ATOM     11  C   UNL     1      30.868 -22.786 -15.744  0.00  0.00    +0.071 C 
ATOM     12  C   UNL     1      33.044 -23.343 -14.856  0.00  0.00    -0.000 C 
ATOM     13  C   UNL     1      31.660 -23.268 -14.702  0.00  0.00    +0.004 C 
BRANCH  11  17
ATOM     14  F   UNL     1      28.999 -22.042 -14.449  0.00  0.00    -0.166 F 
ATOM     15  F   UNL     1      28.759 -22.058 -16.605  0.00  0.00    -0.166 F 
ATOM     16  F   UNL     1      28.799 -23.933 -15.504  0.00  0.00    -0.166 F 
ATOM     17  C   UNL     1      29.388 -22.705 -15.579  0.00  0.00    +0.419 C 
ENDBRANCH  11  17
ENDBRANCH   2   8
BRANCH   2  18
ATOM     18  O   UNL     1      33.454 -23.162 -19.258  0.00  0.00    -0.383 OA
ATOM     19  H   UNL     1      32.532 -23.375 -19.472  0.00  0.00    +0.211 HD
ENDBRANCH   2  18
BRANCH   1  20
ATOM     20  C   UNL     1      35.580 -19.387 -21.171  0.00  0.00    -0.077 C 
BRANCH  20  21
ATOM     21  C   UNL     1      34.568 -18.938 -22.227  0.00  0.00    -0.015 C 
BRANCH  21  22
ATOM     22  C   UNL     1      34.789 -17.487 -22.664  0.00  0.00    +0.067 C 
BRANCH  22  24
ATOM     23  O   UNL     1      34.979 -16.757 -20.371  0.00  0.00    -0.291 OA
ATOM     24  C   UNL     1      34.654 -16.486 -21.524  0.00  0.00    +0.173 C 
BRANCH  24  26
ATOM     25  F   UNL     1      32.694 -11.384 -22.666  0.00  0.00    -0.204 F 
ATOM     26  C   UNL     1      34.130 -15.125 -21.829  0.00  0.00    +0.035 C 
ATOM     27  C   UNL     1      33.725 -14.323 -20.785  0.00  0.00    +0.005 C 
ATOM     28  C   UNL     1      34.070 -14.718 -23.143  0.00  0.00    +0.005 C 
ATOM     29  C   UNL     1      33.235 -13.048 -21.070  0.00  0.00    +0.030 C 
ATOM     30  C   UNL     1      33.580 -13.444 -23.428  0.00  0.00    +0.030 C 
ATOM     31  C   UNL     1      33.163 -12.608 -22.392  0.00  0.00    +0.140 C 
ENDBRANCH  24  26
ENDBRANCH  22  24
ENDBRANCH  21  22
ENDBRANCH  20  21
ENDBRANCH   1  20
TORSDOF 8
ENDMDL
MODEL 2
REMARK VINA RESULT:     -13.3      1.881      2.399
REMARK  Name = 5567
REMARK  8 active torsions:
REMARK  status: ('A' for Active; 'I' for Inactive)
REMARK    1  A    between atoms: N_1  and  C_20
REMARK    2  A    between atoms: C_2  and  C_8
REMARK    3  A    between atoms: C_2  and  O_18
REMARK    4  A    between atoms: C_11  and  C_17
REMARK    5  A    between atoms: C_20  and  C_21
REMARK    6  A    between atoms: C_21  and  C_22
REMARK    7  A    between atoms: C_22  and  C_24
REMARK    8  A    between atoms: C_24  and  C_26
REMARK                            x       y       z     vdW  Elec       q    Type
REMARK                         _______ _______ _______ _____ _____    ______ ____
ROOT
ATOM      1  N   UNL     1      34.842 -19.896 -20.087  0.00  0.00    +0.387 N 
ATOM      2  C   UNL     1      33.468 -21.970 -18.462  0.00  0.00    +0.103 C 
ATOM      3  C   UNL     1      32.738 -20.805 -19.167  0.00  0.00    +0.008 C 
ATOM      4  C   UNL     1      34.949 -21.572 -18.260  0.00  0.00    +0.008 C 
ATOM      5  C   UNL     1      33.471 -20.303 -20.416  0.00  0.00    -0.075 C 
ATOM      6  C   UNL     1      35.606 -21.017 -19.530  0.00  0.00    -0.075 C 
ATOM      7  H   UNL     1      34.790 -19.166 -19.377  0.00  0.00    -0.080 HD
ENDROOT
BRANCH   2   8
ATOM      8  C   UNL     1      32.846 -22.415 -17.138  0.00  0.00    +0.002 C 
ATOM      9  C   UNL     1      33.660 -22.900 -16.115  0.00  0.00    +0.002 C 
ATOM     10  C   UNL     1      31.467 -22.332 -16.955  0.00  0.00    -0.002 C 
ATOM     11  C   UNL     1      33.093 -23.305 -14.906  0.00  0.00    +0.071 C 
ATOM     12  C   UNL     1      30.900 -22.737 -15.746  0.00  0.00    -0.000 C 
ATOM     13  C   UNL     1      31.713 -23.223 -14.722  0.00  0.00    +0.004 C 
BRANCH  11  17
ATOM     14  F   UNL     1      33.264 -24.313 -12.744  0.00  0.00    -0.166 F 
ATOM     15  F   UNL     1      34.776 -24.852 -14.202  0.00  0.00    -0.166 F 
ATOM     16  F   UNL     1      34.794 -22.872 -13.302  0.00  0.00    -0.166 F 
ATOM     17  C   UNL     1      33.962 -23.826 -13.812  0.00  0.00    +0.419 C 
ENDBRANCH  11  17
ENDBRANCH   2   8
BRANCH   2  18
ATOM     18  O   UNL     1      33.396 -23.117 -19.323  0.00  0.00    -0.383 OA
ATOM     19  H   UNL     1      34.292 -23.382 -19.584  0.00  0.00    +0.211 HD
ENDBRANCH   2  18
BRANCH   1  20
ATOM     20  C   UNL     1      35.513 -19.353 -21.267  0.00  0.00    -0.077 C 
BRANCH  20  21
ATOM     21  C   UNL     1      34.482 -18.800 -22.254  0.00  0.00    -0.015 C 
BRANCH  21  22
ATOM     22  C   UNL     1      34.779 -17.351 -22.652  0.00  0.00    +0.067 C 
BRANCH  22  24
ATOM     23  O   UNL     1      34.923 -16.637 -20.351  0.00  0.00    -0.291 OA
ATOM     24  C   UNL     1      34.610 -16.363 -21.506  0.00  0.00    +0.173 C 
BRANCH  24  26
ATOM     25  F   UNL     1      32.568 -11.289 -22.632  0.00  0.00    -0.204 F 
ATOM     26  C   UNL     1      34.064 -15.009 -21.807  0.00  0.00    +0.035 C 
ATOM     27  C   UNL     1      33.603 -14.235 -20.765  0.00  0.00    +0.005 C 
ATOM     28  C   UNL     1      34.041 -14.581 -23.115  0.00  0.00    +0.005 C 
ATOM     29  C   UNL     1      33.093 -12.968 -21.046  0.00  0.00    +0.030 C 
ATOM     30  C   UNL     1      33.531 -13.313 -23.396  0.00  0.00    +0.030 C 
ATOM     31  C   UNL     1      33.057 -12.506 -22.362  0.00  0.00    +0.140 C 
ENDBRANCH  24  26
ENDBRANCH  22  24
ENDBRANCH  21  22
ENDBRANCH  20  21
ENDBRANCH   1  20
TORSDOF 8
ENDMDL
MODEL 3
REMARK VINA RESULT:     -13.2      2.443      2.990
REMARK  Name = 5567
REMARK  8 active torsions:
REMARK  status: ('A' for Active; 'I' for Inactive)
REMARK    1  A    between atoms: N_1  and  C_20
REMARK    2  A    between atoms: C_2  and  C_8
REMARK    3  A    between atoms: C_2  and  O_18
REMARK    4  A    between atoms: C_11  and  C_17
REMARK    5  A    between atoms: C_20  and  C_21
REMARK    6  A    between atoms: C_21  and  C_22
REMARK    7  A    between atoms: C_22  and  C_24
REMARK    8  A    between atoms: C_24  and  C_26
REMARK                            x       y       z     vdW  Elec       q    Type
REMARK                         _______ _______ _______ _____ _____    ______ ____
ROOT
ATOM      1  N   UNL     1      34.049 -20.109 -19.891  0.00  0.00    +0.387 N 
ATOM      2  C   UNL     1      33.306 -22.275 -17.998  0.00  0.00    +0.103 C 
ATOM      3  C   UNL     1      32.294 -21.278 -18.604  0.00  0.00    +0.008 C 
ATOM      4  C   UNL     1      34.717 -21.645 -18.059  0.00  0.00    +0.008 C 
ATOM      5  C   UNL     1      32.727 -20.740 -19.973  0.00  0.00    -0.075 C 
ATOM      6  C   UNL     1      35.063 -21.066 -19.437  0.00  0.00    -0.075 C 
ATOM      7  H   UNL     1      33.996 -19.357 -19.204  0.00  0.00    -0.080 HD
ENDROOT
BRANCH   2   8
ATOM      8  C   UNL     1      32.986 -22.736 -16.575  0.00  0.00    +0.002 C 
ATOM      9  C   UNL     1      34.020 -23.008 -15.682  0.00  0.00    +0.002 C 
ATOM     10  C   UNL     1      31.659 -22.879 -16.174  0.00  0.00    -0.002 C 
ATOM     11  C   UNL     1      33.728 -23.427 -14.383  0.00  0.00    +0.071 C 
ATOM     12  C   UNL     1      31.366 -23.298 -14.875  0.00  0.00    -0.000 C 
ATOM     13  C   UNL     1      32.401 -23.572 -13.980  0.00  0.00    +0.004 C 
BRANCH  11  17
ATOM     14  F   UNL     1      35.598 -22.629 -13.122  0.00  0.00    -0.166 F 
ATOM     15  F   UNL     1      34.403 -24.201 -12.224  0.00  0.00    -0.166 F 
ATOM     16  F   UNL     1      35.706 -24.655 -13.905  0.00  0.00    -0.166 F 
ATOM     17  C   UNL     1      34.834 -23.721 -13.427  0.00  0.00    +0.419 C 
ENDBRANCH  11  17
ENDBRANCH   2   8
BRANCH   2  18
ATOM     18  O   UNL     1      33.282 -23.466 -18.799  0.00  0.00    -0.383 OA
ATOM     19  H   UNL     1      32.654 -23.351 -19.530  0.00  0.00    +0.211 HD
ENDBRANCH   2  18
BRANCH   1  20
ATOM     20  C   UNL     1      34.425 -19.536 -21.183  0.00  0.00    -0.077 C 
BRANCH  20  21
ATOM     21  C   UNL     1      35.764 -18.804 -21.067  0.00  0.00    -0.015 C 
BRANCH  21  22
ATOM     22  C   UNL     1      35.828 -17.566 -21.966  0.00  0.00    +0.067 C 
BRANCH  22  24
ATOM     23  O   UNL     1      34.591 -16.243 -20.370  0.00  0.00    -0.291 OA
ATOM     24  C   UNL     1      34.864 -16.465 -21.547  0.00  0.00    +0.173 C 
BRANCH  24  26
ATOM     25  F   UNL     1      32.563 -13.281 -25.515  0.00  0.00    -0.204 F 
ATOM     26  C   UNL     1      34.248 -15.615 -22.606  0.00  0.00    +0.035 C 
ATOM     27  C   UNL     1      33.884 -14.325 -22.290  0.00  0.00    +0.005 C 
ATOM     28  C   UNL     1      34.068 -16.151 -23.861  0.00  0.00    +0.005 C 
ATOM     29  C   UNL     1      33.309 -13.530 -23.282  0.00  0.00    +0.030 C 
ATOM     30  C   UNL     1      33.493 -15.356 -24.853  0.00  0.00    +0.030 C 
ATOM     31  C   UNL     1      33.114 -14.045 -24.563  0.00  0.00    +0.140 C 
ENDBRANCH  24  26
ENDBRANCH  22  24
ENDBRANCH  21  22
ENDBRANCH  20  21
ENDBRANCH   1  20
TORSDOF 8
ENDMDL
MODEL 4
REMARK VINA RESULT:     -12.8      3.178     11.511
REMARK  Name = 5567
REMARK  8 active torsions:
REMARK  status: ('A' for Active; 'I' for Inactive)
REMARK    1  A    between atoms: N_1  and  C_20
REMARK    2  A    between atoms: C_2  and  C_8
REMARK    3  A    between atoms: C_2  and  O_18
REMARK    4  A    between atoms: C_11  and  C_17
REMARK    5  A    between atoms: C_20  and  C_21
REMARK    6  A    between atoms: C_21  and  C_22
REMARK    7  A    between atoms: C_22  and  C_24
REMARK    8  A    between atoms: C_24  and  C_26
REMARK                            x       y       z     vdW  Elec       q    Type
REMARK                         _______ _______ _______ _____ _____    ______ ____
ROOT
ATOM      1  N   UNL     1      34.174 -14.535 -23.394  0.00  0.00    +0.387 N 
ATOM      2  C   UNL     1      32.431 -12.219 -22.739  0.00  0.00    +0.103 C 
ATOM      3  C   UNL     1      32.716 -12.702 -24.178  0.00  0.00    +0.008 C 
ATOM      4  C   UNL     1      33.571 -12.714 -21.819  0.00  0.00    +0.008 C 
ATOM      5  C   UNL     1      33.037 -14.199 -24.259  0.00  0.00    -0.075 C 
ATOM      6  C   UNL     1      33.888 -14.205 -21.994  0.00  0.00    -0.075 C 
ATOM      7  H   UNL     1      34.972 -13.974 -23.693  0.00  0.00    -0.080 HD
ENDROOT
BRANCH   2   8
ATOM      8  C   UNL     1      32.238 -10.709 -22.590  0.00  0.00    +0.002 C 
ATOM      9  C   UNL     1      33.190  -9.832 -23.108  0.00  0.00    +0.002 C 
ATOM     10  C   UNL     1      31.110 -10.214 -21.939  0.00  0.00    -0.002 C 
ATOM     11  C   UNL     1      33.013  -8.454 -22.974  0.00  0.00    +0.071 C 
ATOM     12  C   UNL     1      30.934  -8.836 -21.805  0.00  0.00    -0.000 C 
ATOM     13  C   UNL     1      31.886  -7.957 -22.322  0.00  0.00    +0.004 C 
BRANCH  11  17
ATOM     14  F   UNL     1      33.590  -6.802 -24.604  0.00  0.00    -0.166 F 
ATOM     15  F   UNL     1      34.453  -6.577 -22.627  0.00  0.00    -0.166 F 
ATOM     16  F   UNL     1      35.161  -8.153 -23.947  0.00  0.00    -0.166 F 
ATOM     17  C   UNL     1      34.032  -7.515 -23.525  0.00  0.00    +0.419 C 
ENDBRANCH  11  17
ENDBRANCH   2   8
BRANCH   2  18
ATOM     18  O   UNL     1      31.190 -12.806 -22.317  0.00  0.00    -0.383 OA
ATOM     19  H   UNL     1      30.531 -12.107 -22.182  0.00  0.00    +0.211 HD
ENDBRANCH   2  18
BRANCH   1  20
ATOM     20  C   UNL     1      34.520 -15.949 -23.528  0.00  0.00    -0.077 C 
BRANCH  20  21
ATOM     21  C   UNL     1      34.667 -16.591 -22.147  0.00  0.00    -0.015 C 
BRANCH  21  22
ATOM     22  C   UNL     1      34.805 -18.114 -22.226  0.00  0.00    +0.067 C 
BRANCH  22  24
ATOM     23  O   UNL     1      36.598 -18.346 -20.627  0.00  0.00    -0.291 OA
ATOM     24  C   UNL     1      35.494 -18.722 -21.013  0.00  0.00    +0.173 C 
BRANCH  24  26
ATOM     25  F   UNL     1      32.858 -22.745 -18.177  0.00  0.00    -0.204 F 
ATOM     26  C   UNL     1      34.791 -19.797 -20.257  0.00  0.00    +0.035 C 
ATOM     27  C   UNL     1      35.537 -20.664 -19.490  0.00  0.00    +0.005 C 
ATOM     28  C   UNL     1      33.420 -19.883 -20.351  0.00  0.00    +0.005 C 
ATOM     29  C   UNL     1      34.878 -21.669 -18.781  0.00  0.00    +0.030 C 
ATOM     30  C   UNL     1      32.761 -20.888 -19.643  0.00  0.00    +0.030 C 
ATOM     31  C   UNL     1      33.490 -21.781 -18.857  0.00  0.00    +0.140 C 
ENDBRANCH  24  26
ENDBRANCH  22  24
ENDBRANCH  21  22
ENDBRANCH  20  21
ENDBRANCH   1  20
TORSDOF 8
ENDMDL
MODEL 5
REMARK VINA RESULT:     -12.5      3.461     11.327
REMARK  Name = 5567
REMARK  8 active torsions:
REMARK  status: ('A' for Active; 'I' for Inactive)
REMARK    1  A    between atoms: N_1  and  C_20
REMARK    2  A    between atoms: C_2  and  C_8
REMARK    3  A    between atoms: C_2  and  O_18
REMARK    4  A    between atoms: C_11  and  C_17
REMARK    5  A    between atoms: C_20  and  C_21
REMARK    6  A    between atoms: C_21  and  C_22
REMARK    7  A    between atoms: C_22  and  C_24
REMARK    8  A    between atoms: C_24  and  C_26
REMARK                            x       y       z     vdW  Elec       q    Type
REMARK                         _______ _______ _______ _____ _____    ______ ____
ROOT
ATOM      1  N   UNL     1      34.026 -14.115 -22.123  0.00  0.00    +0.387 N 
ATOM      2  C   UNL     1      32.068 -11.900 -21.825  0.00  0.00    +0.103 C 
ATOM      3  C   UNL     1      33.090 -11.996 -22.980  0.00  0.00    +0.008 C 
ATOM      4  C   UNL     1      32.586 -12.744 -20.637  0.00  0.00    +0.008 C 
ATOM      5  C   UNL     1      33.491 -13.439 -23.310  0.00  0.00    -0.075 C 
ATOM      6  C   UNL     1      33.033 -14.154 -21.045  0.00  0.00    -0.075 C 
ATOM      7  H   UNL     1      34.829 -13.580 -21.792  0.00  0.00    -0.080 HD
ENDROOT
BRANCH   2   8
ATOM      8  C   UNL     1      31.740 -10.478 -21.369  0.00  0.00    +0.002 C 
ATOM      9  C   UNL     1      31.758  -9.431 -22.290  0.00  0.00    +0.002 C 
ATOM     10  C   UNL     1      31.421 -10.231 -20.035  0.00  0.00    -0.002 C 
ATOM     11  C   UNL     1      31.457  -8.133 -21.875  0.00  0.00    +0.071 C 
ATOM     12  C   UNL     1      31.121  -8.933 -19.620  0.00  0.00    -0.000 C 
ATOM     13  C   UNL     1      31.139  -7.885 -20.540  0.00  0.00    +0.004 C 
BRANCH  11  17
ATOM     14  F   UNL     1      32.084  -7.333 -24.040  0.00  0.00    -0.166 F 
ATOM     15  F   UNL     1      30.235  -6.566 -23.205  0.00  0.00    -0.166 F 
ATOM     16  F   UNL     1      32.144  -5.916 -22.391  0.00  0.00    -0.166 F 
ATOM     17  C   UNL     1      31.478  -7.012 -22.858  0.00  0.00    +0.419 C 
ENDBRANCH  11  17
ENDBRANCH   2   8
BRANCH   2  18
ATOM     18  O   UNL     1      30.826 -12.448 -22.292  0.00  0.00    -0.383 OA
ATOM     19  H   UNL     1      30.134 -11.769 -22.242  0.00  0.00    +0.211 HD
ENDBRANCH   2  18
BRANCH   1  20
ATOM     20  C   UNL     1      34.471 -15.467 -22.460  0.00  0.00    -0.077 C 
BRANCH  20  21
ATOM     21  C   UNL     1      34.538 -16.332 -21.199  0.00  0.00    -0.015 C 
BRANCH  21  22
ATOM     22  C   UNL     1      35.318 -17.630 -21.427  0.00  0.00    +0.067 C 
BRANCH  22  24
ATOM     23  O   UNL     1      33.876 -19.030 -22.763  0.00  0.00    -0.291 OA
ATOM     24  C   UNL     1      34.423 -18.835 -21.681  0.00  0.00    +0.173 C 
BRANCH  24  26
ATOM     25  F   UNL     1      33.682 -22.533 -17.564  0.00  0.00    -0.204 F 
ATOM     26  C   UNL     1      34.225 -19.822 -20.581  0.00  0.00    +0.035 C 
ATOM     27  C   UNL     1      32.940 -20.157 -20.216  0.00  0.00    +0.005 C 
ATOM     28  C   UNL     1      35.334 -20.363 -19.972  0.00  0.00    +0.005 C 
ATOM     29  C   UNL     1      32.755 -21.080 -19.188  0.00  0.00    +0.030 C 
ATOM     30  C   UNL     1      35.149 -21.287 -18.943  0.00  0.00    +0.030 C 
ATOM     31  C   UNL     1      33.860 -21.646 -18.551  0.00  0.00    +0.140 C 
ENDBRANCH  24  26
ENDBRANCH  22  24
ENDBRANCH  21  22
ENDBRANCH  20  21
ENDBRANCH   1  20
TORSDOF 8
ENDMDL
MODEL 6
REMARK VINA RESULT:     -12.5      1.730      9.756
REMARK  Name = 5567
REMARK  8 active torsions:
REMARK  status: ('A' for Active; 'I' for Inactive)
REMARK    1  A    between atoms: N_1  and  C_20
REMARK    2  A    between atoms: C_2  and  C_8
REMARK    3  A    between atoms: C_2  and  O_18
REMARK    4  A    between atoms: C_11  and  C_17
REMARK    5  A    between atoms: C_20  and  C_21
REMARK    6  A    between atoms: C_21  and  C_22
REMARK    7  A    between atoms: C_22  and  C_24
REMARK    8  A    between atoms: C_24  and  C_26
REMARK                            x       y       z     vdW  Elec       q    Type
REMARK                         _______ _______ _______ _____ _____    ______ ____
ROOT
ATOM      1  N   UNL     1      35.181 -19.980 -19.567  0.00  0.00    +0.387 N 
ATOM      2  C   UNL     1      34.807 -18.306 -21.993  0.00  0.00    +0.103 C 
ATOM      3  C   UNL     1      36.053 -18.235 -21.082  0.00  0.00    +0.008 C 
ATOM      4  C   UNL     1      33.634 -18.899 -21.179  0.00  0.00    +0.008 C 
ATOM      5  C   UNL     1      36.343 -19.554 -20.356  0.00  0.00    -0.075 C 
ATOM      6  C   UNL     1      34.007 -20.181 -20.423  0.00  0.00    -0.075 C 
ATOM      7  H   UNL     1      34.963 -19.238 -18.902  0.00  0.00    -0.080 HD
ENDROOT
BRANCH   2   8
ATOM      8  C   UNL     1      34.399 -16.979 -22.634  0.00  0.00    +0.002 C 
ATOM      9  C   UNL     1      34.218 -15.849 -21.838  0.00  0.00    +0.002 C 
ATOM     10  C   UNL     1      34.213 -16.901 -24.013  0.00  0.00    -0.002 C 
ATOM     11  C   UNL     1      33.847 -14.637 -22.423  0.00  0.00    +0.071 C 
ATOM     12  C   UNL     1      33.842 -15.689 -24.597  0.00  0.00    -0.000 C 
ATOM     13  C   UNL     1      33.659 -14.558 -23.802  0.00  0.00    +0.004 C 
BRANCH  11  17
ATOM     14  F   UNL     1      32.346 -13.209 -21.227  0.00  0.00    -0.166 F 
ATOM     15  F   UNL     1      34.328 -13.476 -20.388  0.00  0.00    -0.166 F 
ATOM     16  F   UNL     1      34.063 -12.282 -22.185  0.00  0.00    -0.166 F 
ATOM     17  C   UNL     1      33.650 -13.428 -21.572  0.00  0.00    +0.419 C 
ENDBRANCH  11  17
ENDBRANCH   2   8
BRANCH   2  18
ATOM     18  O   UNL     1      35.116 -19.181 -23.090  0.00  0.00    -0.383 OA
ATOM     19  H   UNL     1      34.413 -19.843 -23.182  0.00  0.00    +0.211 HD
ENDBRANCH   2  18
BRANCH   1  20
ATOM     20  C   UNL     1      35.487 -21.201 -18.822  0.00  0.00    -0.077 C 
BRANCH  20  21
ATOM     21  C   UNL     1      34.262 -22.116 -18.779  0.00  0.00    -0.015 C 
BRANCH  21  22
ATOM     22  C   UNL     1      33.788 -22.386 -17.348  0.00  0.00    +0.067 C 
BRANCH  22  24
ATOM     23  O   UNL     1      31.551 -21.830 -18.065  0.00  0.00    -0.291 OA
ATOM     24  C   UNL     1      32.279 -22.273 -17.181  0.00  0.00    +0.173 C 
BRANCH  24  26
ATOM     25  F   UNL     1      29.986 -24.022 -12.399  0.00  0.00    -0.204 F 
ATOM     26  C   UNL     1      31.667 -22.739 -15.904  0.00  0.00    +0.035 C 
ATOM     27  C   UNL     1      30.294 -22.743 -15.791  0.00  0.00    +0.005 C 
ATOM     28  C   UNL     1      32.496 -23.149 -14.884  0.00  0.00    +0.005 C 
ATOM     29  C   UNL     1      29.721 -23.180 -14.597  0.00  0.00    +0.030 C 
ATOM     30  C   UNL     1      31.923 -23.586 -13.690  0.00  0.00    +0.030 C 
ATOM     31  C   UNL     1      30.536 -23.602 -13.546  0.00  0.00    +0.140 C 
ENDBRANCH  24  26
ENDBRANCH  22  24
ENDBRANCH  21  22
ENDBRANCH  20  21
ENDBRANCH   1  20
TORSDOF 8
ENDMDL
MODEL 7
REMARK VINA RESULT:     -12.5      4.813      5.798
REMARK  Name = 5567
REMARK  8 active torsions:
REMARK  status: ('A' for Active; 'I' for Inactive)
REMARK    1  A    between atoms: N_1  and  C_20
REMARK    2  A    between atoms: C_2  and  C_8
REMARK    3  A    between atoms: C_2  and  O_18
REMARK    4  A    between atoms: C_11  and  C_17
REMARK    5  A    between atoms: C_20  and  C_21
REMARK    6  A    between atoms: C_21  and  C_22
REMARK    7  A    between atoms: C_22  and  C_24
REMARK    8  A    between atoms: C_24  and  C_26
REMARK                            x       y       z     vdW  Elec       q    Type
REMARK                         _______ _______ _______ _____ _____    ______ ____
ROOT
ATOM      1  N   UNL     1      34.580 -21.979 -18.119  0.00  0.00    +0.387 N 
ATOM      2  C   UNL     1      35.671 -22.651 -15.439  0.00  0.00    +0.103 C 
ATOM      3  C   UNL     1      36.505 -22.013 -16.571  0.00  0.00    +0.008 C 
ATOM      4  C   UNL     1      34.454 -23.369 -16.067  0.00  0.00    +0.008 C 
ATOM      5  C   UNL     1      35.661 -21.175 -17.540  0.00  0.00    -0.075 C 
ATOM      6  C   UNL     1      33.692 -22.499 -17.075  0.00  0.00    -0.075 C 
ATOM      7  H   UNL     1      35.002 -22.774 -18.598  0.00  0.00    -0.080 HD
ENDROOT
BRANCH   2   8
ATOM      8  C   UNL     1      36.445 -23.605 -14.527  0.00  0.00    +0.002 C 
ATOM      9  C   UNL     1      37.780 -23.897 -14.798  0.00  0.00    +0.002 C 
ATOM     10  C   UNL     1      35.813 -24.177 -13.424  0.00  0.00    -0.002 C 
ATOM     11  C   UNL     1      38.487 -24.765 -13.965  0.00  0.00    +0.071 C 
ATOM     12  C   UNL     1      36.519 -25.046 -12.591  0.00  0.00    -0.000 C 
ATOM     13  C   UNL     1      37.856 -25.340 -12.862  0.00  0.00    +0.004 C 
BRANCH  11  17
ATOM     14  F   UNL     1      40.409 -26.116 -13.513  0.00  0.00    -0.166 F 
ATOM     15  F   UNL     1      40.144 -25.434 -15.555  0.00  0.00    -0.166 F 
ATOM     16  F   UNL     1      40.746 -24.026 -14.011  0.00  0.00    -0.166 F 
ATOM     17  C   UNL     1      39.915 -25.081 -14.256  0.00  0.00    +0.419 C 
ENDBRANCH  11  17
ENDBRANCH   2   8
BRANCH   2  18
ATOM     18  O   UNL     1      35.211 -21.593 -14.583  0.00  0.00    -0.383 OA
ATOM     19  H   UNL     1      34.334 -21.300 -14.875  0.00  0.00    +0.211 HD
ENDBRANCH   2  18
BRANCH   1  20
ATOM     20  C   UNL     1      33.822 -21.195 -19.094  0.00  0.00    -0.077 C 
BRANCH  20  21
ATOM     21  C   UNL     1      34.777 -20.442 -20.023  0.00  0.00    -0.015 C 
BRANCH  21  22
ATOM     22  C   UNL     1      34.069 -19.335 -20.809  0.00  0.00    +0.067 C 
BRANCH  22  24
ATOM     23  O   UNL     1      36.085 -18.014 -20.678  0.00  0.00    -0.291 OA
ATOM     24  C   UNL     1      34.994 -18.194 -21.211  0.00  0.00    +0.173 C 
BRANCH  24  26
ATOM     25  F   UNL     1      33.385 -14.769 -25.317  0.00  0.00    -0.204 F 
ATOM     26  C   UNL     1      34.563 -17.280 -22.307  0.00  0.00    +0.035 C 
ATOM     27  C   UNL     1      34.640 -15.920 -22.102  0.00  0.00    +0.005 C 
ATOM     28  C   UNL     1      34.106 -17.828 -23.484  0.00  0.00    +0.005 C 
ATOM     29  C   UNL     1      34.238 -15.064 -23.128  0.00  0.00    +0.030 C 
ATOM     30  C   UNL     1      33.704 -16.973 -24.510  0.00  0.00    +0.030 C 
ATOM     31  C   UNL     1      33.771 -15.590 -24.332  0.00  0.00    +0.140 C 
ENDBRANCH  24  26
ENDBRANCH  22  24
ENDBRANCH  21  22
ENDBRANCH  20  21
ENDBRANCH   1  20
TORSDOF 8
ENDMDL
MODEL 8
REMARK VINA RESULT:     -12.5      3.316     10.889
REMARK  Name = 5567
REMARK  8 active torsions:
REMARK  status: ('A' for Active; 'I' for Inactive)
REMARK    1  A    between atoms: N_1  and  C_20
REMARK    2  A    between atoms: C_2  and  C_8
REMARK    3  A    between atoms: C_2  and  O_18
REMARK    4  A    between atoms: C_11  and  C_17
REMARK    5  A    between atoms: C_20  and  C_21
REMARK    6  A    between atoms: C_21  and  C_22
REMARK    7  A    between atoms: C_22  and  C_24
REMARK    8  A    between atoms: C_24  and  C_26
REMARK                            x       y       z     vdW  Elec       q    Type
REMARK                         _______ _______ _______ _____ _____    ______ ____
ROOT
ATOM      1  N   UNL     1      33.471 -15.378 -23.595  0.00  0.00    +0.387 N 
ATOM      2  C   UNL     1      33.041 -12.526 -22.880  0.00  0.00    +0.103 C 
ATOM      3  C   UNL     1      33.497 -13.606 -21.874  0.00  0.00    +0.008 C 
ATOM      4  C   UNL     1      32.330 -13.224 -24.063  0.00  0.00    +0.008 C 
ATOM      5  C   UNL     1      34.270 -14.754 -22.534  0.00  0.00    -0.075 C 
ATOM      6  C   UNL     1      33.125 -14.405 -24.636  0.00  0.00    -0.075 C 
ATOM      7  H   UNL     1      32.603 -15.715 -23.177  0.00  0.00    -0.080 HD
ENDROOT
BRANCH   2   8
ATOM      8  C   UNL     1      32.151 -11.430 -22.291  0.00  0.00    +0.002 C 
ATOM      9  C   UNL     1      32.026 -10.208 -22.949  0.00  0.00    +0.002 C 
ATOM     10  C   UNL     1      31.466 -11.657 -21.099  0.00  0.00    -0.002 C 
ATOM     11  C   UNL     1      31.214  -9.208 -22.412  0.00  0.00    +0.071 C 
ATOM     12  C   UNL     1      30.653 -10.658 -20.563  0.00  0.00    -0.000 C 
ATOM     13  C   UNL     1      30.528  -9.433 -21.219  0.00  0.00    +0.004 C 
BRANCH  11  17
ATOM     14  F   UNL     1      31.663  -7.879 -24.350  0.00  0.00    -0.166 F 
ATOM     15  F   UNL     1      29.786  -7.520 -23.324  0.00  0.00    -0.166 F 
ATOM     16  F   UNL     1      31.656  -6.872 -22.422  0.00  0.00    -0.166 F 
ATOM     17  C   UNL     1      31.081  -7.898 -23.114  0.00  0.00    +0.419 C 
ENDBRANCH  11  17
ENDBRANCH   2   8
BRANCH   2  18
ATOM     18  O   UNL     1      34.213 -11.850 -23.360  0.00  0.00    -0.383 OA
ATOM     19  H   UNL     1      33.949 -11.081 -23.888  0.00  0.00    +0.211 HD
ENDBRANCH   2  18
BRANCH   1  20
ATOM     20  C   UNL     1      34.184 -16.516 -24.172  0.00  0.00    -0.077 C 
BRANCH  20  21
ATOM     21  C   UNL     1      33.858 -17.794 -23.397  0.00  0.00    -0.015 C 
BRANCH  21  22
ATOM     22  C   UNL     1      35.094 -18.397 -22.724  0.00  0.00    +0.067 C 
BRANCH  22  24
ATOM     23  O   UNL     1      35.361 -17.348 -20.566  0.00  0.00    -0.291 OA
ATOM     24  C   UNL     1      35.039 -18.348 -21.203  0.00  0.00    +0.173 C 
BRANCH  24  26
ATOM     25  F   UNL     1      33.224 -22.851 -18.445  0.00  0.00    -0.204 F 
ATOM     26  C   UNL     1      34.554 -19.550 -20.468  0.00  0.00    +0.035 C 
ATOM     27  C   UNL     1      35.480 -20.384 -19.881  0.00  0.00    +0.005 C 
ATOM     28  C   UNL     1      33.199 -19.783 -20.401  0.00  0.00    +0.005 C 
ATOM     29  C   UNL     1      35.027 -21.509 -19.192  0.00  0.00    +0.030 C 
ATOM     30  C   UNL     1      32.746 -20.908 -19.712  0.00  0.00    +0.030 C 
ATOM     31  C   UNL     1      33.660 -21.771 -19.107  0.00  0.00    +0.140 C 
ENDBRANCH  24  26
ENDBRANCH  22  24
ENDBRANCH  21  22
ENDBRANCH  20  21
ENDBRANCH   1  20
TORSDOF 8
ENDMDL
MODEL 9
REMARK VINA RESULT:     -12.5      1.361      1.706
REMARK  Name = 5567
REMARK  8 active torsions:
REMARK  status: ('A' for Active; 'I' for Inactive)
REMARK    1  A    between atoms: N_1  and  C_20
REMARK    2  A    between atoms: C_2  and  C_8
REMARK    3  A    between atoms: C_2  and  O_18
REMARK    4  A    between atoms: C_11  and  C_17
REMARK    5  A    between atoms: C_20  and  C_21
REMARK    6  A    between atoms: C_21  and  C_22
REMARK    7  A    between atoms: C_22  and  C_24
REMARK    8  A    between atoms: C_24  and  C_26
REMARK                            x       y       z     vdW  Elec       q    Type
REMARK                         _______ _______ _______ _____ _____    ______ ____
ROOT
ATOM      1  N   UNL     1      34.094 -19.576 -20.649  0.00  0.00    +0.387 N 
ATOM      2  C   UNL     1      33.862 -21.757 -18.644  0.00  0.00    +0.103 C 
ATOM      3  C   UNL     1      32.679 -20.871 -19.093  0.00  0.00    +0.008 C 
ATOM      4  C   UNL     1      35.180 -21.001 -18.932  0.00  0.00    +0.008 C 
ATOM      5  C   UNL     1      32.840 -20.327 -20.517  0.00  0.00    -0.075 C 
ATOM      6  C   UNL     1      35.252 -20.426 -20.352  0.00  0.00    -0.075 C 
ATOM      7  H   UNL     1      34.078 -18.816 -19.969  0.00  0.00    -0.080 HD
ENDROOT
BRANCH   2   8
ATOM      8  C   UNL     1      33.811 -22.211 -17.185  0.00  0.00    +0.002 C 
ATOM      9  C   UNL     1      32.607 -22.644 -16.632  0.00  0.00    +0.002 C 
ATOM     10  C   UNL     1      34.971 -22.195 -16.411  0.00  0.00    -0.002 C 
ATOM     11  C   UNL     1      32.561 -23.060 -15.301  0.00  0.00    +0.071 C 
ATOM     12  C   UNL     1      34.925 -22.611 -15.080  0.00  0.00    -0.000 C 
ATOM     13  C   UNL     1      33.720 -23.043 -14.526  0.00  0.00    +0.004 C 
BRANCH  11  17
ATOM     14  F   UNL     1      30.580 -22.530 -14.069  0.00  0.00    -0.166 F 
ATOM     15  F   UNL     1      30.399 -24.030 -15.626  0.00  0.00    -0.166 F 
ATOM     16  F   UNL     1      31.444 -24.504 -13.779  0.00  0.00    -0.166 F 
ATOM     17  C   UNL     1      31.272 -23.520 -14.708  0.00  0.00    +0.419 C 
ENDBRANCH  11  17
ENDBRANCH   2   8
BRANCH   2  18
ATOM     18  O   UNL     1      33.825 -22.963 -19.422  0.00  0.00    -0.383 OA
ATOM     19  H   UNL     1      34.730 -23.285 -19.561  0.00  0.00    +0.211 HD
ENDBRANCH   2  18
BRANCH   1  20
ATOM     20  C   UNL     1      34.209 -19.002 -21.989  0.00  0.00    -0.077 C 
BRANCH  20  21
ATOM     21  C   UNL     1      35.313 -17.942 -22.017  0.00  0.00    -0.015 C 
BRANCH  21  22
ATOM     22  C   UNL     1      34.881 -16.636 -21.344  0.00  0.00    +0.067 C 
BRANCH  22  24
ATOM     23  O   UNL     1      35.065 -15.477 -23.454  0.00  0.00    -0.291 OA
ATOM     24  C   UNL     1      34.563 -15.523 -22.334  0.00  0.00    +0.173 C 
BRANCH  24  26
ATOM     25  F   UNL     1      30.927 -11.563 -20.824  0.00  0.00    -0.204 F 
ATOM     26  C   UNL     1      33.591 -14.467 -21.931  0.00  0.00    +0.035 C 
ATOM     27  C   UNL     1      33.230 -14.371 -20.605  0.00  0.00    +0.005 C 
ATOM     28  C   UNL     1      33.093 -13.624 -22.898  0.00  0.00    +0.005 C 
ATOM     29  C   UNL     1      32.321 -13.382 -20.228  0.00  0.00    +0.030 C 
ATOM     30  C   UNL     1      32.184 -12.635 -22.521  0.00  0.00    +0.030 C 
ATOM     31  C   UNL     1      31.799 -12.513 -21.186  0.00  0.00    +0.140 C 
ENDBRANCH  24  26
ENDBRANCH  22  24
ENDBRANCH  21  22
ENDBRANCH  20  21
ENDBRANCH   1  20
TORSDOF 8
ENDMDL
