MODEL 1
REMARK VINA RESULT:     -10.3      0.000      0.000
REMARK  Name = 11633038
REMARK  6 active torsions:
REMARK  status: ('A' for Active; 'I' for Inactive)
REMARK    1  A    between atoms: C_3  and  C_18
REMARK    2  A    between atoms: C_3  and  C_30
REMARK    3  A    between atoms: C_5  and  C_7
REMARK    4  A    between atoms: N_17  and  C_22
REMARK    5  A    between atoms: C_23  and  C_27
REMARK    6  A    between atoms: C_23  and  O_28
REMARK                            x       y       z     vdW  Elec       q    Type
REMARK                         _______ _______ _______ _____ _____    ______ ____
ROOT
ATOM      1  O   UNL     1      36.206 -21.916 -16.048  0.00  0.00    -0.376 OA
ATOM      2  N   UNL     1      35.786 -21.120 -17.138  0.00  0.00    -0.086 NA
ATOM      3  C   UNL     1      35.129 -22.779 -15.675  0.00  0.00    +0.234 C 
ATOM      4  C   UNL     1      34.238 -22.868 -16.893  0.00  0.00    +0.102 C 
ATOM      5  C   UNL     1      34.696 -21.641 -17.604  0.00  0.00    +0.119 C 
ENDROOT
BRANCH   5   7
ATOM      6  N   UNL     1      32.657 -21.442 -18.800  0.00  0.00    -0.243 NA
ATOM      7  C   UNL     1      33.964 -21.088 -18.765  0.00  0.00    +0.098 C 
ATOM      8  C   UNL     1      34.579 -20.276 -19.726  0.00  0.00    +0.019 C 
ATOM      9  C   UNL     1      33.785 -19.803 -20.791  0.00  0.00    +0.003 C 
ATOM     10  C   UNL     1      35.938 -19.927 -19.660  0.00  0.00    +0.002 C 
ATOM     11  C   UNL     1      32.433 -20.162 -20.839  0.00  0.00    +0.021 C 
ATOM     12  C   UNL     1      31.927 -20.972 -19.833  0.00  0.00    +0.099 C 
ATOM     13  C   UNL     1      34.371 -18.986 -21.772  0.00  0.00    +0.000 C 
ATOM     14  C   UNL     1      36.505 -19.116 -20.644  0.00  0.00    +0.000 C 
ATOM     15  C   UNL     1      35.723 -18.647 -21.696  0.00  0.00    +0.000 C 
ENDBRANCH   5   7
BRANCH   3  18
ATOM     16  O   UNL     1      35.153 -25.158 -15.483  0.00  0.00    -0.271 OA
ATOM     17  N   UNL     1      37.048 -23.956 -14.866  0.00  0.00    -0.297 N 
ATOM     18  C   UNL     1      35.759 -24.098 -15.346  0.00  0.00    +0.262 C 
ATOM     19  H   UNL     1      37.427 -23.049 -14.802  0.00  0.00    +0.150 HD
BRANCH  17  22
ATOM     20  O   UNL     1      39.250 -25.998 -12.853  0.00  0.00    -0.426 OA
ATOM     21  O   UNL     1      41.126 -26.317 -14.137  0.00  0.00    -0.250 OA
ATOM     22  C   UNL     1      37.859 -25.067 -14.459  0.00  0.00    +0.150 C 
ATOM     23  C   UNL     1      38.067 -25.186 -12.954  0.00  0.00    +0.279 C 
ATOM     24  C   UNL     1      39.283 -24.980 -14.969  0.00  0.00    +0.135 C 
ATOM     25  C   UNL     1      40.012 -25.842 -13.981  0.00  0.00    +0.321 C 
BRANCH  23  27
ATOM     26  F   UNL     1      36.504 -26.909 -13.014  0.00  0.00    -0.227 F 
ATOM     27  C   UNL     1      36.909 -25.873 -12.244  0.00  0.00    +0.264 C 
ENDBRANCH  23  27
BRANCH  23  28
ATOM     28  O   UNL     1      38.304 -23.901 -12.381  0.00  0.00    -0.351 OA
ATOM     29  H   UNL     1      37.495 -23.583 -11.952  0.00  0.00    +0.214 HD
ENDBRANCH  23  28
ENDBRANCH  17  22
ENDBRANCH   3  18
BRANCH   3  30
ATOM     30  C   UNL     1      34.432 -22.217 -14.442  0.00  0.00    +0.048 C 
ATOM     31  C   UNL     1      32.935 -22.527 -14.475  0.00  0.00    +0.004 C 
ATOM     32  C   UNL     1      35.062 -22.768 -13.162  0.00  0.00    +0.004 C 
ENDBRANCH   3  30
TORSDOF 6
ENDMDL
MODEL 2
REMARK VINA RESULT:     -10.1     12.937     16.484
REMARK  Name = 11633038
REMARK  6 active torsions:
REMARK  status: ('A' for Active; 'I' for Inactive)
REMARK    1  A    between atoms: C_3  and  C_18
REMARK    2  A    between atoms: C_3  and  C_30
REMARK    3  A    between atoms: C_5  and  C_7
REMARK    4  A    between atoms: N_17  and  C_22
REMARK    5  A    between atoms: C_23  and  C_27
REMARK    6  A    between atoms: C_23  and  O_28
REMARK                            x       y       z     vdW  Elec       q    Type
REMARK                         _______ _______ _______ _____ _____    ______ ____
ROOT
ATOM      1  O   UNL     1      32.996  -8.653 -22.392  0.00  0.00    -0.376 OA
ATOM      2  N   UNL     1      33.254  -7.466 -23.114  0.00  0.00    -0.086 NA
ATOM      3  C   UNL     1      31.589  -8.746 -22.160  0.00  0.00    +0.234 C 
ATOM      4  C   UNL     1      30.944  -7.872 -23.212  0.00  0.00    +0.102 C 
ATOM      5  C   UNL     1      32.122  -7.030 -23.565  0.00  0.00    +0.119 C 
ENDROOT
BRANCH   5   7
ATOM      6  N   UNL     1      32.422  -5.961 -25.661  0.00  0.00    -0.243 NA
ATOM      7  C   UNL     1      31.993  -5.806 -24.386  0.00  0.00    +0.098 C 
ATOM      8  C   UNL     1      31.473  -4.609 -23.878  0.00  0.00    +0.019 C 
ATOM      9  C   UNL     1      31.395  -3.504 -24.750  0.00  0.00    +0.003 C 
ATOM     10  C   UNL     1      31.036  -4.482 -22.549  0.00  0.00    +0.002 C 
ATOM     11  C   UNL     1      31.836  -3.651 -26.070  0.00  0.00    +0.021 C 
ATOM     12  C   UNL     1      32.334  -4.883 -26.469  0.00  0.00    +0.099 C 
ATOM     13  C   UNL     1      30.878  -2.288 -24.271  0.00  0.00    +0.000 C 
ATOM     14  C   UNL     1      30.527  -3.267 -22.089  0.00  0.00    +0.000 C 
ATOM     15  C   UNL     1      30.447  -2.174 -22.948  0.00  0.00    +0.000 C 
ENDBRANCH   5   7
BRANCH   3  18
ATOM     16  O   UNL     1      30.197 -10.668 -21.904  0.00  0.00    -0.271 OA
ATOM     17  N   UNL     1      32.223 -10.882 -23.027  0.00  0.00    -0.297 N 
ATOM     18  C   UNL     1      31.240 -10.191 -22.344  0.00  0.00    +0.262 C 
ATOM     19  H   UNL     1      33.018 -10.388 -23.332  0.00  0.00    +0.150 HD
BRANCH  17  22
ATOM     20  O   UNL     1      33.132 -14.379 -23.183  0.00  0.00    -0.426 OA
ATOM     21  O   UNL     1      33.193 -14.892 -25.420  0.00  0.00    -0.250 OA
ATOM     22  C   UNL     1      32.139 -12.286 -23.312  0.00  0.00    +0.150 C 
ATOM     23  C   UNL     1      32.994 -13.171 -22.413  0.00  0.00    +0.279 C 
ATOM     24  C   UNL     1      32.656 -12.643 -24.691  0.00  0.00    +0.135 C 
ATOM     25  C   UNL     1      33.012 -14.090 -24.517  0.00  0.00    +0.321 C 
BRANCH  23  27
ATOM     26  F   UNL     1      32.518 -12.422 -20.262  0.00  0.00    -0.227 F 
ATOM     27  C   UNL     1      32.332 -13.484 -21.079  0.00  0.00    +0.264 C 
ENDBRANCH  23  27
BRANCH  23  28
ATOM     28  O   UNL     1      34.274 -12.577 -22.201  0.00  0.00    -0.351 OA
ATOM     29  H   UNL     1      34.168 -11.626 -22.047  0.00  0.00    +0.214 HD
ENDBRANCH  23  28
ENDBRANCH  17  22
ENDBRANCH   3  18
BRANCH   3  30
ATOM     30  C   UNL     1      31.281  -8.318 -20.731  0.00  0.00    +0.048 C 
ATOM     31  C   UNL     1      31.360  -9.510 -19.776  0.00  0.00    +0.004 C 
ATOM     32  C   UNL     1      32.233  -7.210 -20.278  0.00  0.00    +0.004 C 
ENDBRANCH   3  30
TORSDOF 6
ENDMDL
MODEL 3
REMARK VINA RESULT:      -9.9     12.987     16.527
REMARK  Name = 11633038
REMARK  6 active torsions:
REMARK  status: ('A' for Active; 'I' for Inactive)
REMARK    1  A    between atoms: C_3  and  C_18
REMARK    2  A    between atoms: C_3  and  C_30
REMARK    3  A    between atoms: C_5  and  C_7
REMARK    4  A    between atoms: N_17  and  C_22
REMARK    5  A    between atoms: C_23  and  C_27
REMARK    6  A    between atoms: C_23  and  O_28
REMARK                            x       y       z     vdW  Elec       q    Type
REMARK                         _______ _______ _______ _____ _____    ______ ____
ROOT
ATOM      1  O   UNL     1      33.056  -8.407 -22.644  0.00  0.00    -0.376 OA
ATOM      2  N   UNL     1      33.148  -7.122 -23.226  0.00  0.00    -0.086 NA
ATOM      3  C   UNL     1      31.766  -8.540 -22.041  0.00  0.00    +0.234 C 
ATOM      4  C   UNL     1      30.889  -7.517 -22.727  0.00  0.00    +0.102 C 
ATOM      5  C   UNL     1      31.953  -6.626 -23.269  0.00  0.00    +0.119 C 
ENDROOT
BRANCH   5   7
ATOM      6  N   UNL     1      30.958  -4.492 -22.979  0.00  0.00    -0.243 NA
ATOM      7  C   UNL     1      31.649  -5.291 -23.829  0.00  0.00    +0.098 C 
ATOM      8  C   UNL     1      32.043  -4.905 -25.115  0.00  0.00    +0.019 C 
ATOM      9  C   UNL     1      31.700  -3.608 -25.547  0.00  0.00    +0.003 C 
ATOM     10  C   UNL     1      32.760  -5.759 -25.971  0.00  0.00    +0.002 C 
ATOM     11  C   UNL     1      30.986  -2.772 -24.679  0.00  0.00    +0.021 C 
ATOM     12  C   UNL     1      30.645  -3.257 -23.425  0.00  0.00    +0.099 C 
ATOM     13  C   UNL     1      32.082  -3.190 -26.832  0.00  0.00    +0.000 C 
ATOM     14  C   UNL     1      33.130  -5.328 -27.245  0.00  0.00    +0.000 C 
ATOM     15  C   UNL     1      32.792  -4.047 -27.674  0.00  0.00    +0.000 C 
ENDBRANCH   5   7
BRANCH   3  18
ATOM     16  O   UNL     1      30.182 -10.324 -22.088  0.00  0.00    -0.271 OA
ATOM     17  N   UNL     1      32.340 -10.710 -22.867  0.00  0.00    -0.297 N 
ATOM     18  C   UNL     1      31.323  -9.941 -22.332  0.00  0.00    +0.262 C 
ATOM     19  H   UNL     1      33.217 -10.288 -23.018  0.00  0.00    +0.150 HD
BRANCH  17  22
ATOM     20  O   UNL     1      33.024 -14.251 -23.124  0.00  0.00    -0.426 OA
ATOM     21  O   UNL     1      33.154 -14.683 -25.375  0.00  0.00    -0.250 OA
ATOM     22  C   UNL     1      32.178 -12.093 -23.211  0.00  0.00    +0.150 C 
ATOM     23  C   UNL     1      32.931 -13.066 -22.313  0.00  0.00    +0.279 C 
ATOM     24  C   UNL     1      32.733 -12.432 -24.581  0.00  0.00    +0.135 C 
ATOM     25  C   UNL     1      32.985 -13.905 -24.449  0.00  0.00    +0.321 C 
BRANCH  23  27
ATOM     26  F   UNL     1      32.353 -12.338 -20.179  0.00  0.00    -0.227 F 
ATOM     27  C   UNL     1      32.189 -13.384 -21.023  0.00  0.00    +0.264 C 
ENDBRANCH  23  27
BRANCH  23  28
ATOM     28  O   UNL     1      34.236 -12.568 -22.022  0.00  0.00    -0.351 OA
ATOM     29  H   UNL     1      34.516 -11.964 -22.727  0.00  0.00    +0.214 HD
ENDBRANCH  23  28
ENDBRANCH  17  22
ENDBRANCH   3  18
BRANCH   3  30
ATOM     30  C   UNL     1      31.887  -8.337 -20.536  0.00  0.00    +0.048 C 
ATOM     31  C   UNL     1      31.494  -6.912 -20.146  0.00  0.00    +0.004 C 
ATOM     32  C   UNL     1      31.027  -9.352 -19.780  0.00  0.00    +0.004 C 
ENDBRANCH   3  30
TORSDOF 6
ENDMDL
MODEL 4
REMARK VINA RESULT:      -9.8     12.768     17.188
REMARK  Name = 11633038
REMARK  6 active torsions:
REMARK  status: ('A' for Active; 'I' for Inactive)
REMARK    1  A    between atoms: C_3  and  C_18
REMARK    2  A    between atoms: C_3  and  C_30
REMARK    3  A    between atoms: C_5  and  C_7
REMARK    4  A    between atoms: N_17  and  C_22
REMARK    5  A    between atoms: C_23  and  C_27
REMARK    6  A    between atoms: C_23  and  O_28
REMARK                            x       y       z     vdW  Elec       q    Type
REMARK                         _______ _______ _______ _____ _____    ______ ____
ROOT
ATOM      1  O   UNL     1      30.217  -9.535 -21.807  0.00  0.00    -0.376 OA
ATOM      2  N   UNL     1      30.584 -10.887 -21.624  0.00  0.00    -0.086 NA
ATOM      3  C   UNL     1      31.400  -8.776 -22.069  0.00  0.00    +0.234 C 
ATOM      4  C   UNL     1      32.422  -9.772 -22.569  0.00  0.00    +0.102 C 
ATOM      5  C   UNL     1      31.803 -11.021 -22.039  0.00  0.00    +0.119 C 
ENDROOT
BRANCH   5   7
ATOM      6  N   UNL     1      32.907 -12.699 -20.776  0.00  0.00    -0.243 NA
ATOM      7  C   UNL     1      32.531 -12.309 -22.018  0.00  0.00    +0.098 C 
ATOM      8  C   UNL     1      32.797 -13.043 -23.180  0.00  0.00    +0.019 C 
ATOM      9  C   UNL     1      33.498 -14.258 -23.043  0.00  0.00    +0.003 C 
ATOM     10  C   UNL     1      32.393 -12.610 -24.454  0.00  0.00    +0.002 C 
ATOM     11  C   UNL     1      33.893 -14.673 -21.766  0.00  0.00    +0.021 C 
ATOM     12  C   UNL     1      33.576 -13.867 -20.682  0.00  0.00    +0.099 C 
ATOM     13  C   UNL     1      33.781 -15.019 -24.190  0.00  0.00    +0.000 C 
ATOM     14  C   UNL     1      32.683 -13.377 -25.583  0.00  0.00    +0.000 C 
ATOM     15  C   UNL     1      33.375 -14.578 -25.451  0.00  0.00    +0.000 C 
ENDBRANCH   5   7
BRANCH   3  18
ATOM     16  O   UNL     1      29.861  -7.648 -23.502  0.00  0.00    -0.271 OA
ATOM     17  N   UNL     1      32.119  -7.098 -23.614  0.00  0.00    -0.297 N 
ATOM     18  C   UNL     1      31.023  -7.785 -23.128  0.00  0.00    +0.262 C 
ATOM     19  H   UNL     1      33.005  -7.296 -23.232  0.00  0.00    +0.150 HD
BRANCH  17  22
ATOM     20  O   UNL     1      32.869  -4.160 -25.585  0.00  0.00    -0.426 OA
ATOM     21  O   UNL     1      30.977  -2.863 -25.486  0.00  0.00    -0.250 OA
ATOM     22  C   UNL     1      32.027  -6.110 -24.651  0.00  0.00    +0.150 C 
ATOM     23  C   UNL     1      33.323  -5.359 -24.931  0.00  0.00    +0.279 C 
ATOM     24  C   UNL     1      31.074  -4.982 -24.311  0.00  0.00    +0.135 C 
ATOM     25  C   UNL     1      31.589  -3.877 -25.187  0.00  0.00    +0.321 C 
BRANCH  23  27
ATOM     26  F   UNL     1      34.908  -7.054 -25.110  0.00  0.00    -0.227 F 
ATOM     27  C   UNL     1      34.267  -6.120 -25.851  0.00  0.00    +0.264 C 
ENDBRANCH  23  27
BRANCH  23  28
ATOM     28  O   UNL     1      33.983  -5.030 -23.709  0.00  0.00    -0.351 OA
ATOM     29  H   UNL     1      33.545  -5.484 -22.973  0.00  0.00    +0.214 HD
ENDBRANCH  23  28
ENDBRANCH  17  22
ENDBRANCH   3  18
BRANCH   3  30
ATOM     30  C   UNL     1      31.823  -8.043 -20.802  0.00  0.00    +0.048 C 
ATOM     31  C   UNL     1      31.365  -6.584 -20.839  0.00  0.00    +0.004 C 
ATOM     32  C   UNL     1      31.271  -8.743 -19.559  0.00  0.00    +0.004 C 
ENDBRANCH   3  30
TORSDOF 6
ENDMDL
MODEL 5
REMARK VINA RESULT:      -9.7     12.873     17.215
REMARK  Name = 11633038
REMARK  6 active torsions:
REMARK  status: ('A' for Active; 'I' for Inactive)
REMARK    1  A    between atoms: C_3  and  C_18
REMARK    2  A    between atoms: C_3  and  C_30
REMARK    3  A    between atoms: C_5  and  C_7
REMARK    4  A    between atoms: N_17  and  C_22
REMARK    5  A    between atoms: C_23  and  C_27
REMARK    6  A    between atoms: C_23  and  O_28
REMARK                            x       y       z     vdW  Elec       q    Type
REMARK                         _______ _______ _______ _____ _____    ______ ____
ROOT
ATOM      1  O   UNL     1      30.299  -9.665 -21.905  0.00  0.00    -0.376 OA
ATOM      2  N   UNL     1      30.616 -11.008 -22.214  0.00  0.00    -0.086 NA
ATOM      3  C   UNL     1      31.481  -8.874 -22.054  0.00  0.00    +0.234 C 
ATOM      4  C   UNL     1      32.387  -9.665 -22.970  0.00  0.00    +0.102 C 
ATOM      5  C   UNL     1      31.771 -11.011 -22.798  0.00  0.00    +0.119 C 
ENDROOT
BRANCH   5   7
ATOM      6  N   UNL     1      32.453 -12.351 -24.634  0.00  0.00    -0.243 NA
ATOM      7  C   UNL     1      32.431 -12.243 -23.283  0.00  0.00    +0.098 C 
ATOM      8  C   UNL     1      32.978 -13.197 -22.416  0.00  0.00    +0.019 C 
ATOM      9  C   UNL     1      33.584 -14.334 -22.988  0.00  0.00    +0.003 C 
ATOM     10  C   UNL     1      32.939 -13.055 -21.019  0.00  0.00    +0.002 C 
ATOM     11  C   UNL     1      33.613 -14.458 -24.382  0.00  0.00    +0.021 C 
ATOM     12  C   UNL     1      33.041 -13.452 -25.147  0.00  0.00    +0.099 C 
ATOM     13  C   UNL     1      34.142 -15.310 -22.145  0.00  0.00    +0.000 C 
ATOM     14  C   UNL     1      33.497 -14.034 -20.196  0.00  0.00    +0.000 C 
ATOM     15  C   UNL     1      34.097 -15.158 -20.758  0.00  0.00    +0.000 C 
ENDBRANCH   5   7
BRANCH   3  18
ATOM     16  O   UNL     1      29.862  -7.227 -22.652  0.00  0.00    -0.271 OA
ATOM     17  N   UNL     1      32.078  -6.916 -23.289  0.00  0.00    -0.297 N 
ATOM     18  C   UNL     1      31.035  -7.589 -22.682  0.00  0.00    +0.262 C 
ATOM     19  H   UNL     1      32.980  -7.309 -23.244  0.00  0.00    +0.150 HD
BRANCH  17  22
ATOM     20  O   UNL     1      32.876  -3.715 -24.770  0.00  0.00    -0.426 OA
ATOM     21  O   UNL     1      31.569  -2.189 -23.659  0.00  0.00    -0.250 OA
ATOM     22  C   UNL     1      31.909  -5.671 -23.981  0.00  0.00    +0.150 C 
ATOM     23  C   UNL     1      33.181  -5.112 -24.607  0.00  0.00    +0.279 C 
ATOM     24  C   UNL     1      31.481  -4.539 -23.069  0.00  0.00    +0.135 C 
ATOM     25  C   UNL     1      31.943  -3.337 -23.840  0.00  0.00    +0.321 C 
BRANCH  23  27
ATOM     26  F   UNL     1      32.330  -6.021 -26.573  0.00  0.00    -0.227 F 
ATOM     27  C   UNL     1      33.501  -5.729 -25.961  0.00  0.00    +0.264 C 
ENDBRANCH  23  27
BRANCH  23  28
ATOM     28  O   UNL     1      34.286  -5.271 -23.718  0.00  0.00    -0.351 OA
ATOM     29  H   UNL     1      35.036  -4.747 -24.037  0.00  0.00    +0.214 HD
ENDBRANCH  23  28
ENDBRANCH  17  22
ENDBRANCH   3  18
BRANCH   3  30
ATOM     30  C   UNL     1      32.082  -8.598 -20.681  0.00  0.00    +0.048 C 
ATOM     31  C   UNL     1      32.333  -7.102 -20.489  0.00  0.00    +0.004 C 
ATOM     32  C   UNL     1      31.174  -9.132 -19.572  0.00  0.00    +0.004 C 
ENDBRANCH   3  30
TORSDOF 6
ENDMDL
MODEL 6
REMARK VINA RESULT:      -9.6      1.001      2.007
REMARK  Name = 11633038
REMARK  6 active torsions:
REMARK  status: ('A' for Active; 'I' for Inactive)
REMARK    1  A    between atoms: C_3  and  C_18
REMARK    2  A    between atoms: C_3  and  C_30
REMARK    3  A    between atoms: C_5  and  C_7
REMARK    4  A    between atoms: N_17  and  C_22
REMARK    5  A    between atoms: C_23  and  C_27
REMARK    6  A    between atoms: C_23  and  O_28
REMARK                            x       y       z     vdW  Elec       q    Type
REMARK                         _______ _______ _______ _____ _____    ______ ____
ROOT
ATOM      1  O   UNL     1      36.762 -21.617 -15.637  0.00  0.00    -0.376 OA
ATOM      2  N   UNL     1      36.739 -20.691 -16.704  0.00  0.00    -0.086 NA
ATOM      3  C   UNL     1      35.635 -22.487 -15.767  0.00  0.00    +0.234 C 
ATOM      4  C   UNL     1      35.228 -22.411 -17.221  0.00  0.00    +0.102 C 
ATOM      5  C   UNL     1      35.889 -21.124 -17.579  0.00  0.00    +0.119 C 
ENDROOT
BRANCH   5   7
ATOM      6  N   UNL     1      36.685 -19.811 -19.387  0.00  0.00    -0.243 NA
ATOM      7  C   UNL     1      35.602 -20.421 -18.849  0.00  0.00    +0.098 C 
ATOM      8  C   UNL     1      34.327 -20.398 -19.426  0.00  0.00    +0.019 C 
ATOM      9  C   UNL     1      34.166 -19.698 -20.639  0.00  0.00    +0.003 C 
ATOM     10  C   UNL     1      33.223 -21.043 -18.841  0.00  0.00    +0.002 C 
ATOM     11  C   UNL     1      35.277 -19.063 -21.206  0.00  0.00    +0.021 C 
ATOM     12  C   UNL     1      36.496 -19.149 -20.548  0.00  0.00    +0.099 C 
ATOM     13  C   UNL     1      32.899 -19.657 -21.244  0.00  0.00    +0.000 C 
ATOM     14  C   UNL     1      31.972 -20.991 -19.454  0.00  0.00    +0.000 C 
ATOM     15  C   UNL     1      31.810 -20.301 -20.653  0.00  0.00    +0.000 C 
ENDBRANCH   5   7
BRANCH   3  18
ATOM     16  O   UNL     1      35.424 -24.851 -15.520  0.00  0.00    -0.271 OA
ATOM     17  N   UNL     1      37.416 -23.823 -14.896  0.00  0.00    -0.297 N 
ATOM     18  C   UNL     1      36.128 -23.852 -15.396  0.00  0.00    +0.262 C 
ATOM     19  H   UNL     1      37.881 -22.956 -14.846  0.00  0.00    +0.150 HD
BRANCH  17  22
ATOM     20  O   UNL     1      39.289 -26.054 -12.753  0.00  0.00    -0.426 OA
ATOM     21  O   UNL     1      41.240 -26.487 -13.884  0.00  0.00    -0.250 OA
ATOM     22  C   UNL     1      38.109 -24.997 -14.448  0.00  0.00    +0.150 C 
ATOM     23  C   UNL     1      38.180 -25.156 -12.934  0.00  0.00    +0.279 C 
ATOM     24  C   UNL     1      39.574 -25.006 -14.836  0.00  0.00    +0.135 C 
ATOM     25  C   UNL     1      40.154 -25.935 -13.810  0.00  0.00    +0.321 C 
BRANCH  23  27
ATOM     26  F   UNL     1      36.593 -26.853 -13.081  0.00  0.00    -0.227 F 
ATOM     27  C   UNL     1      36.920 -25.769 -12.339  0.00  0.00    +0.264 C 
ENDBRANCH  23  27
BRANCH  23  28
ATOM     28  O   UNL     1      38.458 -23.902 -12.314  0.00  0.00    -0.351 OA
ATOM     29  H   UNL     1      39.007 -24.045 -11.527  0.00  0.00    +0.214 HD
ENDBRANCH  23  28
ENDBRANCH  17  22
ENDBRANCH   3  18
BRANCH   3  30
ATOM     30  C   UNL     1      34.543 -22.050 -14.799  0.00  0.00    +0.048 C 
ATOM     31  C   UNL     1      33.162 -22.451 -15.319  0.00  0.00    +0.004 C 
ATOM     32  C   UNL     1      34.780 -22.642 -13.409  0.00  0.00    +0.004 C 
ENDBRANCH   3  30
TORSDOF 6
ENDMDL
MODEL 7
REMARK VINA RESULT:      -9.1      3.804      6.705
REMARK  Name = 11633038
REMARK  6 active torsions:
REMARK  status: ('A' for Active; 'I' for Inactive)
REMARK    1  A    between atoms: C_3  and  C_18
REMARK    2  A    between atoms: C_3  and  C_30
REMARK    3  A    between atoms: C_5  and  C_7
REMARK    4  A    between atoms: N_17  and  C_22
REMARK    5  A    between atoms: C_23  and  C_27
REMARK    6  A    between atoms: C_23  and  O_28
REMARK                            x       y       z     vdW  Elec       q    Type
REMARK                         _______ _______ _______ _____ _____    ______ ____
ROOT
ATOM      1  O   UNL     1      33.772 -24.804 -14.795  0.00  0.00    -0.376 OA
ATOM      2  N   UNL     1      34.673 -24.222 -15.717  0.00  0.00    -0.086 NA
ATOM      3  C   UNL     1      33.506 -23.854 -13.760  0.00  0.00    +0.234 C 
ATOM      4  C   UNL     1      33.839 -22.503 -14.351  0.00  0.00    +0.102 C 
ATOM      5  C   UNL     1      34.715 -22.951 -15.471  0.00  0.00    +0.119 C 
ENDROOT
BRANCH   5   7
ATOM      6  N   UNL     1      36.645 -21.575 -15.579  0.00  0.00    -0.243 NA
ATOM      7  C   UNL     1      35.545 -22.003 -16.246  0.00  0.00    +0.098 C 
ATOM      8  C   UNL     1      35.212 -21.596 -17.543  0.00  0.00    +0.019 C 
ATOM      9  C   UNL     1      36.076 -20.688 -18.189  0.00  0.00    +0.003 C 
ATOM     10  C   UNL     1      34.063 -22.059 -18.207  0.00  0.00    +0.002 C 
ATOM     11  C   UNL     1      37.215 -20.238 -17.512  0.00  0.00    +0.021 C 
ATOM     12  C   UNL     1      37.449 -20.706 -16.227  0.00  0.00    +0.099 C 
ATOM     13  C   UNL     1      35.770 -20.260 -19.492  0.00  0.00    +0.000 C 
ATOM     14  C   UNL     1      33.774 -21.623 -19.500  0.00  0.00    +0.000 C 
ATOM     15  C   UNL     1      34.626 -20.727 -20.141  0.00  0.00    +0.000 C 
ENDBRANCH   5   7
BRANCH   3  18
ATOM     16  O   UNL     1      31.634 -24.713 -12.555  0.00  0.00    -0.271 OA
ATOM     17  N   UNL     1      31.264 -23.222 -14.303  0.00  0.00    -0.297 N 
ATOM     18  C   UNL     1      32.045 -23.984 -13.454  0.00  0.00    +0.262 C 
ATOM     19  H   UNL     1      31.713 -22.675 -14.988  0.00  0.00    +0.150 HD
BRANCH  17  22
ATOM     20  O   UNL     1      27.803 -23.670 -15.251  0.00  0.00    -0.426 OA
ATOM     21  O   UNL     1      26.905 -21.558 -15.286  0.00  0.00    -0.250 OA
ATOM     22  C   UNL     1      29.831 -23.190 -14.232  0.00  0.00    +0.150 C 
ATOM     23  C   UNL     1      29.127 -24.217 -15.111  0.00  0.00    +0.279 C 
ATOM     24  C   UNL     1      29.242 -21.887 -14.733  0.00  0.00    +0.135 C 
ATOM     25  C   UNL     1      27.851 -22.308 -15.109  0.00  0.00    +0.321 C 
BRANCH  23  27
ATOM     26  F   UNL     1      27.894 -25.665 -13.770  0.00  0.00    -0.227 F 
ATOM     27  C   UNL     1      29.049 -25.596 -14.472  0.00  0.00    +0.264 C 
ENDBRANCH  23  27
BRANCH  23  28
ATOM     28  O   UNL     1      29.761 -24.299 -16.387  0.00  0.00    -0.351 OA
ATOM     29  H   UNL     1      30.566 -23.758 -16.384  0.00  0.00    +0.214 HD
ENDBRANCH  23  28
ENDBRANCH  17  22
ENDBRANCH   3  18
BRANCH   3  30
ATOM     30  C   UNL     1      34.326 -24.206 -12.526  0.00  0.00    +0.048 C 
ATOM     31  C   UNL     1      35.596 -24.964 -12.915  0.00  0.00    +0.004 C 
ATOM     32  C   UNL     1      34.681 -22.947 -11.732  0.00  0.00    +0.004 C 
ENDBRANCH   3  30
TORSDOF 6
ENDMDL
MODEL 8
REMARK VINA RESULT:      -8.9     13.335     17.007
REMARK  Name = 11633038
REMARK  6 active torsions:
REMARK  status: ('A' for Active; 'I' for Inactive)
REMARK    1  A    between atoms: C_3  and  C_18
REMARK    2  A    between atoms: C_3  and  C_30
REMARK    3  A    between atoms: C_5  and  C_7
REMARK    4  A    between atoms: N_17  and  C_22
REMARK    5  A    between atoms: C_23  and  C_27
REMARK    6  A    between atoms: C_23  and  O_28
REMARK                            x       y       z     vdW  Elec       q    Type
REMARK                         _______ _______ _______ _____ _____    ______ ____
ROOT
ATOM      1  O   UNL     1      33.255  -7.472 -21.927  0.00  0.00    -0.376 OA
ATOM      2  N   UNL     1      33.083  -6.098 -22.212  0.00  0.00    -0.086 NA
ATOM      3  C   UNL     1      32.586  -8.232 -22.937  0.00  0.00    +0.234 C 
ATOM      4  C   UNL     1      32.462  -7.306 -24.126  0.00  0.00    +0.102 C 
ATOM      5  C   UNL     1      32.641  -6.003 -23.425  0.00  0.00    +0.119 C 
ENDROOT
BRANCH   5   7
ATOM      6  N   UNL     1      31.144  -4.194 -23.759  0.00  0.00    -0.243 NA
ATOM      7  C   UNL     1      32.353  -4.711 -24.085  0.00  0.00    +0.098 C 
ATOM      8  C   UNL     1      33.255  -4.094 -24.960  0.00  0.00    +0.019 C 
ATOM      9  C   UNL     1      32.877  -2.863 -25.533  0.00  0.00    +0.003 C 
ATOM     10  C   UNL     1      34.502  -4.658 -25.277  0.00  0.00    +0.002 C 
ATOM     11  C   UNL     1      31.630  -2.317 -25.205  0.00  0.00    +0.021 C 
ATOM     12  C   UNL     1      30.814  -3.014 -24.326  0.00  0.00    +0.099 C 
ATOM     13  C   UNL     1      33.760  -2.218 -26.415  0.00  0.00    +0.000 C 
ATOM     14  C   UNL     1      35.367  -4.005 -26.156  0.00  0.00    +0.000 C 
ATOM     15  C   UNL     1      34.997  -2.788 -26.723  0.00  0.00    +0.000 C 
ENDBRANCH   5   7
BRANCH   3  18
ATOM     16  O   UNL     1      34.633  -9.248 -23.626  0.00  0.00    -0.271 OA
ATOM     17  N   UNL     1      32.846 -10.607 -23.017  0.00  0.00    -0.297 N 
ATOM     18  C   UNL     1      33.481  -9.398 -23.228  0.00  0.00    +0.262 C 
ATOM     19  H   UNL     1      31.915 -10.599 -22.693  0.00  0.00    +0.150 HD
BRANCH  17  22
ATOM     20  O   UNL     1      33.237 -14.141 -23.677  0.00  0.00    -0.426 OA
ATOM     21  O   UNL     1      34.353 -14.980 -21.854  0.00  0.00    -0.250 OA
ATOM     22  C   UNL     1      33.479 -11.875 -23.245  0.00  0.00    +0.150 C 
ATOM     23  C   UNL     1      32.631 -12.881 -24.015  0.00  0.00    +0.279 C 
ATOM     24  C   UNL     1      33.779 -12.627 -21.964  0.00  0.00    +0.135 C 
ATOM     25  C   UNL     1      33.850 -14.044 -22.455  0.00  0.00    +0.321 C 
BRANCH  23  27
ATOM     26  F   UNL     1      33.002 -13.857 -26.094  0.00  0.00    -0.227 F 
ATOM     27  C   UNL     1      32.681 -12.674 -25.522  0.00  0.00    +0.264 C 
ENDBRANCH  23  27
BRANCH  23  28
ATOM     28  O   UNL     1      31.280 -12.848 -23.556  0.00  0.00    -0.351 OA
ATOM     29  H   UNL     1      30.991 -13.747 -23.338  0.00  0.00    +0.214 HD
ENDBRANCH  23  28
ENDBRANCH  17  22
ENDBRANCH   3  18
BRANCH   3  30
ATOM     30  C   UNL     1      31.250  -8.726 -22.398  0.00  0.00    +0.048 C 
ATOM     31  C   UNL     1      31.188  -8.577 -20.878  0.00  0.00    +0.004 C 
ATOM     32  C   UNL     1      30.089  -7.976 -23.054  0.00  0.00    +0.004 C 
ENDBRANCH   3  30
TORSDOF 6
ENDMDL
MODEL 9
REMARK VINA RESULT:      -8.9     11.806     16.014
REMARK  Name = 11633038
REMARK  6 active torsions:
REMARK  status: ('A' for Active; 'I' for Inactive)
REMARK    1  A    between atoms: C_3  and  C_18
REMARK    2  A    between atoms: C_3  and  C_30
REMARK    3  A    between atoms: C_5  and  C_7
REMARK    4  A    between atoms: N_17  and  C_22
REMARK    5  A    between atoms: C_23  and  C_27
REMARK    6  A    between atoms: C_23  and  O_28
REMARK                            x       y       z     vdW  Elec       q    Type
REMARK                         _______ _______ _______ _____ _____    ______ ____
ROOT
ATOM      1  O   UNL     1      30.549 -10.576 -22.376  0.00  0.00    -0.376 OA
ATOM      2  N   UNL     1      30.813 -11.887 -22.834  0.00  0.00    -0.086 NA
ATOM      3  C   UNL     1      31.782  -9.983 -21.963  0.00  0.00    +0.234 C 
ATOM      4  C   UNL     1      32.867 -10.760 -22.674  0.00  0.00    +0.102 C 
ATOM      5  C   UNL     1      32.094 -11.993 -22.995  0.00  0.00    +0.119 C 
ENDROOT
BRANCH   5   7
ATOM      6  N   UNL     1      32.727 -13.359 -24.829  0.00  0.00    -0.243 NA
ATOM      7  C   UNL     1      32.751 -13.227 -23.481  0.00  0.00    +0.098 C 
ATOM      8  C   UNL     1      33.337 -14.159 -22.616  0.00  0.00    +0.019 C 
ATOM      9  C   UNL     1      33.937 -15.299 -23.187  0.00  0.00    +0.003 C 
ATOM     10  C   UNL     1      33.344 -13.991 -21.221  0.00  0.00    +0.002 C 
ATOM     11  C   UNL     1      33.919 -15.448 -24.579  0.00  0.00    +0.021 C 
ATOM     12  C   UNL     1      33.310 -14.463 -25.342  0.00  0.00    +0.099 C 
ATOM     13  C   UNL     1      34.534 -16.253 -22.347  0.00  0.00    +0.000 C 
ATOM     14  C   UNL     1      33.941 -14.949 -20.400  0.00  0.00    +0.000 C 
ATOM     15  C   UNL     1      34.535 -16.076 -20.962  0.00  0.00    +0.000 C 
ENDBRANCH   5   7
BRANCH   3  18
ATOM     16  O   UNL     1      30.909  -8.181 -23.262  0.00  0.00    -0.271 OA
ATOM     17  N   UNL     1      32.684  -7.773 -21.814  0.00  0.00    -0.297 N 
ATOM     18  C   UNL     1      31.723  -8.558 -22.423  0.00  0.00    +0.262 C 
ATOM     19  H   UNL     1      33.283  -8.192 -21.153  0.00  0.00    +0.150 HD
BRANCH  17  22
ATOM     20  O   UNL     1      31.873  -4.283 -22.306  0.00  0.00    -0.426 OA
ATOM     21  O   UNL     1      32.440  -3.829 -24.483  0.00  0.00    -0.250 OA
ATOM     22  C   UNL     1      32.851  -6.377 -22.100  0.00  0.00    +0.150 C 
ATOM     23  C   UNL     1      31.784  -5.471 -21.498  0.00  0.00    +0.279 C 
ATOM     24  C   UNL     1      32.741  -6.057 -23.578  0.00  0.00    +0.135 C 
ATOM     25  C   UNL     1      32.358  -4.607 -23.546  0.00  0.00    +0.321 C 
BRANCH  23  27
ATOM     26  F   UNL     1      32.081  -6.277 -19.335  0.00  0.00    -0.227 F 
ATOM     27  C   UNL     1      32.050  -5.123 -20.041  0.00  0.00    +0.264 C 
ENDBRANCH  23  27
BRANCH  23  28
ATOM     28  O   UNL     1      30.493  -6.062 -21.636  0.00  0.00    -0.351 OA
ATOM     29  H   UNL     1      29.852  -5.382 -21.895  0.00  0.00    +0.214 HD
ENDBRANCH  23  28
ENDBRANCH  17  22
ENDBRANCH   3  18
BRANCH   3  30
ATOM     30  C   UNL     1      31.885 -10.032 -20.444  0.00  0.00    +0.048 C 
ATOM     31  C   UNL     1      30.748  -9.240 -19.796  0.00  0.00    +0.004 C 
ATOM     32  C   UNL     1      31.877 -11.478 -19.945  0.00  0.00    +0.004 C 
ENDBRANCH   3  30
TORSDOF 6
ENDMDL
