MODEL 1
REMARK VINA RESULT:     -11.9      0.000      0.000
REMARK  Name = 10401956
REMARK  3 active torsions:
REMARK  status: ('A' for Active; 'I' for Inactive)
REMARK    1  A    between atoms: N_1  and  C_13
REMARK    2  A    between atoms: C_8  and  N_20
REMARK    3  A    between atoms: C_21  and  C_23
REMARK                            x       y       z     vdW  Elec       q    Type
REMARK                         _______ _______ _______ _____ _____    ______ ____
ROOT
ATOM      1  N   UNL     1      32.506 -21.971 -18.022  0.00  0.00    -0.301 N 
ATOM      2  N   UNL     1      33.261 -23.955 -14.470  0.00  0.00    -0.248 NA
ATOM      3  N   UNL     1      34.002 -23.092 -16.594  0.00  0.00    -0.233 NA
ATOM      4  C   UNL     1      31.704 -22.818 -15.896  0.00  0.00    +0.117 C 
ATOM      5  C   UNL     1      32.019 -23.499 -14.709  0.00  0.00    +0.067 C 
ATOM      6  C   UNL     1      32.748 -22.648 -16.802  0.00  0.00    +0.115 C 
ATOM      7  C   UNL     1      30.402 -22.345 -16.135  0.00  0.00    +0.001 C 
ATOM      8  C   UNL     1      29.403 -22.548 -15.188  0.00  0.00    +0.047 C 
ATOM      9  C   UNL     1      31.000 -23.688 -13.778  0.00  0.00    +0.016 C 
ATOM     10  C   UNL     1      29.703 -23.220 -14.008  0.00  0.00    +0.016 C 
ATOM     11  C   UNL     1      34.185 -23.727 -15.426  0.00  0.00    +0.251 C 
ATOM     12  H   UNL     1      31.571 -21.961 -18.331  0.00  0.00    +0.153 HD
ENDROOT
BRANCH   1  13
ATOM     13  C   UNL     1      33.417 -21.321 -18.835  0.00  0.00    +0.049 C 
ATOM     14  C   UNL     1      34.801 -21.551 -18.703  0.00  0.00    +0.015 C 
ATOM     15  C   UNL     1      32.988 -20.409 -19.819  0.00  0.00    +0.015 C 
ATOM     16  C   UNL     1      35.719 -20.894 -19.521  0.00  0.00    +0.001 C 
ATOM     17  C   UNL     1      33.908 -19.752 -20.638  0.00  0.00    +0.001 C 
ATOM     18  C   UNL     1      35.273 -19.995 -20.489  0.00  0.00    +0.000 C 
ENDBRANCH   1  13
BRANCH   8  20
ATOM     19  O   UNL     1      27.447 -23.236 -17.360  0.00  0.00    -0.270 OA
ATOM     20  N   UNL     1      28.110 -22.081 -15.420  0.00  0.00    -0.281 N 
ATOM     21  C   UNL     1      27.234 -22.438 -16.456  0.00  0.00    +0.250 C 
ATOM     22  H   UNL     1      27.769 -21.418 -14.776  0.00  0.00    +0.155 HD
BRANCH  21  23
ATOM     23  C   UNL     1      25.936 -21.711 -16.354  0.00  0.00    +0.058 C 
ATOM     24  C   UNL     1      25.569 -20.838 -17.298  0.00  0.00    +0.005 C 
ENDBRANCH  21  23
ENDBRANCH   8  20
TORSDOF 3
ENDMDL
MODEL 2
REMARK VINA RESULT:     -11.3      7.134     10.486
REMARK  Name = 10401956
REMARK  3 active torsions:
REMARK  status: ('A' for Active; 'I' for Inactive)
REMARK    1  A    between atoms: N_1  and  C_13
REMARK    2  A    between atoms: C_8  and  N_20
REMARK    3  A    between atoms: C_21  and  C_23
REMARK                            x       y       z     vdW  Elec       q    Type
REMARK                         _______ _______ _______ _____ _____    ______ ____
ROOT
ATOM      1  N   UNL     1      34.687 -16.571 -21.418  0.00  0.00    -0.301 N 
ATOM      2  N   UNL     1      33.541 -15.285 -25.181  0.00  0.00    -0.248 NA
ATOM      3  N   UNL     1      34.536 -16.937 -23.737  0.00  0.00    -0.233 NA
ATOM      4  C   UNL     1      33.676 -14.872 -22.822  0.00  0.00    +0.117 C 
ATOM      5  C   UNL     1      33.309 -14.488 -24.122  0.00  0.00    +0.067 C 
ATOM      6  C   UNL     1      34.289 -16.116 -22.699  0.00  0.00    +0.115 C 
ATOM      7  C   UNL     1      33.428 -14.031 -21.723  0.00  0.00    +0.001 C 
ATOM      8  C   UNL     1      32.811 -12.799 -21.915  0.00  0.00    +0.047 C 
ATOM      9  C   UNL     1      32.693 -13.250 -24.285  0.00  0.00    +0.016 C 
ATOM     10  C   UNL     1      32.443 -12.408 -23.197  0.00  0.00    +0.016 C 
ATOM     11  C   UNL     1      34.142 -16.466 -24.930  0.00  0.00    +0.251 C 
ATOM     12  H   UNL     1      34.835 -15.872 -20.740  0.00  0.00    +0.153 HD
ENDROOT
BRANCH   1  13
ATOM     13  C   UNL     1      34.894 -17.873 -20.999  0.00  0.00    +0.049 C 
ATOM     14  C   UNL     1      33.820 -18.777 -20.883  0.00  0.00    +0.015 C 
ATOM     15  C   UNL     1      36.186 -18.332 -20.674  0.00  0.00    +0.015 C 
ATOM     16  C   UNL     1      34.029 -20.089 -20.459  0.00  0.00    +0.001 C 
ATOM     17  C   UNL     1      36.393 -19.645 -20.249  0.00  0.00    +0.001 C 
ATOM     18  C   UNL     1      35.315 -20.523 -20.142  0.00  0.00    +0.000 C 
ENDBRANCH   1  13
BRANCH   8  20
ATOM     19  O   UNL     1      30.510 -10.947 -21.375  0.00  0.00    -0.270 OA
ATOM     20  N   UNL     1      32.562 -11.961 -20.828  0.00  0.00    -0.281 N 
ATOM     21  C   UNL     1      31.464 -11.112 -20.625  0.00  0.00    +0.250 C 
ATOM     22  H   UNL     1      33.241 -11.966 -20.115  0.00  0.00    +0.155 HD
BRANCH  21  23
ATOM     23  C   UNL     1      31.569 -10.377 -19.331  0.00  0.00    +0.058 C 
ATOM     24  C   UNL     1      31.196  -9.096 -19.245  0.00  0.00    +0.005 C 
ENDBRANCH  21  23
ENDBRANCH   8  20
TORSDOF 3
ENDMDL
MODEL 3
REMARK VINA RESULT:     -11.3      2.767      3.751
REMARK  Name = 10401956
REMARK  3 active torsions:
REMARK  status: ('A' for Active; 'I' for Inactive)
REMARK    1  A    between atoms: N_1  and  C_13
REMARK    2  A    between atoms: C_8  and  N_20
REMARK    3  A    between atoms: C_21  and  C_23
REMARK                            x       y       z     vdW  Elec       q    Type
REMARK                         _______ _______ _______ _____ _____    ______ ____
ROOT
ATOM      1  N   UNL     1      34.238 -22.131 -17.780  0.00  0.00    -0.301 N 
ATOM      2  N   UNL     1      37.120 -22.150 -14.810  0.00  0.00    -0.248 NA
ATOM      3  N   UNL     1      36.402 -21.582 -17.038  0.00  0.00    -0.233 NA
ATOM      4  C   UNL     1      34.905 -22.729 -15.526  0.00  0.00    +0.117 C 
ATOM      5  C   UNL     1      35.922 -22.706 -14.557  0.00  0.00    +0.067 C 
ATOM      6  C   UNL     1      35.213 -22.146 -16.752  0.00  0.00    +0.115 C 
ATOM      7  C   UNL     1      33.656 -23.312 -15.251  0.00  0.00    +0.001 C 
ATOM      8  C   UNL     1      33.413 -23.878 -14.004  0.00  0.00    +0.047 C 
ATOM      9  C   UNL     1      35.650 -23.280 -13.317  0.00  0.00    +0.016 C 
ATOM     10  C   UNL     1      34.411 -23.862 -13.036  0.00  0.00    +0.016 C 
ATOM     11  C   UNL     1      37.294 -21.618 -16.037  0.00  0.00    +0.251 C 
ATOM     12  H   UNL     1      33.535 -22.818 -17.716  0.00  0.00    +0.153 HD
ENDROOT
BRANCH   1  13
ATOM     13  C   UNL     1      34.147 -21.272 -18.861  0.00  0.00    +0.049 C 
ATOM     14  C   UNL     1      35.304 -20.800 -19.511  0.00  0.00    +0.015 C 
ATOM     15  C   UNL     1      32.894 -20.845 -19.342  0.00  0.00    +0.015 C 
ATOM     16  C   UNL     1      35.212 -19.933 -20.600  0.00  0.00    +0.001 C 
ATOM     17  C   UNL     1      32.803 -19.978 -20.432  0.00  0.00    +0.001 C 
ATOM     18  C   UNL     1      33.962 -19.522 -21.060  0.00  0.00    +0.000 C 
ENDBRANCH   1  13
BRANCH   8  20
ATOM     19  O   UNL     1      30.706 -22.620 -13.675  0.00  0.00    -0.270 OA
ATOM     20  N   UNL     1      32.175 -24.458 -13.725  0.00  0.00    -0.281 N 
ATOM     21  C   UNL     1      30.934 -23.820 -13.581  0.00  0.00    +0.250 C 
ATOM     22  H   UNL     1      32.172 -25.437 -13.615  0.00  0.00    +0.155 HD
BRANCH  21  23
ATOM     23  C   UNL     1      29.845 -24.795 -13.283  0.00  0.00    +0.058 C 
ATOM     24  C   UNL     1      28.978 -25.156 -14.234  0.00  0.00    +0.005 C 
ENDBRANCH  21  23
ENDBRANCH   8  20
TORSDOF 3
ENDMDL
MODEL 4
REMARK VINA RESULT:     -11.0      1.834      3.000
REMARK  Name = 10401956
REMARK  3 active torsions:
REMARK  status: ('A' for Active; 'I' for Inactive)
REMARK    1  A    between atoms: N_1  and  C_13
REMARK    2  A    between atoms: C_8  and  N_20
REMARK    3  A    between atoms: C_21  and  C_23
REMARK                            x       y       z     vdW  Elec       q    Type
REMARK                         _______ _______ _______ _____ _____    ______ ____
ROOT
ATOM      1  N   UNL     1      34.137 -20.880 -19.664  0.00  0.00    -0.301 N 
ATOM      2  N   UNL     1      35.828 -22.324 -16.173  0.00  0.00    -0.248 NA
ATOM      3  N   UNL     1      36.032 -21.248 -18.319  0.00  0.00    -0.233 NA
ATOM      4  C   UNL     1      33.870 -21.968 -17.513  0.00  0.00    +0.117 C 
ATOM      5  C   UNL     1      34.500 -22.440 -16.349  0.00  0.00    +0.067 C 
ATOM      6  C   UNL     1      34.700 -21.380 -18.463  0.00  0.00    +0.115 C 
ATOM      7  C   UNL     1      32.481 -22.095 -17.686  0.00  0.00    +0.001 C 
ATOM      8  C   UNL     1      31.708 -22.694 -16.696  0.00  0.00    +0.047 C 
ATOM      9  C   UNL     1      33.702 -23.035 -15.375  0.00  0.00    +0.016 C 
ATOM     10  C   UNL     1      32.319 -23.165 -15.539  0.00  0.00    +0.016 C 
ATOM     11  C   UNL     1      36.521 -21.734 -17.168  0.00  0.00    +0.251 C 
ATOM     12  H   UNL     1      33.273 -21.271 -19.929  0.00  0.00    +0.153 HD
ENDROOT
BRANCH   1  13
ATOM     13  C   UNL     1      34.647 -19.913 -20.510  0.00  0.00    +0.049 C 
ATOM     14  C   UNL     1      33.876 -19.395 -21.569  0.00  0.00    +0.015 C 
ATOM     15  C   UNL     1      35.955 -19.417 -20.339  0.00  0.00    +0.015 C 
ATOM     16  C   UNL     1      34.391 -18.420 -22.423  0.00  0.00    +0.001 C 
ATOM     17  C   UNL     1      36.470 -18.442 -21.194  0.00  0.00    +0.001 C 
ATOM     18  C   UNL     1      35.688 -17.944 -22.236  0.00  0.00    +0.000 C 
ENDBRANCH   1  13
BRANCH   8  20
ATOM     19  O   UNL     1      29.467 -22.270 -14.743  0.00  0.00    -0.270 OA
ATOM     20  N   UNL     1      30.329 -22.822 -16.863  0.00  0.00    -0.281 N 
ATOM     21  C   UNL     1      29.321 -22.610 -15.911  0.00  0.00    +0.250 C 
ATOM     22  H   UNL     1      30.026 -23.095 -17.759  0.00  0.00    +0.155 HD
BRANCH  21  23
ATOM     23  C   UNL     1      27.965 -22.853 -16.483  0.00  0.00    +0.058 C 
ATOM     24  C   UNL     1      26.966 -21.996 -16.251  0.00  0.00    +0.005 C 
ENDBRANCH  21  23
ENDBRANCH   8  20
TORSDOF 3
ENDMDL
MODEL 5
REMARK VINA RESULT:     -10.9      3.186      7.441
REMARK  Name = 10401956
REMARK  3 active torsions:
REMARK  status: ('A' for Active; 'I' for Inactive)
REMARK    1  A    between atoms: N_1  and  C_13
REMARK    2  A    between atoms: C_8  and  N_20
REMARK    3  A    between atoms: C_21  and  C_23
REMARK                            x       y       z     vdW  Elec       q    Type
REMARK                         _______ _______ _______ _____ _____    ______ ____
ROOT
ATOM      1  N   UNL     1      32.057 -23.307 -16.055  0.00  0.00    -0.301 N 
ATOM      2  N   UNL     1      34.219 -21.270 -18.937  0.00  0.00    -0.248 NA
ATOM      3  N   UNL     1      32.155 -22.227 -18.143  0.00  0.00    -0.233 NA
ATOM      4  C   UNL     1      34.163 -22.363 -16.802  0.00  0.00    +0.117 C 
ATOM      5  C   UNL     1      34.845 -21.669 -17.815  0.00  0.00    +0.067 C 
ATOM      6  C   UNL     1      32.812 -22.611 -17.031  0.00  0.00    +0.115 C 
ATOM      7  C   UNL     1      34.826 -22.774 -15.633  0.00  0.00    +0.001 C 
ATOM      8  C   UNL     1      36.179 -22.494 -15.466  0.00  0.00    +0.047 C 
ATOM      9  C   UNL     1      36.198 -21.402 -17.621  0.00  0.00    +0.016 C 
ATOM     10  C   UNL     1      36.865 -21.807 -16.461  0.00  0.00    +0.016 C 
ATOM     11  C   UNL     1      32.909 -21.571 -19.039  0.00  0.00    +0.251 C 
ATOM     12  H   UNL     1      32.572 -23.878 -15.440  0.00  0.00    +0.153 HD
ENDROOT
BRANCH   1  13
ATOM     13  C   UNL     1      30.688 -23.286 -15.856  0.00  0.00    +0.049 C 
ATOM     14  C   UNL     1      30.020 -24.390 -15.294  0.00  0.00    +0.015 C 
ATOM     15  C   UNL     1      29.923 -22.158 -16.212  0.00  0.00    +0.015 C 
ATOM     16  C   UNL     1      28.640 -24.369 -15.095  0.00  0.00    +0.001 C 
ATOM     17  C   UNL     1      28.542 -22.137 -16.013  0.00  0.00    +0.001 C 
ATOM     18  C   UNL     1      27.901 -23.243 -15.454  0.00  0.00    +0.000 C 
ENDBRANCH   1  13
BRANCH   8  20
ATOM     19  O   UNL     1      37.273 -25.182 -14.692  0.00  0.00    -0.270 OA
ATOM     20  N   UNL     1      36.842 -22.900 -14.308  0.00  0.00    -0.281 N 
ATOM     21  C   UNL     1      37.335 -24.175 -13.997  0.00  0.00    +0.250 C 
ATOM     22  H   UNL     1      36.982 -22.204 -13.625  0.00  0.00    +0.155 HD
BRANCH  21  23
ATOM     23  C   UNL     1      37.984 -24.201 -12.653  0.00  0.00    +0.058 C 
ATOM     24  C   UNL     1      37.410 -23.593 -11.610  0.00  0.00    +0.005 C 
ENDBRANCH  21  23
ENDBRANCH   8  20
TORSDOF 3
ENDMDL
MODEL 6
REMARK VINA RESULT:     -10.4      2.673      6.805
REMARK  Name = 10401956
REMARK  3 active torsions:
REMARK  status: ('A' for Active; 'I' for Inactive)
REMARK    1  A    between atoms: N_1  and  C_13
REMARK    2  A    between atoms: C_8  and  N_20
REMARK    3  A    between atoms: C_21  and  C_23
REMARK                            x       y       z     vdW  Elec       q    Type
REMARK                         _______ _______ _______ _____ _____    ______ ____
ROOT
ATOM      1  N   UNL     1      32.377 -22.782 -15.008  0.00  0.00    -0.301 N 
ATOM      2  N   UNL     1      35.953 -23.819 -13.202  0.00  0.00    -0.248 NA
ATOM      3  N   UNL     1      33.544 -23.827 -13.253  0.00  0.00    -0.233 NA
ATOM      4  C   UNL     1      34.802 -22.742 -15.010  0.00  0.00    +0.117 C 
ATOM      5  C   UNL     1      35.983 -23.121 -14.351  0.00  0.00    +0.067 C 
ATOM      6  C   UNL     1      33.610 -23.129 -14.403  0.00  0.00    +0.115 C 
ATOM      7  C   UNL     1      34.845 -22.014 -16.211  0.00  0.00    +0.001 C 
ATOM      8  C   UNL     1      36.071 -21.658 -16.765  0.00  0.00    +0.047 C 
ATOM      9  C   UNL     1      37.196 -22.752 -14.928  0.00  0.00    +0.016 C 
ATOM     10  C   UNL     1      37.248 -22.027 -16.123  0.00  0.00    +0.016 C 
ATOM     11  C   UNL     1      34.735 -24.133 -12.715  0.00  0.00    +0.251 C 
ATOM     12  H   UNL     1      32.399 -22.008 -15.617  0.00  0.00    +0.153 HD
ENDROOT
BRANCH   1  13
ATOM     13  C   UNL     1      31.146 -23.394 -14.854  0.00  0.00    +0.049 C 
ATOM     14  C   UNL     1      30.949 -24.390 -13.878  0.00  0.00    +0.015 C 
ATOM     15  C   UNL     1      30.054 -23.039 -15.669  0.00  0.00    +0.015 C 
ATOM     16  C   UNL     1      29.708 -25.008 -13.723  0.00  0.00    +0.001 C 
ATOM     17  C   UNL     1      28.813 -23.657 -15.514  0.00  0.00    +0.001 C 
ATOM     18  C   UNL     1      28.640 -24.641 -14.540  0.00  0.00    +0.000 C 
ENDBRANCH   1  13
BRANCH   8  20
ATOM     19  O   UNL     1      34.621 -22.087 -19.359  0.00  0.00    -0.270 OA
ATOM     20  N   UNL     1      36.120 -20.935 -17.957  0.00  0.00    -0.281 N 
ATOM     21  C   UNL     1      35.417 -21.181 -19.146  0.00  0.00    +0.250 C 
ATOM     22  H   UNL     1      36.723 -20.157 -17.965  0.00  0.00    +0.155 HD
BRANCH  21  23
ATOM     23  C   UNL     1      35.747 -20.176 -20.198  0.00  0.00    +0.058 C 
ATOM     24  C   UNL     1      34.776 -19.499 -20.819  0.00  0.00    +0.005 C 
ENDBRANCH  21  23
ENDBRANCH   8  20
TORSDOF 3
ENDMDL
MODEL 7
REMARK VINA RESULT:     -10.3      3.438      7.160
REMARK  Name = 10401956
REMARK  3 active torsions:
REMARK  status: ('A' for Active; 'I' for Inactive)
REMARK    1  A    between atoms: N_1  and  C_13
REMARK    2  A    between atoms: C_8  and  N_20
REMARK    3  A    between atoms: C_21  and  C_23
REMARK                            x       y       z     vdW  Elec       q    Type
REMARK                         _______ _______ _______ _____ _____    ______ ____
ROOT
ATOM      1  N   UNL     1      35.916 -23.148 -15.391  0.00  0.00    -0.301 N 
ATOM      2  N   UNL     1      31.882 -23.020 -16.309  0.00  0.00    -0.248 NA
ATOM      3  N   UNL     1      33.692 -23.716 -14.877  0.00  0.00    -0.233 NA
ATOM      4  C   UNL     1      34.136 -22.420 -16.869  0.00  0.00    +0.117 C 
ATOM      5  C   UNL     1      32.756 -22.411 -17.130  0.00  0.00    +0.067 C 
ATOM      6  C   UNL     1      34.539 -23.095 -15.720  0.00  0.00    +0.115 C 
ATOM      7  C   UNL     1      35.040 -21.779 -17.734  0.00  0.00    +0.001 C 
ATOM      8  C   UNL     1      34.572 -21.123 -18.868  0.00  0.00    +0.047 C 
ATOM      9  C   UNL     1      32.315 -21.745 -18.271  0.00  0.00    +0.016 C 
ATOM     10  C   UNL     1      33.208 -21.105 -19.136  0.00  0.00    +0.016 C 
ATOM     11  C   UNL     1      32.398 -23.639 -15.227  0.00  0.00    +0.251 C 
ATOM     12  H   UNL     1      36.543 -23.020 -16.140  0.00  0.00    +0.153 HD
ENDROOT
BRANCH   1  13
ATOM     13  C   UNL     1      36.492 -23.356 -14.151  0.00  0.00    +0.049 C 
ATOM     14  C   UNL     1      36.217 -22.495 -13.070  0.00  0.00    +0.015 C 
ATOM     15  C   UNL     1      37.373 -24.434 -13.933  0.00  0.00    +0.015 C 
ATOM     16  C   UNL     1      36.799 -22.704 -11.820  0.00  0.00    +0.001 C 
ATOM     17  C   UNL     1      37.955 -24.642 -12.682  0.00  0.00    +0.001 C 
ATOM     18  C   UNL     1      37.668 -23.777 -11.626  0.00  0.00    +0.000 C 
ENDBRANCH   1  13
BRANCH   8  20
ATOM     19  O   UNL     1      34.192 -18.722 -20.631  0.00  0.00    -0.270 OA
ATOM     20  N   UNL     1      35.464 -20.485 -19.729  0.00  0.00    -0.281 N 
ATOM     21  C   UNL     1      35.233 -19.359 -20.534  0.00  0.00    +0.250 C 
ATOM     22  H   UNL     1      36.368 -20.872 -19.778  0.00  0.00    +0.155 HD
BRANCH  21  23
ATOM     23  C   UNL     1      36.447 -18.984 -21.315  0.00  0.00    +0.058 C 
ATOM     24  C   UNL     1      36.437 -17.910 -22.113  0.00  0.00    +0.005 C 
ENDBRANCH  21  23
ENDBRANCH   8  20
TORSDOF 3
ENDMDL
MODEL 8
REMARK VINA RESULT:     -10.1      5.817      9.476
REMARK  Name = 10401956
REMARK  3 active torsions:
REMARK  status: ('A' for Active; 'I' for Inactive)
REMARK    1  A    between atoms: N_1  and  C_13
REMARK    2  A    between atoms: C_8  and  N_20
REMARK    3  A    between atoms: C_21  and  C_23
REMARK                            x       y       z     vdW  Elec       q    Type
REMARK                         _______ _______ _______ _____ _____    ______ ____
ROOT
ATOM      1  N   UNL     1      34.650 -18.143 -21.043  0.00  0.00    -0.301 N 
ATOM      2  N   UNL     1      33.889 -17.630 -25.079  0.00  0.00    -0.248 NA
ATOM      3  N   UNL     1      34.521 -19.026 -23.220  0.00  0.00    -0.233 NA
ATOM      4  C   UNL     1      34.008 -16.689 -22.875  0.00  0.00    +0.117 C 
ATOM      5  C   UNL     1      33.764 -16.575 -24.253  0.00  0.00    +0.067 C 
ATOM      6  C   UNL     1      34.386 -17.950 -22.421  0.00  0.00    +0.115 C 
ATOM      7  C   UNL     1      33.874 -15.580 -22.022  0.00  0.00    +0.001 C 
ATOM      8  C   UNL     1      33.493 -14.347 -22.540  0.00  0.00    +0.047 C 
ATOM      9  C   UNL     1      33.383 -15.329 -24.745  0.00  0.00    +0.016 C 
ATOM     10  C   UNL     1      33.247 -14.221 -23.903  0.00  0.00    +0.016 C 
ATOM     11  C   UNL     1      34.261 -18.798 -24.516  0.00  0.00    +0.251 C 
ATOM     12  H   UNL     1      34.895 -17.335 -20.535  0.00  0.00    +0.153 HD
ENDROOT
BRANCH   1  13
ATOM     13  C   UNL     1      34.607 -19.321 -20.320  0.00  0.00    +0.049 C 
ATOM     14  C   UNL     1      35.788 -19.924 -19.845  0.00  0.00    +0.015 C 
ATOM     15  C   UNL     1      33.380 -19.954 -20.039  0.00  0.00    +0.015 C 
ATOM     16  C   UNL     1      35.745 -21.113 -19.117  0.00  0.00    +0.001 C 
ATOM     17  C   UNL     1      33.338 -21.144 -19.311  0.00  0.00    +0.001 C 
ATOM     18  C   UNL     1      34.520 -21.723 -18.850  0.00  0.00    +0.000 C 
ENDBRANCH   1  13
BRANCH   8  20
ATOM     19  O   UNL     1      31.486 -13.785 -20.378  0.00  0.00    -0.270 OA
ATOM     20  N   UNL     1      33.357 -13.243 -21.698  0.00  0.00    -0.281 N 
ATOM     21  C   UNL     1      32.396 -13.031 -20.699  0.00  0.00    +0.250 C 
ATOM     22  H   UNL     1      34.018 -12.523 -21.821  0.00  0.00    +0.155 HD
BRANCH  21  23
ATOM     23  C   UNL     1      32.591 -11.718 -20.018  0.00  0.00    +0.058 C 
ATOM     24  C   UNL     1      31.616 -10.802 -20.017  0.00  0.00    +0.005 C 
ENDBRANCH  21  23
ENDBRANCH   8  20
TORSDOF 3
ENDMDL
MODEL 9
REMARK VINA RESULT:     -10.0      2.700      5.574
REMARK  Name = 10401956
REMARK  3 active torsions:
REMARK  status: ('A' for Active; 'I' for Inactive)
REMARK    1  A    between atoms: N_1  and  C_13
REMARK    2  A    between atoms: C_8  and  N_20
REMARK    3  A    between atoms: C_21  and  C_23
REMARK                            x       y       z     vdW  Elec       q    Type
REMARK                         _______ _______ _______ _____ _____    ______ ____
ROOT
ATOM      1  N   UNL     1      35.049 -23.237 -14.421  0.00  0.00    -0.301 N 
ATOM      2  N   UNL     1      35.986 -21.331 -17.973  0.00  0.00    -0.248 NA
ATOM      3  N   UNL     1      36.642 -22.256 -15.847  0.00  0.00    -0.233 NA
ATOM      4  C   UNL     1      34.330 -22.323 -16.549  0.00  0.00    +0.117 C 
ATOM      5  C   UNL     1      34.707 -21.674 -17.736  0.00  0.00    +0.067 C 
ATOM      6  C   UNL     1      35.352 -22.585 -15.642  0.00  0.00    +0.115 C 
ATOM      7  C   UNL     1      32.990 -22.677 -16.313  0.00  0.00    +0.001 C 
ATOM      8  C   UNL     1      32.016 -22.385 -17.261  0.00  0.00    +0.047 C 
ATOM      9  C   UNL     1      33.711 -21.394 -18.669  0.00  0.00    +0.016 C 
ATOM     10  C   UNL     1      32.376 -21.743 -18.441  0.00  0.00    +0.016 C 
ATOM     11  C   UNL     1      36.883 -21.641 -17.016  0.00  0.00    +0.251 C 
ATOM     12  H   UNL     1      34.116 -23.163 -14.114  0.00  0.00    +0.153 HD
ENDROOT
BRANCH   1  13
ATOM     13  C   UNL     1      35.897 -23.966 -13.606  0.00  0.00    +0.049 C 
ATOM     14  C   UNL     1      36.274 -25.281 -13.943  0.00  0.00    +0.015 C 
ATOM     15  C   UNL     1      36.407 -23.413 -12.415  0.00  0.00    +0.015 C 
ATOM     16  C   UNL     1      37.127 -26.015 -13.120  0.00  0.00    +0.001 C 
ATOM     17  C   UNL     1      37.261 -24.150 -11.593  0.00  0.00    +0.001 C 
ATOM     18  C   UNL     1      37.621 -25.450 -11.946  0.00  0.00    +0.000 C 
ENDBRANCH   1  13
BRANCH   8  20
ATOM     19  O   UNL     1      30.380 -22.264 -14.746  0.00  0.00    -0.270 OA
ATOM     20  N   UNL     1      30.685 -22.734 -17.032  0.00  0.00    -0.281 N 
ATOM     21  C   UNL     1      29.966 -22.657 -15.830  0.00  0.00    +0.250 C 
ATOM     22  H   UNL     1      30.189 -23.077 -17.810  0.00  0.00    +0.155 HD
BRANCH  21  23
ATOM     23  C   UNL     1      28.561 -23.128 -15.998  0.00  0.00    +0.058 C 
ATOM     24  C   UNL     1      27.642 -22.337 -16.563  0.00  0.00    +0.005 C 
ENDBRANCH  21  23
ENDBRANCH   8  20
TORSDOF 3
ENDMDL
