MODEL 1
REMARK VINA RESULT:     -11.9      0.000      0.000
REMARK  Name = 5288017
REMARK  6 active torsions:
REMARK  status: ('A' for Active; 'I' for Inactive)
REMARK    1  A    between atoms: C_4  and  C_15
REMARK    2  A    between atoms: C_10  and  N_22
REMARK    3  A    between atoms: C_23  and  C_25
REMARK    4  A    between atoms: C_25  and  N_26
REMARK    5  A    between atoms: C_27  and  C_33
REMARK    6  A    between atoms: C_33  and  N_34
REMARK                            x       y       z     vdW  Elec       q    Type
REMARK                         _______ _______ _______ _____ _____    ______ ____
ROOT
ATOM      1  O   UNL     1      33.104 -23.164 -16.089  0.00  0.00    -0.286 OA
ATOM      2  N   UNL     1      37.005 -21.264 -17.127  0.00  0.00    -0.280 N 
ATOM      3  N   UNL     1      37.460 -21.579 -15.882  0.00  0.00    -0.173 NA
ATOM      4  C   UNL     1      35.707 -21.660 -17.383  0.00  0.00    +0.056 A 
ATOM      5  C   UNL     1      35.310 -22.263 -16.231  0.00  0.00    +0.071 A 
ATOM      6  C   UNL     1      36.406 -22.187 -15.358  0.00  0.00    +0.105 A 
ATOM      7  C   UNL     1      34.196 -22.931 -15.615  0.00  0.00    +0.199 C 
ATOM      8  C   UNL     1      34.718 -23.270 -14.243  0.00  0.00    +0.054 C 
ATOM      9  C   UNL     1      36.057 -22.807 -14.117  0.00  0.00    +0.024 C 
ATOM     10  C   UNL     1      34.094 -23.912 -13.213  0.00  0.00    +0.053 C 
ATOM     11  C   UNL     1      36.775 -22.988 -12.957  0.00  0.00    +0.002 C 
ATOM     12  C   UNL     1      34.797 -24.107 -12.033  0.00  0.00    +0.015 C 
ATOM     13  C   UNL     1      36.128 -23.648 -11.906  0.00  0.00    +0.001 C 
ATOM     14  H   UNL     1      37.557 -20.793 -17.792  0.00  0.00    +0.189 HD
ENDROOT
BRANCH   4  15
ATOM     15  C   UNL     1      35.017 -21.402 -18.715  0.00  0.00    +0.040 C 
ATOM     16  C   UNL     1      33.506 -21.176 -18.542  0.00  0.00    +0.006 C 
ATOM     17  C   UNL     1      35.669 -20.238 -19.481  0.00  0.00    +0.006 C 
ATOM     18  C   UNL     1      32.821 -20.927 -19.885  0.00  0.00    +0.000 C 
ATOM     19  C   UNL     1      34.974 -19.993 -20.819  0.00  0.00    +0.000 C 
ATOM     20  C   UNL     1      33.474 -19.774 -20.644  0.00  0.00    +0.000 C 
ENDBRANCH   4  15
BRANCH  10  22
ATOM     21  O   UNL     1      31.518 -22.677 -12.294  0.00  0.00    -0.277 OA
ATOM     22  N   UNL     1      32.762 -24.379 -13.324  0.00  0.00    -0.286 N 
ATOM     23  C   UNL     1      31.601 -23.753 -12.877  0.00  0.00    +0.205 C 
ATOM     24  H   UNL     1      32.643 -25.248 -13.772  0.00  0.00    +0.155 HD
BRANCH  23  25
ATOM     25  C   UNL     1      30.386 -24.603 -13.204  0.00  0.00    +0.010 C 
BRANCH  25  26
ATOM     26  N   UNL     1      29.736 -24.080 -14.406  0.00  0.00    +0.393 N 
ATOM     27  C   UNL     1      27.564 -22.799 -15.902  0.00  0.00    -0.026 C 
ATOM     28  C   UNL     1      28.860 -22.064 -15.542  0.00  0.00    -0.025 C 
ATOM     29  C   UNL     1      27.822 -24.309 -15.958  0.00  0.00    -0.025 C 
ATOM     30  C   UNL     1      29.491 -22.637 -14.272  0.00  0.00    -0.077 C 
ATOM     31  C   UNL     1      28.487 -24.807 -14.673  0.00  0.00    -0.077 C 
ATOM     32  H   UNL     1      30.358 -24.221 -15.202  0.00  0.00    -0.079 HD
BRANCH  27  33
ATOM     33  C   UNL     1      26.993 -22.290 -17.223  0.00  0.00    -0.086 C 
BRANCH  33  34
ATOM     34  N   UNL     1      25.972 -21.279 -16.992  0.00  0.00    +0.380 N 
ATOM     35  H   UNL     1      25.141 -21.505 -17.537  0.00  0.00    -0.089 HD
ATOM     36  H   UNL     1      26.328 -20.366 -17.277  0.00  0.00    -0.089 HD
ATOM     37  H   UNL     1      25.733 -21.258 -16.001  0.00  0.00    -0.089 HD
ENDBRANCH  33  34
ENDBRANCH  27  33
ENDBRANCH  25  26
ENDBRANCH  23  25
ENDBRANCH  10  22
TORSDOF 6
ENDMDL
MODEL 2
REMARK VINA RESULT:     -11.8      3.080      7.920
REMARK  Name = 5288017
REMARK  6 active torsions:
REMARK  status: ('A' for Active; 'I' for Inactive)
REMARK    1  A    between atoms: C_4  and  C_15
REMARK    2  A    between atoms: C_10  and  N_22
REMARK    3  A    between atoms: C_23  and  C_25
REMARK    4  A    between atoms: C_25  and  N_26
REMARK    5  A    between atoms: C_27  and  C_33
REMARK    6  A    between atoms: C_33  and  N_34
REMARK                            x       y       z     vdW  Elec       q    Type
REMARK                         _______ _______ _______ _____ _____    ______ ____
ROOT
ATOM      1  O   UNL     1      35.552 -22.546 -16.589  0.00  0.00    -0.286 OA
ATOM      2  N   UNL     1      34.353 -24.307 -12.670  0.00  0.00    -0.280 N 
ATOM      3  N   UNL     1      33.048 -24.104 -13.007  0.00  0.00    -0.173 NA
ATOM      4  C   UNL     1      35.264 -23.901 -13.624  0.00  0.00    +0.056 A 
ATOM      5  C   UNL     1      34.494 -23.409 -14.631  0.00  0.00    +0.071 A 
ATOM      6  C   UNL     1      33.165 -23.555 -14.207  0.00  0.00    +0.105 A 
ATOM      7  C   UNL     1      34.565 -22.810 -15.936  0.00  0.00    +0.199 C 
ATOM      8  C   UNL     1      33.117 -22.594 -16.290  0.00  0.00    +0.054 C 
ATOM      9  C   UNL     1      32.293 -23.054 -15.225  0.00  0.00    +0.024 C 
ATOM     10  C   UNL     1      32.572 -22.053 -17.419  0.00  0.00    +0.053 C 
ATOM     11  C   UNL     1      30.922 -22.974 -15.289  0.00  0.00    +0.002 C 
ATOM     12  C   UNL     1      31.191 -21.962 -17.508  0.00  0.00    +0.015 C 
ATOM     13  C   UNL     1      30.372 -22.419 -16.451  0.00  0.00    +0.001 C 
ATOM     14  H   UNL     1      34.624 -24.712 -11.815  0.00  0.00    +0.189 HD
ENDROOT
BRANCH   4  15
ATOM     15  C   UNL     1      36.768 -24.043 -13.436  0.00  0.00    +0.040 C 
ATOM     16  C   UNL     1      37.123 -25.254 -12.558  0.00  0.00    +0.006 C 
ATOM     17  C   UNL     1      37.510 -24.097 -14.783  0.00  0.00    +0.006 C 
ATOM     18  C   UNL     1      38.634 -25.383 -12.368  0.00  0.00    +0.000 C 
ATOM     19  C   UNL     1      39.019 -24.231 -14.582  0.00  0.00    +0.000 C 
ATOM     20  C   UNL     1      39.367 -25.431 -13.707  0.00  0.00    +0.000 C 
ENDBRANCH   4  15
BRANCH  10  22
ATOM     21  O   UNL     1      31.936 -20.156 -19.656  0.00  0.00    -0.277 OA
ATOM     22  N   UNL     1      33.379 -21.592 -18.487  0.00  0.00    -0.286 N 
ATOM     23  C   UNL     1      33.023 -20.703 -19.499  0.00  0.00    +0.205 C 
ATOM     24  H   UNL     1      34.300 -21.939 -18.517  0.00  0.00    +0.155 HD
BRANCH  23  25
ATOM     25  C   UNL     1      34.195 -20.481 -20.439  0.00  0.00    +0.010 C 
BRANCH  25  26
ATOM     26  N   UNL     1      34.025 -19.206 -21.137  0.00  0.00    +0.393 N 
ATOM     27  C   UNL     1      34.858 -17.016 -22.899  0.00  0.00    -0.026 C 
ATOM     28  C   UNL     1      33.855 -18.089 -23.338  0.00  0.00    -0.025 C 
ATOM     29  C   UNL     1      34.837 -16.881 -21.373  0.00  0.00    -0.025 C 
ATOM     30  C   UNL     1      34.085 -19.405 -22.592  0.00  0.00    -0.077 C 
ATOM     31  C   UNL     1      35.035 -18.237 -20.692  0.00  0.00    -0.077 C 
ATOM     32  H   UNL     1      33.105 -18.829 -20.909  0.00  0.00    -0.079 HD
BRANCH  27  33
ATOM     33  C   UNL     1      34.560 -15.679 -23.572  0.00  0.00    -0.086 C 
BRANCH  33  34
ATOM     34  N   UNL     1      34.149 -14.684 -22.593  0.00  0.00    +0.380 N 
ATOM     35  H   UNL     1      33.199 -14.377 -22.799  0.00  0.00    -0.089 HD
ATOM     36  H   UNL     1      34.782 -13.885 -22.634  0.00  0.00    -0.089 HD
ATOM     37  H   UNL     1      34.178 -15.094 -21.659  0.00  0.00    -0.089 HD
ENDBRANCH  33  34
ENDBRANCH  27  33
ENDBRANCH  25  26
ENDBRANCH  23  25
ENDBRANCH  10  22
TORSDOF 6
ENDMDL
MODEL 3
REMARK VINA RESULT:     -11.7      2.449      7.389
REMARK  Name = 5288017
REMARK  6 active torsions:
REMARK  status: ('A' for Active; 'I' for Inactive)
REMARK    1  A    between atoms: C_4  and  C_15
REMARK    2  A    between atoms: C_10  and  N_22
REMARK    3  A    between atoms: C_23  and  C_25
REMARK    4  A    between atoms: C_25  and  N_26
REMARK    5  A    between atoms: C_27  and  C_33
REMARK    6  A    between atoms: C_33  and  N_34
REMARK                            x       y       z     vdW  Elec       q    Type
REMARK                         _______ _______ _______ _____ _____    ______ ____
ROOT
ATOM      1  O   UNL     1      32.265 -22.562 -16.930  0.00  0.00    -0.286 OA
ATOM      2  N   UNL     1      31.097 -23.704 -12.778  0.00  0.00    -0.280 N 
ATOM      3  N   UNL     1      32.413 -23.672 -12.427  0.00  0.00    -0.173 NA
ATOM      4  C   UNL     1      30.846 -23.397 -14.100  0.00  0.00    +0.056 A 
ATOM      5  C   UNL     1      32.078 -23.155 -14.625  0.00  0.00    +0.071 A 
ATOM      6  C   UNL     1      32.988 -23.335 -13.572  0.00  0.00    +0.105 A 
ATOM      7  C   UNL     1      32.750 -22.790 -15.842  0.00  0.00    +0.199 C 
ATOM      8  C   UNL     1      34.200 -22.760 -15.434  0.00  0.00    +0.054 C 
ATOM      9  C   UNL     1      34.313 -23.094 -14.056  0.00  0.00    +0.024 C 
ATOM     10  C   UNL     1      35.305 -22.474 -16.182  0.00  0.00    +0.053 C 
ATOM     11  C   UNL     1      35.533 -23.141 -13.423  0.00  0.00    +0.002 C 
ATOM     12  C   UNL     1      36.548 -22.514 -15.568  0.00  0.00    +0.015 C 
ATOM     13  C   UNL     1      36.661 -22.845 -14.198  0.00  0.00    +0.001 C 
ATOM     14  H   UNL     1      30.382 -23.928 -12.140  0.00  0.00    +0.189 HD
ENDROOT
BRANCH   4  15
ATOM     15  C   UNL     1      29.442 -23.378 -14.687  0.00  0.00    +0.040 C 
ATOM     16  C   UNL     1      28.972 -21.947 -14.999  0.00  0.00    +0.006 C 
ATOM     17  C   UNL     1      29.327 -24.283 -15.925  0.00  0.00    +0.006 C 
ATOM     18  C   UNL     1      27.558 -21.938 -15.579  0.00  0.00    +0.000 C 
ATOM     19  C   UNL     1      27.912 -24.263 -16.500  0.00  0.00    +0.000 C 
ATOM     20  C   UNL     1      27.447 -22.842 -16.804  0.00  0.00    +0.000 C 
ENDBRANCH   4  15
BRANCH  10  22
ATOM     21  O   UNL     1      36.600 -20.258 -17.738  0.00  0.00    -0.277 OA
ATOM     22  N   UNL     1      35.209 -22.139 -17.554  0.00  0.00    -0.286 N 
ATOM     23  C   UNL     1      35.842 -21.093 -18.221  0.00  0.00    +0.205 C 
ATOM     24  H   UNL     1      34.627 -22.715 -18.102  0.00  0.00    +0.155 HD
BRANCH  23  25
ATOM     25  C   UNL     1      35.460 -21.099 -19.691  0.00  0.00    +0.010 C 
BRANCH  25  26
ATOM     26  N   UNL     1      35.297 -19.721 -20.157  0.00  0.00    +0.393 N 
ATOM     27  C   UNL     1      34.969 -17.629 -22.185  0.00  0.00    -0.026 C 
ATOM     28  C   UNL     1      33.808 -18.118 -21.312  0.00  0.00    -0.025 C 
ATOM     29  C   UNL     1      36.299 -17.874 -21.463  0.00  0.00    -0.025 C 
ATOM     30  C   UNL     1      34.018 -19.566 -20.864  0.00  0.00    -0.077 C 
ATOM     31  C   UNL     1      36.426 -19.330 -21.012  0.00  0.00    -0.077 C 
ATOM     32  H   UNL     1      35.286 -19.102 -19.347  0.00  0.00    -0.079 HD
BRANCH  27  33
ATOM     33  C   UNL     1      34.803 -16.156 -22.545  0.00  0.00    -0.086 C 
BRANCH  33  34
ATOM     34  N   UNL     1      34.502 -15.997 -23.960  0.00  0.00    +0.380 N 
ATOM     35  H   UNL     1      33.501 -16.112 -24.110  0.00  0.00    -0.089 HD
ATOM     36  H   UNL     1      35.009 -16.702 -24.497  0.00  0.00    -0.089 HD
ATOM     37  H   UNL     1      34.787 -15.067 -24.265  0.00  0.00    -0.089 HD
ENDBRANCH  33  34
ENDBRANCH  27  33
ENDBRANCH  25  26
ENDBRANCH  23  25
ENDBRANCH  10  22
TORSDOF 6
ENDMDL
MODEL 4
REMARK VINA RESULT:     -11.6      2.913      7.188
REMARK  Name = 5288017
REMARK  6 active torsions:
REMARK  status: ('A' for Active; 'I' for Inactive)
REMARK    1  A    between atoms: C_4  and  C_15
REMARK    2  A    between atoms: C_10  and  N_22
REMARK    3  A    between atoms: C_23  and  C_25
REMARK    4  A    between atoms: C_25  and  N_26
REMARK    5  A    between atoms: C_27  and  C_33
REMARK    6  A    between atoms: C_33  and  N_34
REMARK                            x       y       z     vdW  Elec       q    Type
REMARK                         _______ _______ _______ _____ _____    ______ ____
ROOT
ATOM      1  O   UNL     1      35.561 -23.882 -15.657  0.00  0.00    -0.286 OA
ATOM      2  N   UNL     1      35.756 -24.698 -11.276  0.00  0.00    -0.280 N 
ATOM      3  N   UNL     1      34.461 -24.291 -11.168  0.00  0.00    -0.173 NA
ATOM      4  C   UNL     1      36.272 -24.648 -12.555  0.00  0.00    +0.056 A 
ATOM      5  C   UNL     1      35.242 -24.179 -13.310  0.00  0.00    +0.071 A 
ATOM      6  C   UNL     1      34.173 -23.980 -12.423  0.00  0.00    +0.105 A 
ATOM      7  C   UNL     1      34.878 -23.828 -14.656  0.00  0.00    +0.199 C 
ATOM      8  C   UNL     1      33.447 -23.381 -14.516  0.00  0.00    +0.054 C 
ATOM      9  C   UNL     1      33.048 -23.484 -13.155  0.00  0.00    +0.024 C 
ATOM     10  C   UNL     1      32.582 -22.932 -15.473  0.00  0.00    +0.053 C 
ATOM     11  C   UNL     1      31.780 -23.137 -12.748  0.00  0.00    +0.002 C 
ATOM     12  C   UNL     1      31.298 -22.576 -15.087  0.00  0.00    +0.015 C 
ATOM     13  C   UNL     1      30.900 -22.678 -13.735  0.00  0.00    +0.001 C 
ATOM     14  H   UNL     1      36.283 -25.005 -10.503  0.00  0.00    +0.189 HD
ENDROOT
BRANCH   4  15
ATOM     15  C   UNL     1      37.699 -25.062 -12.883  0.00  0.00    +0.040 C 
ATOM     16  C   UNL     1      37.744 -26.152 -13.966  0.00  0.00    +0.006 C 
ATOM     17  C   UNL     1      38.570 -23.855 -13.272  0.00  0.00    +0.006 C 
ATOM     18  C   UNL     1      39.181 -26.567 -14.281  0.00  0.00    +0.000 C 
ATOM     19  C   UNL     1      40.002 -24.281 -13.589  0.00  0.00    +0.000 C 
ATOM     20  C   UNL     1      40.043 -25.366 -14.662  0.00  0.00    +0.000 C 
ENDBRANCH   4  15
BRANCH  10  22
ATOM     21  O   UNL     1      31.255 -21.513 -17.760  0.00  0.00    -0.277 OA
ATOM     22  N   UNL     1      32.965 -22.825 -16.831  0.00  0.00    -0.286 N 
ATOM     23  C   UNL     1      32.302 -22.145 -17.850  0.00  0.00    +0.205 C 
ATOM     24  H   UNL     1      33.797 -23.285 -17.085  0.00  0.00    +0.155 HD
BRANCH  23  25
ATOM     25  C   UNL     1      33.062 -22.288 -19.158  0.00  0.00    +0.010 C 
BRANCH  25  26
ATOM     26  N   UNL     1      33.776 -21.044 -19.445  0.00  0.00    +0.393 N 
ATOM     27  C   UNL     1      35.259 -19.168 -21.142  0.00  0.00    -0.026 C 
ATOM     28  C   UNL     1      33.787 -18.955 -20.770  0.00  0.00    -0.025 C 
ATOM     29  C   UNL     1      35.943 -20.030 -20.075  0.00  0.00    -0.025 C 
ATOM     30  C   UNL     1      33.083 -20.284 -20.495  0.00  0.00    -0.077 C 
ATOM     31  C   UNL     1      35.167 -21.325 -19.825  0.00  0.00    -0.077 C 
ATOM     32  H   UNL     1      33.789 -20.473 -18.600  0.00  0.00    -0.079 HD
BRANCH  27  33
ATOM     33  C   UNL     1      35.980 -17.835 -21.317  0.00  0.00    -0.086 C 
BRANCH  33  34
ATOM     34  N   UNL     1      37.333 -18.038 -21.814  0.00  0.00    +0.380 N 
ATOM     35  H   UNL     1      37.914 -18.425 -21.071  0.00  0.00    -0.089 HD
ATOM     36  H   UNL     1      37.721 -17.145 -22.118  0.00  0.00    -0.089 HD
ATOM     37  H   UNL     1      37.312 -18.686 -22.601  0.00  0.00    -0.089 HD
ENDBRANCH  33  34
ENDBRANCH  27  33
ENDBRANCH  25  26
ENDBRANCH  23  25
ENDBRANCH  10  22
TORSDOF 6
ENDMDL
MODEL 5
REMARK VINA RESULT:     -11.6      3.420      8.025
REMARK  Name = 5288017
REMARK  6 active torsions:
REMARK  status: ('A' for Active; 'I' for Inactive)
REMARK    1  A    between atoms: C_4  and  C_15
REMARK    2  A    between atoms: C_10  and  N_22
REMARK    3  A    between atoms: C_23  and  C_25
REMARK    4  A    between atoms: C_25  and  N_26
REMARK    5  A    between atoms: C_27  and  C_33
REMARK    6  A    between atoms: C_33  and  N_34
REMARK                            x       y       z     vdW  Elec       q    Type
REMARK                         _______ _______ _______ _____ _____    ______ ____
ROOT
ATOM      1  O   UNL     1      32.320 -21.994 -18.372  0.00  0.00    -0.286 OA
ATOM      2  N   UNL     1      32.302 -23.753 -14.272  0.00  0.00    -0.280 N 
ATOM      3  N   UNL     1      33.631 -23.469 -14.172  0.00  0.00    -0.173 NA
ATOM      4  C   UNL     1      31.722 -23.383 -15.469  0.00  0.00    +0.056 A 
ATOM      5  C   UNL     1      32.744 -22.830 -16.176  0.00  0.00    +0.071 A 
ATOM      6  C   UNL     1      33.873 -22.908 -15.347  0.00  0.00    +0.105 A 
ATOM      7  C   UNL     1      33.060 -22.214 -17.436  0.00  0.00    +0.199 C 
ATOM      8  C   UNL     1      34.529 -21.908 -17.306  0.00  0.00    +0.054 C 
ATOM      9  C   UNL     1      34.994 -22.339 -16.033  0.00  0.00    +0.024 C 
ATOM     10  C   UNL     1      35.374 -21.319 -18.202  0.00  0.00    +0.053 C 
ATOM     11  C   UNL     1      36.306 -22.179 -15.653  0.00  0.00    +0.002 C 
ATOM     12  C   UNL     1      36.702 -21.146 -17.843  0.00  0.00    +0.015 C 
ATOM     13  C   UNL     1      37.165 -21.573 -16.577  0.00  0.00    +0.001 C 
ATOM     14  H   UNL     1      31.796 -24.186 -13.548  0.00  0.00    +0.189 HD
ENDROOT
BRANCH   4  15
ATOM     15  C   UNL     1      30.249 -23.614 -15.774  0.00  0.00    +0.040 C 
ATOM     16  C   UNL     1      29.495 -24.178 -14.558  0.00  0.00    +0.006 C 
ATOM     17  C   UNL     1      29.569 -22.342 -16.308  0.00  0.00    +0.006 C 
ATOM     18  C   UNL     1      28.019 -24.415 -14.877  0.00  0.00    +0.000 C 
ATOM     19  C   UNL     1      28.094 -22.587 -16.619  0.00  0.00    +0.000 C 
ATOM     20  C   UNL     1      27.350 -23.151 -15.412  0.00  0.00    +0.000 C 
ENDBRANCH   4  15
BRANCH  10  22
ATOM     21  O   UNL     1      36.325 -19.055 -19.928  0.00  0.00    -0.277 OA
ATOM     22  N   UNL     1      34.926 -20.884 -19.473  0.00  0.00    -0.286 N 
ATOM     23  C   UNL     1      35.415 -19.820 -20.228  0.00  0.00    +0.205 C 
ATOM     24  H   UNL     1      34.183 -21.394 -19.869  0.00  0.00    +0.155 HD
BRANCH  23  25
ATOM     25  C   UNL     1      34.645 -19.706 -21.533  0.00  0.00    +0.010 C 
BRANCH  25  26
ATOM     26  N   UNL     1      34.785 -18.349 -22.063  0.00  0.00    +0.393 N 
ATOM     27  C   UNL     1      33.808 -15.712 -22.891  0.00  0.00    -0.026 C 
ATOM     28  C   UNL     1      34.564 -15.933 -21.577  0.00  0.00    -0.025 C 
ATOM     29  C   UNL     1      34.191 -16.801 -23.899  0.00  0.00    -0.025 C 
ATOM     30  C   UNL     1      34.374 -17.360 -21.057  0.00  0.00    -0.077 C 
ATOM     31  C   UNL     1      34.011 -18.199 -23.302  0.00  0.00    -0.077 C 
ATOM     32  H   UNL     1      35.767 -18.184 -22.283  0.00  0.00    -0.079 HD
BRANCH  27  33
ATOM     33  C   UNL     1      34.083 -14.321 -23.455  0.00  0.00    -0.086 C 
BRANCH  33  34
ATOM     34  N   UNL     1      32.955 -13.849 -24.246  0.00  0.00    +0.380 N 
ATOM     35  H   UNL     1      32.675 -12.925 -23.919  0.00  0.00    -0.089 HD
ATOM     36  H   UNL     1      32.174 -14.497 -24.145  0.00  0.00    -0.089 HD
ATOM     37  H   UNL     1      33.228 -13.793 -25.227  0.00  0.00    -0.089 HD
ENDBRANCH  33  34
ENDBRANCH  27  33
ENDBRANCH  25  26
ENDBRANCH  23  25
ENDBRANCH  10  22
TORSDOF 6
ENDMDL
MODEL 6
REMARK VINA RESULT:     -11.5     12.192     15.805
REMARK  Name = 5288017
REMARK  6 active torsions:
REMARK  status: ('A' for Active; 'I' for Inactive)
REMARK    1  A    between atoms: C_4  and  C_15
REMARK    2  A    between atoms: C_10  and  N_22
REMARK    3  A    between atoms: C_23  and  C_25
REMARK    4  A    between atoms: C_25  and  N_26
REMARK    5  A    between atoms: C_27  and  C_33
REMARK    6  A    between atoms: C_33  and  N_34
REMARK                            x       y       z     vdW  Elec       q    Type
REMARK                         _______ _______ _______ _____ _____    ______ ____
ROOT
ATOM      1  O   UNL     1      31.530  -8.815 -24.000  0.00  0.00    -0.286 OA
ATOM      2  N   UNL     1      31.168  -4.964 -21.776  0.00  0.00    -0.280 N 
ATOM      3  N   UNL     1      31.186  -5.667 -20.609  0.00  0.00    -0.173 NA
ATOM      4  C   UNL     1      31.262  -5.738 -22.916  0.00  0.00    +0.056 A 
ATOM      5  C   UNL     1      31.344  -7.012 -22.446  0.00  0.00    +0.071 A 
ATOM      6  C   UNL     1      31.293  -6.912 -21.048  0.00  0.00    +0.105 A 
ATOM      7  C   UNL     1      31.461  -8.381 -22.869  0.00  0.00    +0.199 C 
ATOM      8  C   UNL     1      31.479  -9.139 -21.569  0.00  0.00    +0.054 C 
ATOM      9  C   UNL     1      31.376  -8.224 -20.484  0.00  0.00    +0.024 C 
ATOM     10  C   UNL     1      31.574 -10.484 -21.350  0.00  0.00    +0.053 C 
ATOM     11  C   UNL     1      31.369  -8.654 -19.177  0.00  0.00    +0.002 C 
ATOM     12  C   UNL     1      31.569 -10.942 -20.041  0.00  0.00    +0.015 C 
ATOM     13  C   UNL     1      31.468 -10.034 -18.963  0.00  0.00    +0.001 C 
ATOM     14  H   UNL     1      31.095  -3.983 -21.805  0.00  0.00    +0.189 HD
ENDROOT
BRANCH   4  15
ATOM     15  C   UNL     1      31.260  -5.142 -24.316  0.00  0.00    +0.040 C 
ATOM     16  C   UNL     1      31.278  -3.605 -24.283  0.00  0.00    +0.006 C 
ATOM     17  C   UNL     1      32.410  -5.694 -25.175  0.00  0.00    +0.006 C 
ATOM     18  C   UNL     1      31.267  -3.016 -25.693  0.00  0.00    +0.000 C 
ATOM     19  C   UNL     1      32.393  -5.096 -26.580  0.00  0.00    +0.000 C 
ATOM     20  C   UNL     1      32.408  -3.570 -26.544  0.00  0.00    +0.000 C 
ENDBRANCH   4  15
BRANCH  10  22
ATOM     21  O   UNL     1      33.836 -11.008 -23.250  0.00  0.00    -0.277 OA
ATOM     22  N   UNL     1      31.678 -11.406 -22.419  0.00  0.00    -0.286 N 
ATOM     23  C   UNL     1      32.764 -11.604 -23.268  0.00  0.00    +0.205 C 
ATOM     24  H   UNL     1      30.891 -11.975 -22.580  0.00  0.00    +0.155 HD
BRANCH  23  25
ATOM     25  C   UNL     1      32.451 -12.695 -24.276  0.00  0.00    +0.010 C 
BRANCH  25  26
ATOM     26  N   UNL     1      32.825 -13.995 -23.718  0.00  0.00    +0.393 N 
ATOM     27  C   UNL     1      34.687 -16.166 -23.072  0.00  0.00    -0.026 C 
ATOM     28  C   UNL     1      34.182 -15.174 -22.018  0.00  0.00    -0.025 C 
ATOM     29  C   UNL     1      33.674 -16.265 -24.218  0.00  0.00    -0.025 C 
ATOM     30  C   UNL     1      33.819 -13.828 -22.648  0.00  0.00    -0.077 C 
ATOM     31  C   UNL     1      33.329 -14.883 -24.775  0.00  0.00    -0.077 C 
ATOM     32  H   UNL     1      31.996 -14.428 -23.313  0.00  0.00    -0.079 HD
BRANCH  27  33
ATOM     33  C   UNL     1      34.952 -17.536 -22.453  0.00  0.00    -0.086 C 
BRANCH  33  34
ATOM     34  N   UNL     1      34.976 -17.454 -21.000  0.00  0.00    +0.380 N 
ATOM     35  H   UNL     1      35.245 -18.358 -20.614  0.00  0.00    -0.089 HD
ATOM     36  H   UNL     1      34.050 -17.200 -20.658  0.00  0.00    -0.089 HD
ATOM     37  H   UNL     1      35.652 -16.747 -20.712  0.00  0.00    -0.089 HD
ENDBRANCH  33  34
ENDBRANCH  27  33
ENDBRANCH  25  26
ENDBRANCH  23  25
ENDBRANCH  10  22
TORSDOF 6
ENDMDL
MODEL 7
REMARK VINA RESULT:     -11.3      9.288     13.273
REMARK  Name = 5288017
REMARK  6 active torsions:
REMARK  status: ('A' for Active; 'I' for Inactive)
REMARK    1  A    between atoms: C_4  and  C_15
REMARK    2  A    between atoms: C_10  and  N_22
REMARK    3  A    between atoms: C_23  and  C_25
REMARK    4  A    between atoms: C_25  and  N_26
REMARK    5  A    between atoms: C_27  and  C_33
REMARK    6  A    between atoms: C_33  and  N_34
REMARK                            x       y       z     vdW  Elec       q    Type
REMARK                         _______ _______ _______ _____ _____    ______ ____
ROOT
ATOM      1  O   UNL     1      33.642 -14.523 -21.097  0.00  0.00    -0.286 OA
ATOM      2  N   UNL     1      34.373 -17.886 -23.936  0.00  0.00    -0.280 N 
ATOM      3  N   UNL     1      34.040 -17.056 -24.964  0.00  0.00    -0.173 NA
ATOM      4  C   UNL     1      34.314 -17.305 -22.684  0.00  0.00    +0.056 A 
ATOM      5  C   UNL     1      33.919 -16.027 -22.930  0.00  0.00    +0.071 A 
ATOM      6  C   UNL     1      33.767 -15.930 -24.321  0.00  0.00    +0.105 A 
ATOM      7  C   UNL     1      33.612 -14.781 -22.282  0.00  0.00    +0.199 C 
ATOM      8  C   UNL     1      33.247 -13.880 -23.431  0.00  0.00    +0.054 C 
ATOM      9  C   UNL     1      33.350 -14.602 -24.653  0.00  0.00    +0.024 C 
ATOM     10  C   UNL     1      32.864 -12.569 -23.418  0.00  0.00    +0.053 C 
ATOM     11  C   UNL     1      33.071 -14.013 -25.864  0.00  0.00    +0.002 C 
ATOM     12  C   UNL     1      32.578 -11.952 -24.626  0.00  0.00    +0.015 C 
ATOM     13  C   UNL     1      32.681 -12.669 -25.840  0.00  0.00    +0.001 C 
ATOM     14  H   UNL     1      34.635 -18.824 -24.074  0.00  0.00    +0.189 HD
ENDROOT
BRANCH   4  15
ATOM     15  C   UNL     1      34.649 -18.065 -21.410  0.00  0.00    +0.040 C 
ATOM     16  C   UNL     1      33.812 -19.348 -21.271  0.00  0.00    +0.006 C 
ATOM     17  C   UNL     1      36.154 -18.369 -21.303  0.00  0.00    +0.006 C 
ATOM     18  C   UNL     1      34.150 -20.099 -19.984  0.00  0.00    +0.000 C 
ATOM     19  C   UNL     1      36.480 -19.125 -20.016  0.00  0.00    +0.000 C 
ATOM     20  C   UNL     1      35.645 -20.394 -19.880  0.00  0.00    +0.000 C 
ENDBRANCH   4  15
BRANCH  10  22
ATOM     21  O   UNL     1      30.451 -11.856 -21.782  0.00  0.00    -0.277 OA
ATOM     22  N   UNL     1      32.759 -11.837 -22.211  0.00  0.00    -0.286 N 
ATOM     23  C   UNL     1      31.601 -11.541 -21.495  0.00  0.00    +0.205 C 
ATOM     24  H   UNL     1      33.603 -11.500 -21.833  0.00  0.00    +0.155 HD
BRANCH  23  25
ATOM     25  C   UNL     1      31.943 -10.734 -20.255  0.00  0.00    +0.010 C 
BRANCH  25  26
ATOM     26  N   UNL     1      31.379  -9.390 -20.378  0.00  0.00    +0.393 N 
ATOM     27  C   UNL     1      31.502  -6.489 -20.787  0.00  0.00    -0.026 C 
ATOM     28  C   UNL     1      31.020  -7.454 -21.876  0.00  0.00    -0.025 C 
ATOM     29  C   UNL     1      31.284  -7.116 -19.406  0.00  0.00    -0.025 C 
ATOM     30  C   UNL     1      31.650  -8.839 -21.713  0.00  0.00    -0.077 C 
ATOM     31  C   UNL     1      31.907  -8.511 -19.324  0.00  0.00    -0.077 C 
ATOM     32  H   UNL     1      30.368  -9.449 -20.261  0.00  0.00    -0.079 HD
BRANCH  27  33
ATOM     33  C   UNL     1      30.794  -5.141 -20.896  0.00  0.00    -0.086 C 
BRANCH  33  34
ATOM     34  N   UNL     1      31.740  -4.083 -21.222  0.00  0.00    +0.380 N 
ATOM     35  H   UNL     1      31.708  -3.897 -22.223  0.00  0.00    -0.089 HD
ATOM     36  H   UNL     1      32.681  -4.376 -20.960  0.00  0.00    -0.089 HD
ATOM     37  H   UNL     1      31.491  -3.237 -20.710  0.00  0.00    -0.089 HD
ENDBRANCH  33  34
ENDBRANCH  27  33
ENDBRANCH  25  26
ENDBRANCH  23  25
ENDBRANCH  10  22
TORSDOF 6
ENDMDL
MODEL 8
REMARK VINA RESULT:      -9.4     13.550     16.975
REMARK  Name = 5288017
REMARK  6 active torsions:
REMARK  status: ('A' for Active; 'I' for Inactive)
REMARK    1  A    between atoms: C_4  and  C_15
REMARK    2  A    between atoms: C_10  and  N_22
REMARK    3  A    between atoms: C_23  and  C_25
REMARK    4  A    between atoms: C_25  and  N_26
REMARK    5  A    between atoms: C_27  and  C_33
REMARK    6  A    between atoms: C_33  and  N_34
REMARK                            x       y       z     vdW  Elec       q    Type
REMARK                         _______ _______ _______ _____ _____    ______ ____
ROOT
ATOM      1  O   UNL     1      31.708  -7.593 -24.415  0.00  0.00    -0.286 OA
ATOM      2  N   UNL     1      32.005  -3.162 -23.983  0.00  0.00    -0.280 N 
ATOM      3  N   UNL     1      31.911  -3.314 -22.633  0.00  0.00    -0.173 NA
ATOM      4  C   UNL     1      31.963  -4.342 -24.700  0.00  0.00    +0.056 A 
ATOM      5  C   UNL     1      31.833  -5.304 -23.748  0.00  0.00    +0.071 A 
ATOM      6  C   UNL     1      31.807  -4.629 -22.518  0.00  0.00    +0.105 A 
ATOM      7  C   UNL     1      31.718  -6.726 -23.567  0.00  0.00    +0.199 C 
ATOM      8  C   UNL     1      31.615  -6.872 -22.072  0.00  0.00    +0.054 C 
ATOM      9  C   UNL     1      31.671  -5.587 -21.464  0.00  0.00    +0.024 C 
ATOM     10  C   UNL     1      31.485  -8.003 -21.318  0.00  0.00    +0.053 C 
ATOM     11  C   UNL     1      31.599  -5.433 -20.098  0.00  0.00    +0.002 C 
ATOM     12  C   UNL     1      31.410  -7.874 -19.940  0.00  0.00    +0.015 C 
ATOM     13  C   UNL     1      31.467  -6.598 -19.334  0.00  0.00    +0.001 C 
ATOM     14  H   UNL     1      32.097  -2.282 -24.415  0.00  0.00    +0.189 HD
ENDROOT
BRANCH   4  15
ATOM     15  C   UNL     1      32.054  -4.384 -26.218  0.00  0.00    +0.040 C 
ATOM     16  C   UNL     1      32.360  -2.999 -26.812  0.00  0.00    +0.006 C 
ATOM     17  C   UNL     1      33.070  -5.433 -26.701  0.00  0.00    +0.006 C 
ATOM     18  C   UNL     1      32.441  -3.051 -28.337  0.00  0.00    +0.000 C 
ATOM     19  C   UNL     1      33.147  -5.474 -28.227  0.00  0.00    +0.000 C 
ATOM     20  C   UNL     1      33.446  -4.097 -28.813  0.00  0.00    +0.000 C 
ENDBRANCH   4  15
BRANCH  10  22
ATOM     21  O   UNL     1      31.547 -10.726 -20.058  0.00  0.00    -0.277 OA
ATOM     22  N   UNL     1      31.429  -9.288 -21.909  0.00  0.00    -0.286 N 
ATOM     23  C   UNL     1      31.459 -10.523 -21.264  0.00  0.00    +0.205 C 
ATOM     24  H   UNL     1      31.358  -9.312 -22.891  0.00  0.00    +0.155 HD
BRANCH  23  25
ATOM     25  C   UNL     1      31.374 -11.648 -22.280  0.00  0.00    +0.010 C 
BRANCH  25  26
ATOM     26  N   UNL     1      32.475 -12.587 -22.061  0.00  0.00    +0.393 N 
ATOM     27  C   UNL     1      33.685 -15.247 -21.827  0.00  0.00    -0.026 C 
ATOM     28  C   UNL     1      33.876 -14.362 -23.063  0.00  0.00    -0.025 C 
ATOM     29  C   UNL     1      33.378 -14.373 -20.606  0.00  0.00    -0.025 C 
ATOM     30  C   UNL     1      32.693 -13.412 -23.257  0.00  0.00    -0.077 C 
ATOM     31  C   UNL     1      32.211 -13.423 -20.882  0.00  0.00    -0.077 C 
ATOM     32  H   UNL     1      33.327 -12.055 -21.885  0.00  0.00    -0.079 HD
BRANCH  27  33
ATOM     33  C   UNL     1      34.911 -16.121 -21.582  0.00  0.00    -0.086 C 
BRANCH  33  34
ATOM     34  N   UNL     1      35.305 -16.816 -22.799  0.00  0.00    +0.380 N 
ATOM     35  H   UNL     1      35.935 -17.582 -22.564  0.00  0.00    -0.089 HD
ATOM     36  H   UNL     1      35.781 -16.165 -23.424  0.00  0.00    -0.089 HD
ATOM     37  H   UNL     1      34.476 -17.187 -23.262  0.00  0.00    -0.089 HD
ENDBRANCH  33  34
ENDBRANCH  27  33
ENDBRANCH  25  26
ENDBRANCH  23  25
ENDBRANCH  10  22
TORSDOF 6
ENDMDL
MODEL 9
REMARK VINA RESULT:      -9.3      5.510      9.906
REMARK  Name = 5288017
REMARK  6 active torsions:
REMARK  status: ('A' for Active; 'I' for Inactive)
REMARK    1  A    between atoms: C_4  and  C_15
REMARK    2  A    between atoms: C_10  and  N_22
REMARK    3  A    between atoms: C_23  and  C_25
REMARK    4  A    between atoms: C_25  and  N_26
REMARK    5  A    between atoms: C_27  and  C_33
REMARK    6  A    between atoms: C_33  and  N_34
REMARK                            x       y       z     vdW  Elec       q    Type
REMARK                         _______ _______ _______ _____ _____    ______ ____
ROOT
ATOM      1  O   UNL     1      34.549 -16.027 -20.808  0.00  0.00    -0.286 OA
ATOM      2  N   UNL     1      32.792 -14.323 -24.538  0.00  0.00    -0.280 N 
ATOM      3  N   UNL     1      32.968 -15.532 -25.142  0.00  0.00    -0.173 NA
ATOM      4  C   UNL     1      33.209 -14.270 -23.223  0.00  0.00    +0.056 A 
ATOM      5  C   UNL     1      33.680 -15.521 -22.974  0.00  0.00    +0.071 A 
ATOM      6  C   UNL     1      33.511 -16.243 -24.165  0.00  0.00    +0.105 A 
ATOM      7  C   UNL     1      34.271 -16.337 -21.948  0.00  0.00    +0.199 C 
ATOM      8  C   UNL     1      34.457 -17.665 -22.633  0.00  0.00    +0.054 C 
ATOM      9  C   UNL     1      33.989 -17.578 -23.973  0.00  0.00    +0.024 C 
ATOM     10  C   UNL     1      34.980 -18.827 -22.143  0.00  0.00    +0.053 C 
ATOM     11  C   UNL     1      34.041 -18.655 -24.826  0.00  0.00    +0.002 C 
ATOM     12  C   UNL     1      35.044 -19.928 -22.984  0.00  0.00    +0.015 C 
ATOM     13  C   UNL     1      34.578 -19.843 -24.316  0.00  0.00    +0.001 C 
ATOM     14  H   UNL     1      32.399 -13.549 -25.002  0.00  0.00    +0.189 HD
ENDROOT
BRANCH   4  15
ATOM     15  C   UNL     1      33.097 -13.011 -22.376  0.00  0.00    +0.040 C 
ATOM     16  C   UNL     1      32.568 -11.819 -23.190  0.00  0.00    +0.006 C 
ATOM     17  C   UNL     1      32.247 -13.243 -21.115  0.00  0.00    +0.006 C 
ATOM     18  C   UNL     1      32.467 -10.558 -22.333  0.00  0.00    +0.000 C 
ATOM     19  C   UNL     1      32.149 -11.976 -20.268  0.00  0.00    +0.000 C 
ATOM     20  C   UNL     1      31.628 -10.794 -21.080  0.00  0.00    +0.000 C 
ENDBRANCH   4  15
BRANCH  10  22
ATOM     21  O   UNL     1      35.349 -21.237 -20.393  0.00  0.00    -0.277 OA
ATOM     22  N   UNL     1      35.448 -18.930 -20.812  0.00  0.00    -0.286 N 
ATOM     23  C   UNL     1      35.601 -20.086 -20.050  0.00  0.00    +0.205 C 
ATOM     24  H   UNL     1      35.698 -18.084 -20.373  0.00  0.00    +0.155 HD
BRANCH  23  25
ATOM     25  C   UNL     1      36.135 -19.741 -18.671  0.00  0.00    +0.010 C 
BRANCH  25  26
ATOM     26  N   UNL     1      36.195 -20.953 -17.855  0.00  0.00    +0.393 N 
ATOM     27  C   UNL     1      35.789 -22.531 -15.416  0.00  0.00    -0.026 C 
ATOM     28  C   UNL     1      34.883 -22.668 -16.645  0.00  0.00    -0.025 C 
ATOM     29  C   UNL     1      37.168 -22.017 -15.844  0.00  0.00    -0.025 C 
ATOM     30  C   UNL     1      34.843 -21.371 -17.456  0.00  0.00    -0.077 C 
ATOM     31  C   UNL     1      37.052 -20.741 -16.680  0.00  0.00    -0.077 C 
ATOM     32  H   UNL     1      36.604 -21.703 -18.412  0.00  0.00    -0.079 HD
BRANCH  27  33
ATOM     33  C   UNL     1      35.903 -23.856 -14.668  0.00  0.00    -0.086 C 
BRANCH  33  34
ATOM     34  N   UNL     1      37.127 -24.555 -15.035  0.00  0.00    +0.380 N 
ATOM     35  H   UNL     1      37.896 -24.218 -14.456  0.00  0.00    -0.089 HD
ATOM     36  H   UNL     1      37.338 -24.379 -16.017  0.00  0.00    -0.089 HD
ATOM     37  H   UNL     1      37.003 -25.556 -14.886  0.00  0.00    -0.089 HD
ENDBRANCH  33  34
ENDBRANCH  27  33
ENDBRANCH  25  26
ENDBRANCH  23  25
ENDBRANCH  10  22
TORSDOF 6
ENDMDL
