MODEL 1
REMARK VINA RESULT:     -11.0      0.000      0.000
REMARK  Name = 26388
REMARK  6 active torsions:
REMARK  status: ('A' for Active; 'I' for Inactive)
REMARK    1  A    between atoms: N_2  and  C_19
REMARK    2  A    between atoms: C_8  and  S_15
REMARK    3  A    between atoms: C_19  and  C_20
REMARK    4  A    between atoms: C_20  and  C_21
REMARK    5  A    between atoms: C_21  and  N_22
REMARK    6  A    between atoms: C_23  and  C_31
REMARK                            x       y       z     vdW  Elec       q    Type
REMARK                         _______ _______ _______ _____ _____    ______ ____
ROOT
ATOM      1  S   UNL     1      37.469 -22.616 -14.541  0.00  0.00    -0.084 S 
ATOM      2  N   UNL     1      34.506 -23.542 -14.368  0.00  0.00    -0.286 N 
ATOM      3  C   UNL     1      34.868 -22.860 -15.558  0.00  0.00    +0.059 C 
ATOM      4  C   UNL     1      35.193 -23.446 -13.132  0.00  0.00    +0.058 C 
ATOM      5  C   UNL     1      36.177 -22.370 -15.743  0.00  0.00    +0.043 C 
ATOM      6  C   UNL     1      36.533 -23.014 -13.078  0.00  0.00    +0.043 C 
ATOM      7  C   UNL     1      33.938 -22.607 -16.589  0.00  0.00    +0.034 C 
ATOM      8  C   UNL     1      34.292 -21.923 -17.755  0.00  0.00    +0.107 C 
ATOM      9  C   UNL     1      34.565 -23.739 -11.902  0.00  0.00    +0.015 C 
ATOM     10  C   UNL     1      36.529 -21.687 -16.921  0.00  0.00    +0.009 C 
ATOM     11  C   UNL     1      35.590 -21.466 -17.923  0.00  0.00    +0.019 C 
ATOM     12  C   UNL     1      37.208 -22.914 -11.848  0.00  0.00    +0.008 C 
ATOM     13  C   UNL     1      35.237 -23.633 -10.682  0.00  0.00    +0.001 C 
ATOM     14  C   UNL     1      36.562 -23.222 -10.656  0.00  0.00    +0.001 C 
ENDROOT
BRANCH   8  15
ATOM     15  S   UNL     1      33.103 -21.654 -19.005  0.00  0.00    +0.010 S 
ATOM     16  O   UNL     1      33.089 -22.824 -19.870  0.00  0.00    -0.169 OA
ATOM     17  O   UNL     1      31.866 -21.196 -18.388  0.00  0.00    -0.169 OA
ATOM     18  C   UNL     1      33.750 -20.287 -19.942  0.00  0.00    +0.182 C 
ENDBRANCH   8  15
BRANCH   2  19
ATOM     19  C   UNL     1      33.283 -24.355 -14.402  0.00  0.00    +0.093 C 
BRANCH  19  20
ATOM     20  C   UNL     1      32.140 -23.641 -13.681  0.00  0.00    -0.001 C 
BRANCH  20  21
ATOM     21  C   UNL     1      30.912 -24.516 -13.409  0.00  0.00    -0.076 C 
BRANCH  21  22
ATOM     22  N   UNL     1      29.715 -23.999 -14.070  0.00  0.00    +0.387 N 
ATOM     23  C   UNL     1      28.228 -22.738 -16.250  0.00  0.00    +0.072 C 
ATOM     24  C   UNL     1      28.173 -24.243 -15.990  0.00  0.00    -0.014 C 
ATOM     25  C   UNL     1      28.583 -21.990 -14.966  0.00  0.00    -0.014 C 
ATOM     26  C   UNL     1      29.454 -24.736 -15.314  0.00  0.00    -0.077 C 
ATOM     27  C   UNL     1      29.851 -22.558 -14.326  0.00  0.00    -0.077 C 
ATOM     28  H   UNL     1      28.915 -24.134 -13.450  0.00  0.00    -0.080 HD
BRANCH  23  31
ATOM     29  O   UNL     1      26.574 -22.427 -17.945  0.00  0.00    -0.275 OA
ATOM     30  N   UNL     1      26.126 -21.645 -15.828  0.00  0.00    -0.329 N 
ATOM     31  C   UNL     1      26.905 -22.270 -16.772  0.00  0.00    +0.219 C 
ATOM     32  H   UNL     1      25.236 -21.301 -16.074  0.00  0.00    +0.145 HD
ATOM     33  H   UNL     1      26.457 -21.541 -14.907  0.00  0.00    +0.145 HD
ENDBRANCH  23  31
ENDBRANCH  21  22
ENDBRANCH  20  21
ENDBRANCH  19  20
ENDBRANCH   2  19
TORSDOF 6
ENDMDL
MODEL 2
REMARK VINA RESULT:     -10.7      3.109      6.252
REMARK  Name = 26388
REMARK  6 active torsions:
REMARK  status: ('A' for Active; 'I' for Inactive)
REMARK    1  A    between atoms: N_2  and  C_19
REMARK    2  A    between atoms: C_8  and  S_15
REMARK    3  A    between atoms: C_19  and  C_20
REMARK    4  A    between atoms: C_20  and  C_21
REMARK    5  A    between atoms: C_21  and  N_22
REMARK    6  A    between atoms: C_23  and  C_31
REMARK                            x       y       z     vdW  Elec       q    Type
REMARK                         _______ _______ _______ _____ _____    ______ ____
ROOT
ATOM      1  S   UNL     1      35.490 -24.432 -12.274  0.00  0.00    -0.084 S 
ATOM      2  N   UNL     1      35.480 -22.694 -14.852  0.00  0.00    -0.286 N 
ATOM      3  C   UNL     1      34.207 -23.111 -14.387  0.00  0.00    +0.059 C 
ATOM      4  C   UNL     1      36.709 -23.331 -14.544  0.00  0.00    +0.058 C 
ATOM      5  C   UNL     1      34.083 -23.923 -13.242  0.00  0.00    +0.043 C 
ATOM      6  C   UNL     1      36.832 -24.164 -13.415  0.00  0.00    +0.043 C 
ATOM      7  C   UNL     1      33.015 -22.769 -15.062  0.00  0.00    +0.034 C 
ATOM      8  C   UNL     1      31.761 -23.191 -14.611  0.00  0.00    +0.107 C 
ATOM      9  C   UNL     1      37.849 -23.194 -15.366  0.00  0.00    +0.015 C 
ATOM     10  C   UNL     1      32.818 -24.340 -12.790  0.00  0.00    +0.009 C 
ATOM     11  C   UNL     1      31.662 -23.975 -13.472  0.00  0.00    +0.019 C 
ATOM     12  C   UNL     1      38.051 -24.800 -13.118  0.00  0.00    +0.008 C 
ATOM     13  C   UNL     1      39.056 -23.831 -15.070  0.00  0.00    +0.001 C 
ATOM     14  C   UNL     1      39.158 -24.633 -13.943  0.00  0.00    +0.001 C 
ENDROOT
BRANCH   8  15
ATOM     15  S   UNL     1      30.319 -22.723 -15.477  0.00  0.00    +0.010 S 
ATOM     16  O   UNL     1      29.525 -21.875 -14.601  0.00  0.00    -0.169 OA
ATOM     17  O   UNL     1      30.697 -22.244 -16.799  0.00  0.00    -0.169 OA
ATOM     18  C   UNL     1      29.433 -24.247 -15.714  0.00  0.00    +0.182 C 
ENDBRANCH   8  15
BRANCH   2  19
ATOM     19  C   UNL     1      35.521 -21.557 -15.781  0.00  0.00    +0.093 C 
BRANCH  19  20
ATOM     20  C   UNL     1      35.669 -22.043 -17.223  0.00  0.00    -0.001 C 
BRANCH  20  21
ATOM     21  C   UNL     1      34.357 -22.112 -18.009  0.00  0.00    -0.076 C 
BRANCH  21  22
ATOM     22  N   UNL     1      34.433 -21.371 -19.267  0.00  0.00    +0.387 N 
ATOM     23  C   UNL     1      34.479 -18.960 -20.923  0.00  0.00    +0.072 C 
ATOM     24  C   UNL     1      35.744 -19.761 -20.614  0.00  0.00    -0.014 C 
ATOM     25  C   UNL     1      33.246 -19.855 -20.821  0.00  0.00    -0.014 C 
ATOM     26  C   UNL     1      35.620 -20.503 -19.282  0.00  0.00    -0.077 C 
ATOM     27  C   UNL     1      33.205 -20.593 -19.482  0.00  0.00    -0.077 C 
ATOM     28  H   UNL     1      34.522 -22.037 -20.035  0.00  0.00    -0.080 HD
BRANCH  23  31
ATOM     29  O   UNL     1      33.800 -18.676 -23.196  0.00  0.00    -0.275 OA
ATOM     30  N   UNL     1      35.625 -17.491 -22.446  0.00  0.00    -0.329 N 
ATOM     31  C   UNL     1      34.580 -18.372 -22.296  0.00  0.00    +0.219 C 
ATOM     32  H   UNL     1      35.776 -17.050 -23.314  0.00  0.00    +0.145 HD
ATOM     33  H   UNL     1      36.221 -17.301 -21.686  0.00  0.00    +0.145 HD
ENDBRANCH  23  31
ENDBRANCH  21  22
ENDBRANCH  20  21
ENDBRANCH  19  20
ENDBRANCH   2  19
TORSDOF 6
ENDMDL
MODEL 3
REMARK VINA RESULT:     -10.5      3.651      7.328
REMARK  Name = 26388
REMARK  6 active torsions:
REMARK  status: ('A' for Active; 'I' for Inactive)
REMARK    1  A    between atoms: N_2  and  C_19
REMARK    2  A    between atoms: C_8  and  S_15
REMARK    3  A    between atoms: C_19  and  C_20
REMARK    4  A    between atoms: C_20  and  C_21
REMARK    5  A    between atoms: C_21  and  N_22
REMARK    6  A    between atoms: C_23  and  C_31
REMARK                            x       y       z     vdW  Elec       q    Type
REMARK                         _______ _______ _______ _____ _____    ______ ____
ROOT
ATOM      1  S   UNL     1      31.235 -24.165 -13.089  0.00  0.00    -0.084 S 
ATOM      2  N   UNL     1      32.516 -23.371 -15.808  0.00  0.00    -0.286 N 
ATOM      3  C   UNL     1      33.425 -23.601 -14.744  0.00  0.00    +0.059 C 
ATOM      4  C   UNL     1      31.147 -23.038 -15.653  0.00  0.00    +0.058 C 
ATOM      5  C   UNL     1      32.964 -23.943 -13.457  0.00  0.00    +0.043 C 
ATOM      6  C   UNL     1      30.461 -23.324 -14.456  0.00  0.00    +0.043 C 
ATOM      7  C   UNL     1      34.821 -23.464 -14.909  0.00  0.00    +0.034 C 
ATOM      8  C   UNL     1      35.716 -23.677 -13.856  0.00  0.00    +0.107 C 
ATOM      9  C   UNL     1      30.420 -22.375 -16.665  0.00  0.00    +0.015 C 
ATOM     10  C   UNL     1      33.869 -24.162 -12.403  0.00  0.00    +0.009 C 
ATOM     11  C   UNL     1      35.239 -24.029 -12.603  0.00  0.00    +0.019 C 
ATOM     12  C   UNL     1      29.105 -22.984 -14.305  0.00  0.00    +0.008 C 
ATOM     13  C   UNL     1      29.074 -22.034 -16.509  0.00  0.00    +0.001 C 
ATOM     14  C   UNL     1      28.415 -22.342 -15.327  0.00  0.00    +0.001 C 
ENDROOT
BRANCH   8  15
ATOM     15  S   UNL     1      37.433 -23.508 -14.122  0.00  0.00    +0.010 S 
ATOM     16  O   UNL     1      37.625 -22.628 -15.265  0.00  0.00    -0.169 OA
ATOM     17  O   UNL     1      38.078 -23.198 -12.854  0.00  0.00    -0.169 OA
ATOM     18  C   UNL     1      37.969 -25.139 -14.591  0.00  0.00    +0.182 C 
ENDBRANCH   8  15
BRANCH   2  19
ATOM     19  C   UNL     1      33.052 -23.414 -17.175  0.00  0.00    +0.093 C 
BRANCH  19  20
ATOM     20  C   UNL     1      33.410 -22.009 -17.659  0.00  0.00    -0.001 C 
BRANCH  20  21
ATOM     21  C   UNL     1      34.798 -21.887 -18.294  0.00  0.00    -0.076 C 
BRANCH  21  22
ATOM     22  N   UNL     1      34.767 -21.111 -19.533  0.00  0.00    +0.387 N 
ATOM     23  C   UNL     1      34.538 -18.667 -21.122  0.00  0.00    +0.072 C 
ATOM     24  C   UNL     1      35.881 -19.353 -20.871  0.00  0.00    -0.014 C 
ATOM     25  C   UNL     1      33.398 -19.676 -21.010  0.00  0.00    -0.014 C 
ATOM     26  C   UNL     1      35.867 -20.136 -19.557  0.00  0.00    -0.077 C 
ATOM     27  C   UNL     1      33.466 -20.448 -19.691  0.00  0.00    -0.077 C 
ATOM     28  H   UNL     1      34.894 -21.747 -20.321  0.00  0.00    -0.080 HD
BRANCH  23  31
ATOM     29  O   UNL     1      33.952 -18.539 -23.435  0.00  0.00    -0.275 OA
ATOM     30  N   UNL     1      35.275 -16.877 -22.551  0.00  0.00    -0.329 N 
ATOM     31  C   UNL     1      34.543 -18.038 -22.481  0.00  0.00    +0.219 C 
ATOM     32  H   UNL     1      35.340 -16.387 -23.404  0.00  0.00    +0.145 HD
ATOM     33  H   UNL     1      35.735 -16.535 -21.751  0.00  0.00    +0.145 HD
ENDBRANCH  23  31
ENDBRANCH  21  22
ENDBRANCH  20  21
ENDBRANCH  19  20
ENDBRANCH   2  19
TORSDOF 6
ENDMDL
MODEL 4
REMARK VINA RESULT:     -10.5      3.081      6.459
REMARK  Name = 26388
REMARK  6 active torsions:
REMARK  status: ('A' for Active; 'I' for Inactive)
REMARK    1  A    between atoms: N_2  and  C_19
REMARK    2  A    between atoms: C_8  and  S_15
REMARK    3  A    between atoms: C_19  and  C_20
REMARK    4  A    between atoms: C_20  and  C_21
REMARK    5  A    between atoms: C_21  and  N_22
REMARK    6  A    between atoms: C_23  and  C_31
REMARK                            x       y       z     vdW  Elec       q    Type
REMARK                         _______ _______ _______ _____ _____    ______ ____
ROOT
ATOM      1  S   UNL     1      34.402 -23.869 -11.983  0.00  0.00    -0.084 S 
ATOM      2  N   UNL     1      34.586 -22.776 -14.888  0.00  0.00    -0.286 N 
ATOM      3  C   UNL     1      33.274 -22.977 -14.389  0.00  0.00    +0.059 C 
ATOM      4  C   UNL     1      35.752 -23.417 -14.396  0.00  0.00    +0.058 C 
ATOM      5  C   UNL     1      33.061 -23.491 -13.094  0.00  0.00    +0.043 C 
ATOM      6  C   UNL     1      35.783 -23.974 -13.103  0.00  0.00    +0.043 C 
ATOM      7  C   UNL     1      32.128 -22.710 -15.168  0.00  0.00    +0.034 C 
ATOM      8  C   UNL     1      30.834 -22.920 -14.681  0.00  0.00    +0.107 C 
ATOM      9  C   UNL     1      36.915 -23.559 -15.184  0.00  0.00    +0.015 C 
ATOM     10  C   UNL     1      31.757 -23.696 -12.607  0.00  0.00    +0.009 C 
ATOM     11  C   UNL     1      30.649 -23.411 -13.398  0.00  0.00    +0.019 C 
ATOM     12  C   UNL     1      36.940 -24.615 -12.623  0.00  0.00    +0.008 C 
ATOM     13  C   UNL     1      38.060 -24.201 -14.705  0.00  0.00    +0.001 C 
ATOM     14  C   UNL     1      38.073 -24.728 -13.422  0.00  0.00    +0.001 C 
ENDROOT
BRANCH   8  15
ATOM     15  S   UNL     1      29.453 -22.556 -15.685  0.00  0.00    +0.010 S 
ATOM     16  O   UNL     1      28.557 -21.701 -14.921  0.00  0.00    -0.169 OA
ATOM     17  O   UNL     1      29.922 -22.125 -16.994  0.00  0.00    -0.169 OA
ATOM     18  C   UNL     1      28.648 -24.126 -15.914  0.00  0.00    +0.182 C 
ENDBRANCH   8  15
BRANCH   2  19
ATOM     19  C   UNL     1      34.739 -21.890 -16.049  0.00  0.00    +0.093 C 
BRANCH  19  20
ATOM     20  C   UNL     1      34.447 -22.644 -17.346  0.00  0.00    -0.001 C 
BRANCH  20  21
ATOM     21  C   UNL     1      33.446 -21.950 -18.275  0.00  0.00    -0.076 C 
BRANCH  21  22
ATOM     22  N   UNL     1      34.038 -20.801 -18.957  0.00  0.00    +0.387 N 
ATOM     23  C   UNL     1      35.203 -19.384 -21.235  0.00  0.00    +0.072 C 
ATOM     24  C   UNL     1      33.768 -19.138 -20.769  0.00  0.00    -0.014 C 
ATOM     25  C   UNL     1      36.053 -19.908 -20.080  0.00  0.00    -0.014 C 
ATOM     26  C   UNL     1      33.189 -20.373 -20.078  0.00  0.00    -0.077 C 
ATOM     27  C   UNL     1      35.398 -21.118 -19.413  0.00  0.00    -0.077 C 
ATOM     28  H   UNL     1      34.101 -20.025 -18.297  0.00  0.00    -0.080 HD
BRANCH  23  31
ATOM     29  O   UNL     1      35.075 -17.182 -22.155  0.00  0.00    -0.275 OA
ATOM     30  N   UNL     1      37.156 -18.098 -21.801  0.00  0.00    -0.329 N 
ATOM     31  C   UNL     1      35.782 -18.111 -21.769  0.00  0.00    +0.219 C 
ATOM     32  H   UNL     1      37.634 -17.304 -22.137  0.00  0.00    +0.145 HD
ATOM     33  H   UNL     1      37.663 -18.882 -21.489  0.00  0.00    +0.145 HD
ENDBRANCH  23  31
ENDBRANCH  21  22
ENDBRANCH  20  21
ENDBRANCH  19  20
ENDBRANCH   2  19
TORSDOF 6
ENDMDL
MODEL 5
REMARK VINA RESULT:     -10.3      2.785      5.097
REMARK  Name = 26388
REMARK  6 active torsions:
REMARK  status: ('A' for Active; 'I' for Inactive)
REMARK    1  A    between atoms: N_2  and  C_19
REMARK    2  A    between atoms: C_8  and  S_15
REMARK    3  A    between atoms: C_19  and  C_20
REMARK    4  A    between atoms: C_20  and  C_21
REMARK    5  A    between atoms: C_21  and  N_22
REMARK    6  A    between atoms: C_23  and  C_31
REMARK                            x       y       z     vdW  Elec       q    Type
REMARK                         _______ _______ _______ _____ _____    ______ ____
ROOT
ATOM      1  S   UNL     1      36.656 -20.973 -17.143  0.00  0.00    -0.084 S 
ATOM      2  N   UNL     1      34.459 -22.967 -16.214  0.00  0.00    -0.286 N 
ATOM      3  C   UNL     1      35.755 -23.191 -15.685  0.00  0.00    +0.059 C 
ATOM      4  C   UNL     1      34.177 -22.253 -17.406  0.00  0.00    +0.058 C 
ATOM      5  C   UNL     1      36.840 -22.368 -16.050  0.00  0.00    +0.043 C 
ATOM      6  C   UNL     1      35.105 -21.338 -17.941  0.00  0.00    +0.043 C 
ATOM      7  C   UNL     1      36.031 -24.259 -14.804  0.00  0.00    +0.034 C 
ATOM      8  C   UNL     1      37.311 -24.488 -14.293  0.00  0.00    +0.107 C 
ATOM      9  C   UNL     1      32.980 -22.449 -18.129  0.00  0.00    +0.015 C 
ATOM     10  C   UNL     1      38.126 -22.599 -15.529  0.00  0.00    +0.009 C 
ATOM     11  C   UNL     1      38.359 -23.655 -14.654  0.00  0.00    +0.019 C 
ATOM     12  C   UNL     1      34.824 -20.638 -19.128  0.00  0.00    +0.008 C 
ATOM     13  C   UNL     1      32.707 -21.755 -19.311  0.00  0.00    +0.001 C 
ATOM     14  C   UNL     1      33.629 -20.847 -19.809  0.00  0.00    +0.001 C 
ENDROOT
BRANCH   8  15
ATOM     15  S   UNL     1      37.590 -25.815 -13.194  0.00  0.00    +0.010 S 
ATOM     16  O   UNL     1      36.895 -26.983 -13.717  0.00  0.00    -0.169 OA
ATOM     17  O   UNL     1      39.013 -25.893 -12.899  0.00  0.00    -0.169 OA
ATOM     18  C   UNL     1      36.776 -25.322 -11.691  0.00  0.00    +0.182 C 
ENDBRANCH   8  15
BRANCH   2  19
ATOM     19  C   UNL     1      33.326 -23.583 -15.510  0.00  0.00    +0.093 C 
BRANCH  19  20
ATOM     20  C   UNL     1      33.056 -22.863 -14.189  0.00  0.00    -0.001 C 
BRANCH  20  21
ATOM     21  C   UNL     1      31.961 -23.501 -13.328  0.00  0.00    -0.076 C 
BRANCH  21  22
ATOM     22  N   UNL     1      30.629 -23.291 -13.893  0.00  0.00    +0.387 N 
ATOM     23  C   UNL     1      28.693 -22.963 -16.060  0.00  0.00    +0.072 C 
ATOM     24  C   UNL     1      28.816 -24.264 -15.268  0.00  0.00    -0.014 C 
ATOM     25  C   UNL     1      29.189 -21.784 -15.226  0.00  0.00    -0.014 C 
ATOM     26  C   UNL     1      30.231 -24.444 -14.714  0.00  0.00    -0.077 C 
ATOM     27  C   UNL     1      30.591 -22.047 -14.674  0.00  0.00    -0.077 C 
ATOM     28  H   UNL     1      29.959 -23.203 -13.128  0.00  0.00    -0.080 HD
BRANCH  23  31
ATOM     29  O   UNL     1      26.796 -23.230 -17.487  0.00  0.00    -0.275 OA
ATOM     30  N   UNL     1      26.556 -21.967 -15.580  0.00  0.00    -0.329 N 
ATOM     31  C   UNL     1      27.265 -22.751 -16.458  0.00  0.00    +0.219 C 
ATOM     32  H   UNL     1      25.606 -21.768 -15.753  0.00  0.00    +0.145 HD
ATOM     33  H   UNL     1      26.996 -21.603 -14.778  0.00  0.00    +0.145 HD
ENDBRANCH  23  31
ENDBRANCH  21  22
ENDBRANCH  20  21
ENDBRANCH  19  20
ENDBRANCH   2  19
TORSDOF 6
ENDMDL
MODEL 6
REMARK VINA RESULT:      -9.6     12.727     16.274
REMARK  Name = 26388
REMARK  6 active torsions:
REMARK  status: ('A' for Active; 'I' for Inactive)
REMARK    1  A    between atoms: N_2  and  C_19
REMARK    2  A    between atoms: C_8  and  S_15
REMARK    3  A    between atoms: C_19  and  C_20
REMARK    4  A    between atoms: C_20  and  C_21
REMARK    5  A    between atoms: C_21  and  N_22
REMARK    6  A    between atoms: C_23  and  C_31
REMARK                            x       y       z     vdW  Elec       q    Type
REMARK                         _______ _______ _______ _____ _____    ______ ____
ROOT
ATOM      1  S   UNL     1      32.807  -6.349 -20.752  0.00  0.00    -0.084 S 
ATOM      2  N   UNL     1      32.283  -8.421 -23.010  0.00  0.00    -0.286 N 
ATOM      3  C   UNL     1      32.586  -7.104 -23.442  0.00  0.00    +0.059 C 
ATOM      4  C   UNL     1      31.774  -8.762 -21.732  0.00  0.00    +0.058 C 
ATOM      5  C   UNL     1      32.819  -6.071 -22.513  0.00  0.00    +0.043 C 
ATOM      6  C   UNL     1      31.927  -7.893 -20.634  0.00  0.00    +0.043 C 
ATOM      7  C   UNL     1      32.632  -6.757 -24.810  0.00  0.00    +0.034 C 
ATOM      8  C   UNL     1      32.918  -5.457 -25.235  0.00  0.00    +0.107 C 
ATOM      9  C   UNL     1      31.062  -9.960 -21.506  0.00  0.00    +0.015 C 
ATOM     10  C   UNL     1      33.112  -4.766 -22.946  0.00  0.00    +0.009 C 
ATOM     11  C   UNL     1      33.161  -4.461 -24.302  0.00  0.00    +0.019 C 
ATOM     12  C   UNL     1      31.412  -8.233 -19.369  0.00  0.00    +0.008 C 
ATOM     13  C   UNL     1      30.548 -10.292 -20.250  0.00  0.00    +0.001 C 
ATOM     14  C   UNL     1      30.726  -9.428 -19.179  0.00  0.00    +0.001 C 
ENDROOT
BRANCH   8  15
ATOM     15  S   UNL     1      32.978  -5.089 -26.941  0.00  0.00    +0.010 S 
ATOM     16  O   UNL     1      32.427  -6.226 -27.664  0.00  0.00    -0.169 OA
ATOM     17  O   UNL     1      32.426  -3.759 -27.156  0.00  0.00    -0.169 OA
ATOM     18  C   UNL     1      34.715  -4.995 -27.311  0.00  0.00    +0.182 C 
ENDBRANCH   8  15
BRANCH   2  19
ATOM     19  C   UNL     1      32.443  -9.506 -23.987  0.00  0.00    +0.093 C 
BRANCH  19  20
ATOM     20  C   UNL     1      33.189 -10.686 -23.365  0.00  0.00    -0.001 C 
BRANCH  20  21
ATOM     21  C   UNL     1      32.740 -12.061 -23.869  0.00  0.00    -0.076 C 
BRANCH  21  22
ATOM     22  N   UNL     1      33.548 -13.141 -23.305  0.00  0.00    +0.387 N 
ATOM     23  C   UNL     1      33.995 -15.794 -22.158  0.00  0.00    +0.072 C 
ATOM     24  C   UNL     1      34.354 -15.461 -23.605  0.00  0.00    -0.014 C 
ATOM     25  C   UNL     1      33.997 -14.527 -21.306  0.00  0.00    -0.014 C 
ATOM     26  C   UNL     1      33.470 -14.339 -24.153  0.00  0.00    -0.077 C 
ATOM     27  C   UNL     1      33.124 -13.437 -21.930  0.00  0.00    -0.077 C 
ATOM     28  H   UNL     1      34.523 -12.840 -23.276  0.00  0.00    -0.080 HD
BRANCH  23  31
ATOM     29  O   UNL     1      35.077 -17.010 -20.409  0.00  0.00    -0.275 OA
ATOM     30  N   UNL     1      35.742 -17.394 -22.578  0.00  0.00    -0.329 N 
ATOM     31  C   UNL     1      34.974 -16.787 -21.613  0.00  0.00    +0.219 C 
ATOM     32  H   UNL     1      36.418 -18.064 -22.320  0.00  0.00    +0.145 HD
ATOM     33  H   UNL     1      35.618 -17.160 -23.526  0.00  0.00    +0.145 HD
ENDBRANCH  23  31
ENDBRANCH  21  22
ENDBRANCH  20  21
ENDBRANCH  19  20
ENDBRANCH   2  19
TORSDOF 6
ENDMDL
MODEL 7
REMARK VINA RESULT:      -9.2      3.525      7.905
REMARK  Name = 26388
REMARK  6 active torsions:
REMARK  status: ('A' for Active; 'I' for Inactive)
REMARK    1  A    between atoms: N_2  and  C_19
REMARK    2  A    between atoms: C_8  and  S_15
REMARK    3  A    between atoms: C_19  and  C_20
REMARK    4  A    between atoms: C_20  and  C_21
REMARK    5  A    between atoms: C_21  and  N_22
REMARK    6  A    between atoms: C_23  and  C_31
REMARK                            x       y       z     vdW  Elec       q    Type
REMARK                         _______ _______ _______ _____ _____    ______ ____
ROOT
ATOM      1  S   UNL     1      32.156 -20.900 -19.930  0.00  0.00    -0.084 S 
ATOM      2  N   UNL     1      34.847 -21.456 -18.475  0.00  0.00    -0.286 N 
ATOM      3  C   UNL     1      33.678 -21.860 -17.781  0.00  0.00    +0.059 C 
ATOM      4  C   UNL     1      34.891 -20.472 -19.494  0.00  0.00    +0.058 C 
ATOM      5  C   UNL     1      32.398 -21.639 -18.327  0.00  0.00    +0.043 C 
ATOM      6  C   UNL     1      33.731 -20.114 -20.209  0.00  0.00    +0.043 C 
ATOM      7  C   UNL     1      33.735 -22.462 -16.506  0.00  0.00    +0.034 C 
ATOM      8  C   UNL     1      32.582 -22.847 -15.815  0.00  0.00    +0.107 C 
ATOM      9  C   UNL     1      36.079 -19.780 -19.815  0.00  0.00    +0.015 C 
ATOM     10  C   UNL     1      31.241 -22.034 -17.631  0.00  0.00    +0.009 C 
ATOM     11  C   UNL     1      31.334 -22.635 -16.380  0.00  0.00    +0.019 C 
ATOM     12  C   UNL     1      33.778 -19.131 -21.214  0.00  0.00    +0.008 C 
ATOM     13  C   UNL     1      36.121 -18.800 -20.810  0.00  0.00    +0.001 C 
ATOM     14  C   UNL     1      34.969 -18.477 -21.512  0.00  0.00    +0.001 C 
ENDROOT
BRANCH   8  15
ATOM     15  S   UNL     1      32.714 -23.603 -14.247  0.00  0.00    +0.010 S 
ATOM     16  O   UNL     1      33.837 -24.528 -14.288  0.00  0.00    -0.169 OA
ATOM     17  O   UNL     1      32.665 -22.571 -13.221  0.00  0.00    -0.169 OA
ATOM     18  C   UNL     1      31.223 -24.559 -14.091  0.00  0.00    +0.182 C 
ENDBRANCH   8  15
BRANCH   2  19
ATOM     19  C   UNL     1      36.122 -22.055 -18.057  0.00  0.00    +0.093 C 
BRANCH  19  20
ATOM     20  C   UNL     1      36.680 -21.335 -16.830  0.00  0.00    -0.001 C 
BRANCH  20  21
ATOM     21  C   UNL     1      37.752 -22.117 -16.065  0.00  0.00    -0.076 C 
BRANCH  21  22
ATOM     22  N   UNL     1      37.176 -22.931 -14.995  0.00  0.00    +0.387 N 
ATOM     23  C   UNL     1      37.038 -24.039 -12.292  0.00  0.00    +0.072 C 
ATOM     24  C   UNL     1      36.117 -22.913 -12.759  0.00  0.00    -0.014 C 
ATOM     25  C   UNL     1      37.519 -24.861 -13.486  0.00  0.00    -0.014 C 
ATOM     26  C   UNL     1      36.771 -22.083 -13.865  0.00  0.00    -0.077 C 
ATOM     27  C   UNL     1      38.127 -23.966 -14.567  0.00  0.00    -0.077 C 
ATOM     28  H   UNL     1      36.342 -23.398 -15.352  0.00  0.00    -0.080 HD
BRANCH  23  31
ATOM     29  O   UNL     1      36.567 -26.109 -11.197  0.00  0.00    -0.275 OA
ATOM     30  N   UNL     1      35.329 -24.260 -10.613  0.00  0.00    -0.329 N 
ATOM     31  C   UNL     1      36.309 -24.914 -11.321  0.00  0.00    +0.219 C 
ATOM     32  H   UNL     1      34.792 -24.749  -9.948  0.00  0.00    +0.145 HD
ATOM     33  H   UNL     1      35.165 -23.302 -10.770  0.00  0.00    +0.145 HD
ENDBRANCH  23  31
ENDBRANCH  21  22
ENDBRANCH  20  21
ENDBRANCH  19  20
ENDBRANCH   2  19
TORSDOF 6
ENDMDL
MODEL 8
REMARK VINA RESULT:      -8.8      3.370      7.606
REMARK  Name = 26388
REMARK  6 active torsions:
REMARK  status: ('A' for Active; 'I' for Inactive)
REMARK    1  A    between atoms: N_2  and  C_19
REMARK    2  A    between atoms: C_8  and  S_15
REMARK    3  A    between atoms: C_19  and  C_20
REMARK    4  A    between atoms: C_20  and  C_21
REMARK    5  A    between atoms: C_21  and  N_22
REMARK    6  A    between atoms: C_23  and  C_31
REMARK                            x       y       z     vdW  Elec       q    Type
REMARK                         _______ _______ _______ _____ _____    ______ ____
ROOT
ATOM      1  S   UNL     1      33.474 -21.891 -18.164  0.00  0.00    -0.084 S 
ATOM      2  N   UNL     1      33.897 -23.319 -15.435  0.00  0.00    -0.286 N 
ATOM      3  C   UNL     1      32.548 -23.069 -15.795  0.00  0.00    +0.059 C 
ATOM      4  C   UNL     1      35.019 -22.618 -15.943  0.00  0.00    +0.058 C 
ATOM      5  C   UNL     1      32.229 -22.406 -16.997  0.00  0.00    +0.043 C 
ATOM      6  C   UNL     1      34.945 -21.911 -17.159  0.00  0.00    +0.043 C 
ATOM      7  C   UNL     1      31.470 -23.433 -14.960  0.00  0.00    +0.034 C 
ATOM      8  C   UNL     1      30.141 -23.175 -15.309  0.00  0.00    +0.107 C 
ATOM      9  C   UNL     1      36.245 -22.563 -15.244  0.00  0.00    +0.015 C 
ATOM     10  C   UNL     1      30.890 -22.153 -17.346  0.00  0.00    +0.009 C 
ATOM     11  C   UNL     1      29.851 -22.536 -16.505  0.00  0.00    +0.019 C 
ATOM     12  C   UNL     1      36.059 -21.211 -17.654  0.00  0.00    +0.008 C 
ATOM     13  C   UNL     1      37.348 -21.862 -15.737  0.00  0.00    +0.001 C 
ATOM     14  C   UNL     1      37.256 -21.187 -16.946  0.00  0.00    +0.001 C 
ENDROOT
BRANCH   8  15
ATOM     15  S   UNL     1      28.847 -23.663 -14.243  0.00  0.00    +0.010 S 
ATOM     16  O   UNL     1      29.261 -23.382 -12.877  0.00  0.00    -0.169 OA
ATOM     17  O   UNL     1      27.593 -23.120 -14.745  0.00  0.00    -0.169 OA
ATOM     18  C   UNL     1      28.760 -25.429 -14.436  0.00  0.00    +0.182 C 
ENDBRANCH   8  15
BRANCH   2  19
ATOM     19  C   UNL     1      34.143 -24.336 -14.404  0.00  0.00    +0.093 C 
BRANCH  19  20
ATOM     20  C   UNL     1      33.994 -23.735 -13.007  0.00  0.00    -0.001 C 
BRANCH  20  21
ATOM     21  C   UNL     1      35.159 -24.031 -12.058  0.00  0.00    -0.076 C 
BRANCH  21  22
ATOM     22  N   UNL     1      36.384 -24.364 -12.784  0.00  0.00    +0.387 N 
ATOM     23  C   UNL     1      38.998 -25.630 -13.128  0.00  0.00    +0.072 C 
ATOM     24  C   UNL     1      37.734 -26.178 -13.790  0.00  0.00    -0.014 C 
ATOM     25  C   UNL     1      38.847 -24.136 -12.849  0.00  0.00    -0.014 C 
ATOM     26  C   UNL     1      36.485 -25.817 -12.984  0.00  0.00    -0.077 C 
ATOM     27  C   UNL     1      37.561 -23.844 -12.074  0.00  0.00    -0.077 C 
ATOM     28  H   UNL     1      36.351 -23.922 -13.703  0.00  0.00    -0.080 HD
BRANCH  23  31
ATOM     29  O   UNL     1      41.098 -26.618 -13.693  0.00  0.00    -0.275 OA
ATOM     30  N   UNL     1      40.129 -25.179 -15.204  0.00  0.00    -0.329 N 
ATOM     31  C   UNL     1      40.177 -25.874 -14.019  0.00  0.00    +0.219 C 
ATOM     32  H   UNL     1      40.859 -25.272 -15.859  0.00  0.00    +0.145 HD
ATOM     33  H   UNL     1      39.366 -24.588 -15.398  0.00  0.00    +0.145 HD
ENDBRANCH  23  31
ENDBRANCH  21  22
ENDBRANCH  20  21
ENDBRANCH  19  20
ENDBRANCH   2  19
TORSDOF 6
ENDMDL
