MODEL 1
REMARK VINA RESULT:     -12.7      0.000      0.000
REMARK  Name = 135565042
REMARK  5 active torsions:
REMARK  status: ('A' for Active; 'I' for Inactive)
REMARK    1  A    between atoms: C_3  and  O_21
REMARK    2  A    between atoms: C_6  and  C_7
REMARK    3  A    between atoms: C_8  and  O_19
REMARK    4  A    between atoms: C_10  and  C_15
REMARK    5  A    between atoms: O_21  and  C_27
REMARK                            x       y       z     vdW  Elec       q    Type
REMARK                         _______ _______ _______ _____ _____    ______ ____
ROOT
ATOM      1  N   UNL     1      34.842 -22.642 -16.630  0.00  0.00    -0.110 NA
ATOM      2  N   UNL     1      34.834 -21.843 -17.731  0.00  0.00    -0.145 NA
ATOM      3  C   UNL     1      33.676 -23.156 -16.181  0.00  0.00    +0.244 C 
ATOM      4  C   UNL     1      32.464 -22.907 -16.791  0.00  0.00    +0.061 C 
ATOM      5  C   UNL     1      32.455 -22.094 -17.911  0.00  0.00    +0.026 C 
ATOM      6  C   UNL     1      33.661 -21.583 -18.346  0.00  0.00    +0.106 C 
ENDROOT
BRANCH   6   7
ATOM      7  C   UNL     1      33.747 -20.730 -19.506  0.00  0.00    +0.053 C 
ATOM      8  C   UNL     1      34.983 -20.314 -20.000  0.00  0.00    +0.135 C 
ATOM      9  C   UNL     1      32.571 -20.318 -20.134  0.00  0.00    +0.005 C 
ATOM     10  C   UNL     1      33.869 -19.078 -21.751  0.00  0.00    +0.006 C 
ATOM     11  C   UNL     1      35.045 -19.489 -21.122  0.00  0.00    +0.037 C 
ATOM     12  C   UNL     1      32.631 -19.493 -21.256  0.00  0.00    +0.000 C 
BRANCH  10  15
ATOM     13  N   UNL     1      34.392 -16.531 -24.202  0.00  0.00    -0.235 N 
ATOM     14  N   UNL     1      33.700 -17.356 -25.005  0.00  0.00    -0.180 NA
ATOM     15  C   UNL     1      33.932 -18.230 -22.908  0.00  0.00    +0.037 C 
ATOM     16  C   UNL     1      34.559 -17.008 -22.935  0.00  0.00    +0.081 C 
ATOM     17  C   UNL     1      33.421 -18.392 -24.210  0.00  0.00    +0.119 C 
ATOM     18  H   UNL     1      34.747 -15.662 -24.500  0.00  0.00    +0.174 HD
ENDBRANCH  10  15
BRANCH   8  19
ATOM     19  O   UNL     1      36.148 -20.701 -19.405  0.00  0.00    -0.505 OA
ATOM     20  H   UNL     1      36.654 -21.398 -19.775  0.00  0.00    +0.292 HD
ENDBRANCH   8  19
ENDBRANCH   6   7
BRANCH   3  21
ATOM     21  O   UNL     1      33.729 -23.956 -15.072  0.00  0.00    -0.463 OA
BRANCH  21  27
ATOM     22  N   UNL     1      36.739 -25.046 -12.316  0.00  0.00    +0.389 N 
ATOM     23  C   UNL     1      37.021 -25.254 -13.743  0.00  0.00    -0.042 C 
ATOM     24  C   UNL     1      35.828 -23.965 -11.916  0.00  0.00    -0.042 C 
ATOM     25  C   UNL     1      35.750 -25.153 -14.608  0.00  0.00    +0.024 C 
ATOM     26  C   UNL     1      34.581 -23.888 -12.819  0.00  0.00    +0.024 C 
ATOM     27  C   UNL     1      34.927 -23.908 -14.304  0.00  0.00    +0.164 C 
ATOM     28  C   UNL     1      36.544 -22.604 -11.848  0.00  0.00    -0.021 C 
ATOM     29  C   UNL     1      37.571 -26.692 -13.856  0.00  0.00    -0.021 C 
ATOM     30  C   UNL     1      38.119 -24.306 -14.259  0.00  0.00    -0.021 C 
ATOM     31  C   UNL     1      35.369 -24.311 -10.484  0.00  0.00    -0.021 C 
ATOM     32  H   UNL     1      37.633 -24.867 -11.858  0.00  0.00    -0.084 HD
ATOM     33  H   UNL     1      36.245 -25.895 -12.039  0.00  0.00    -0.084 HD
ENDBRANCH  21  27
ENDBRANCH   3  21
TORSDOF 5
ENDMDL
MODEL 2
REMARK VINA RESULT:     -12.6      8.003     14.514
REMARK  Name = 135565042
REMARK  5 active torsions:
REMARK  status: ('A' for Active; 'I' for Inactive)
REMARK    1  A    between atoms: C_3  and  O_21
REMARK    2  A    between atoms: C_6  and  C_7
REMARK    3  A    between atoms: C_8  and  O_19
REMARK    4  A    between atoms: C_10  and  C_15
REMARK    5  A    between atoms: O_21  and  C_27
REMARK                            x       y       z     vdW  Elec       q    Type
REMARK                         _______ _______ _______ _____ _____    ______ ____
ROOT
ATOM      1  N   UNL     1      32.772 -10.657 -23.556  0.00  0.00    -0.110 NA
ATOM      2  N   UNL     1      33.284 -11.884 -23.273  0.00  0.00    -0.145 NA
ATOM      3  C   UNL     1      31.713 -10.206 -22.850  0.00  0.00    +0.244 C 
ATOM      4  C   UNL     1      31.118 -10.938 -21.843  0.00  0.00    +0.061 C 
ATOM      5  C   UNL     1      31.639 -12.187 -21.554  0.00  0.00    +0.026 C 
ATOM      6  C   UNL     1      32.721 -12.622 -22.293  0.00  0.00    +0.106 C 
ENDROOT
BRANCH   6   7
ATOM      7  C   UNL     1      33.329 -13.908 -22.058  0.00  0.00    +0.053 C 
ATOM      8  C   UNL     1      33.607 -14.773 -23.117  0.00  0.00    +0.135 C 
ATOM      9  C   UNL     1      33.640 -14.284 -20.751  0.00  0.00    +0.005 C 
ATOM     10  C   UNL     1      34.506 -16.388 -21.562  0.00  0.00    +0.006 C 
ATOM     11  C   UNL     1      34.196 -16.012 -22.869  0.00  0.00    +0.037 C 
ATOM     12  C   UNL     1      34.228 -15.523 -20.503  0.00  0.00    +0.000 C 
BRANCH  10  15
ATOM     13  N   UNL     1      36.625 -19.227 -21.088  0.00  0.00    -0.235 N 
ATOM     14  N   UNL     1      35.477 -19.858 -20.784  0.00  0.00    -0.180 NA
ATOM     15  C   UNL     1      35.114 -17.664 -21.307  0.00  0.00    +0.037 C 
ATOM     16  C   UNL     1      36.461 -17.911 -21.409  0.00  0.00    +0.081 C 
ATOM     17  C   UNL     1      34.558 -18.898 -20.919  0.00  0.00    +0.119 C 
ATOM     18  H   UNL     1      37.502 -19.673 -21.081  0.00  0.00    +0.174 HD
ENDBRANCH  10  15
BRANCH   8  19
ATOM     19  O   UNL     1      33.314 -14.431 -24.404  0.00  0.00    -0.505 OA
ATOM     20  H   UNL     1      33.967 -14.030 -24.943  0.00  0.00    +0.292 HD
ENDBRANCH   8  19
ENDBRANCH   6   7
BRANCH   3  21
ATOM     21  O   UNL     1      31.230  -8.965 -23.166  0.00  0.00    -0.463 OA
BRANCH  21  27
ATOM     22  N   UNL     1      32.330  -4.970 -22.342  0.00  0.00    +0.389 N 
ATOM     23  C   UNL     1      31.510  -5.667 -21.341  0.00  0.00    -0.042 C 
ATOM     24  C   UNL     1      33.239  -5.752 -23.191  0.00  0.00    -0.042 C 
ATOM     25  C   UNL     1      30.891  -6.964 -21.894  0.00  0.00    +0.024 C 
ATOM     26  C   UNL     1      32.586  -7.048 -23.708  0.00  0.00    +0.024 C 
ATOM     27  C   UNL     1      31.911  -7.849 -22.600  0.00  0.00    +0.164 C 
ATOM     28  C   UNL     1      34.574  -6.049 -22.486  0.00  0.00    -0.021 C 
ATOM     29  C   UNL     1      30.364  -4.695 -20.987  0.00  0.00    -0.021 C 
ATOM     30  C   UNL     1      32.292  -5.937 -20.042  0.00  0.00    -0.021 C 
ATOM     31  C   UNL     1      33.556  -4.852 -24.404  0.00  0.00    -0.021 C 
ATOM     32  H   UNL     1      32.901  -4.291 -21.840  0.00  0.00    -0.084 HD
ATOM     33  H   UNL     1      31.645  -4.596 -22.999  0.00  0.00    -0.084 HD
ENDBRANCH  21  27
ENDBRANCH   3  21
TORSDOF 5
ENDMDL
MODEL 3
REMARK VINA RESULT:     -11.7      8.092     14.680
REMARK  Name = 135565042
REMARK  5 active torsions:
REMARK  status: ('A' for Active; 'I' for Inactive)
REMARK    1  A    between atoms: C_3  and  O_21
REMARK    2  A    between atoms: C_6  and  C_7
REMARK    3  A    between atoms: C_8  and  O_19
REMARK    4  A    between atoms: C_10  and  C_15
REMARK    5  A    between atoms: O_21  and  C_27
REMARK                            x       y       z     vdW  Elec       q    Type
REMARK                         _______ _______ _______ _____ _____    ______ ____
ROOT
ATOM      1  N   UNL     1      31.122 -11.000 -22.112  0.00  0.00    -0.110 NA
ATOM      2  N   UNL     1      31.721 -12.199 -21.880  0.00  0.00    -0.145 NA
ATOM      3  C   UNL     1      31.709 -10.123 -22.954  0.00  0.00    +0.244 C 
ATOM      4  C   UNL     1      32.900 -10.385 -23.599  0.00  0.00    +0.061 C 
ATOM      5  C   UNL     1      33.510 -11.605 -23.363  0.00  0.00    +0.026 C 
ATOM      6  C   UNL     1      32.888 -12.481 -22.497  0.00  0.00    +0.106 C 
ENDROOT
BRANCH   6   7
ATOM      7  C   UNL     1      33.450 -13.775 -22.196  0.00  0.00    +0.053 C 
ATOM      8  C   UNL     1      33.510 -14.241 -20.883  0.00  0.00    +0.135 C 
ATOM      9  C   UNL     1      33.939 -14.562 -23.239  0.00  0.00    +0.005 C 
ATOM     10  C   UNL     1      34.546 -16.282 -21.655  0.00  0.00    +0.006 C 
ATOM     11  C   UNL     1      34.058 -15.495 -20.612  0.00  0.00    +0.037 C 
ATOM     12  C   UNL     1      34.487 -15.815 -22.969  0.00  0.00    +0.000 C 
BRANCH  10  15
ATOM     13  N   UNL     1      36.563 -19.187 -21.140  0.00  0.00    -0.235 N 
ATOM     14  N   UNL     1      35.397 -19.767 -20.806  0.00  0.00    -0.180 NA
ATOM     15  C   UNL     1      35.109 -17.574 -21.377  0.00  0.00    +0.037 C 
ATOM     16  C   UNL     1      36.444 -17.874 -21.489  0.00  0.00    +0.081 C 
ATOM     17  C   UNL     1      34.513 -18.777 -20.953  0.00  0.00    +0.119 C 
ATOM     18  H   UNL     1      37.423 -19.666 -21.132  0.00  0.00    +0.174 HD
ENDBRANCH  10  15
BRANCH   8  19
ATOM     19  O   UNL     1      33.040 -13.492 -19.844  0.00  0.00    -0.505 OA
ATOM     20  H   UNL     1      32.916 -13.885 -19.003  0.00  0.00    +0.292 HD
ENDBRANCH   8  19
ENDBRANCH   6   7
BRANCH   3  21
ATOM     21  O   UNL     1      31.073  -8.929 -23.161  0.00  0.00    -0.463 OA
BRANCH  21  27
ATOM     22  N   UNL     1      31.962  -4.850 -22.510  0.00  0.00    +0.389 N 
ATOM     23  C   UNL     1      31.473  -5.627 -21.363  0.00  0.00    -0.042 C 
ATOM     24  C   UNL     1      32.711  -5.536 -23.572  0.00  0.00    -0.042 C 
ATOM     25  C   UNL     1      30.862  -6.976 -21.790  0.00  0.00    +0.024 C 
ATOM     26  C   UNL     1      32.077  -6.887 -23.955  0.00  0.00    +0.024 C 
ATOM     27  C   UNL     1      31.762  -7.755 -22.741  0.00  0.00    +0.164 C 
ATOM     28  C   UNL     1      34.198  -5.706 -23.210  0.00  0.00    -0.021 C 
ATOM     29  C   UNL     1      30.358  -4.773 -20.722  0.00  0.00    -0.021 C 
ATOM     30  C   UNL     1      32.563  -5.827 -20.294  0.00  0.00    -0.021 C 
ATOM     31  C   UNL     1      32.645  -4.603 -24.799  0.00  0.00    -0.021 C 
ATOM     32  H   UNL     1      32.571  -4.121 -22.138  0.00  0.00    -0.084 HD
ATOM     33  H   UNL     1      31.109  -4.541 -22.975  0.00  0.00    -0.084 HD
ENDBRANCH  21  27
ENDBRANCH   3  21
TORSDOF 5
ENDMDL
MODEL 4
REMARK VINA RESULT:     -11.6      1.324      2.593
REMARK  Name = 135565042
REMARK  5 active torsions:
REMARK  status: ('A' for Active; 'I' for Inactive)
REMARK    1  A    between atoms: C_3  and  O_21
REMARK    2  A    between atoms: C_6  and  C_7
REMARK    3  A    between atoms: C_8  and  O_19
REMARK    4  A    between atoms: C_10  and  C_15
REMARK    5  A    between atoms: O_21  and  C_27
REMARK                            x       y       z     vdW  Elec       q    Type
REMARK                         _______ _______ _______ _____ _____    ______ ____
ROOT
ATOM      1  N   UNL     1      33.406 -23.836 -16.958  0.00  0.00    -0.110 NA
ATOM      2  N   UNL     1      33.445 -22.956 -17.995  0.00  0.00    -0.145 NA
ATOM      3  C   UNL     1      34.194 -23.622 -15.883  0.00  0.00    +0.244 C 
ATOM      4  C   UNL     1      35.047 -22.542 -15.782  0.00  0.00    +0.061 C 
ATOM      5  C   UNL     1      35.087 -21.645 -16.836  0.00  0.00    +0.026 C 
ATOM      6  C   UNL     1      34.271 -21.890 -17.922  0.00  0.00    +0.106 C 
ENDROOT
BRANCH   6   7
ATOM      7  C   UNL     1      34.245 -21.009 -19.063  0.00  0.00    +0.053 C 
ATOM      8  C   UNL     1      33.036 -20.591 -19.618  0.00  0.00    +0.135 C 
ATOM      9  C   UNL     1      35.451 -20.573 -19.612  0.00  0.00    +0.005 C 
ATOM     10  C   UNL     1      34.238 -19.303 -21.270  0.00  0.00    +0.006 C 
ATOM     11  C   UNL     1      33.032 -19.738 -20.721  0.00  0.00    +0.037 C 
ATOM     12  C   UNL     1      35.449 -19.721 -20.715  0.00  0.00    +0.000 C 
BRANCH  10  15
ATOM     13  N   UNL     1      34.603 -16.681 -23.671  0.00  0.00    -0.235 N 
ATOM     14  N   UNL     1      33.899 -17.502 -24.469  0.00  0.00    -0.180 NA
ATOM     15  C   UNL     1      34.235 -18.423 -22.405  0.00  0.00    +0.037 C 
ATOM     16  C   UNL     1      34.831 -17.186 -22.425  0.00  0.00    +0.081 C 
ATOM     17  C   UNL     1      33.677 -18.565 -23.690  0.00  0.00    +0.119 C 
ATOM     18  H   UNL     1      34.924 -15.797 -23.960  0.00  0.00    +0.174 HD
ENDBRANCH  10  15
BRANCH   8  19
ATOM     19  O   UNL     1      31.842 -21.002 -19.102  0.00  0.00    -0.505 OA
ATOM     20  H   UNL     1      31.239 -20.372 -18.759  0.00  0.00    +0.292 HD
ENDBRANCH   8  19
ENDBRANCH   6   7
BRANCH   3  21
ATOM     21  O   UNL     1      34.124 -24.531 -14.862  0.00  0.00    -0.463 OA
BRANCH  21  27
ATOM     22  N   UNL     1      37.832 -23.726 -13.003  0.00  0.00    +0.389 N 
ATOM     23  C   UNL     1      36.629 -23.684 -12.160  0.00  0.00    -0.042 C 
ATOM     24  C   UNL     1      37.852 -24.607 -14.179  0.00  0.00    -0.042 C 
ATOM     25  C   UNL     1      35.334 -23.646 -12.994  0.00  0.00    +0.024 C 
ATOM     26  C   UNL     1      36.532 -24.552 -14.972  0.00  0.00    +0.024 C 
ATOM     27  C   UNL     1      35.303 -24.711 -14.083  0.00  0.00    +0.164 C 
ATOM     28  C   UNL     1      38.212 -26.056 -13.807  0.00  0.00    -0.021 C 
ATOM     29  C   UNL     1      36.726 -22.371 -11.356  0.00  0.00    -0.021 C 
ATOM     30  C   UNL     1      36.598 -24.839 -11.142  0.00  0.00    -0.021 C 
ATOM     31  C   UNL     1      38.983 -24.074 -15.083  0.00  0.00    -0.021 C 
ATOM     32  H   UNL     1      38.607 -24.011 -12.404  0.00  0.00    -0.084 HD
ATOM     33  H   UNL     1      37.882 -22.788 -13.401  0.00  0.00    -0.084 HD
ENDBRANCH  21  27
ENDBRANCH   3  21
TORSDOF 5
ENDMDL
MODEL 5
REMARK VINA RESULT:     -11.2      7.988     14.617
REMARK  Name = 135565042
REMARK  5 active torsions:
REMARK  status: ('A' for Active; 'I' for Inactive)
REMARK    1  A    between atoms: C_3  and  O_21
REMARK    2  A    between atoms: C_6  and  C_7
REMARK    3  A    between atoms: C_8  and  O_19
REMARK    4  A    between atoms: C_10  and  C_15
REMARK    5  A    between atoms: O_21  and  C_27
REMARK                            x       y       z     vdW  Elec       q    Type
REMARK                         _______ _______ _______ _____ _____    ______ ____
ROOT
ATOM      1  N   UNL     1      30.832 -11.088 -21.594  0.00  0.00    -0.110 NA
ATOM      2  N   UNL     1      31.502 -12.265 -21.462  0.00  0.00    -0.145 NA
ATOM      3  C   UNL     1      31.259 -10.187 -22.505  0.00  0.00    +0.244 C 
ATOM      4  C   UNL     1      32.352 -10.403 -23.318  0.00  0.00    +0.061 C 
ATOM      5  C   UNL     1      33.034 -11.600 -23.185  0.00  0.00    +0.026 C 
ATOM      6  C   UNL     1      32.576 -12.502 -22.245  0.00  0.00    +0.106 C 
ENDROOT
BRANCH   6   7
ATOM      7  C   UNL     1      33.222 -13.774 -22.040  0.00  0.00    +0.053 C 
ATOM      8  C   UNL     1      33.545 -14.596 -23.120  0.00  0.00    +0.135 C 
ATOM      9  C   UNL     1      33.525 -14.181 -20.740  0.00  0.00    +0.005 C 
ATOM     10  C   UNL     1      34.472 -16.229 -21.601  0.00  0.00    +0.006 C 
ATOM     11  C   UNL     1      34.170 -15.823 -22.901  0.00  0.00    +0.037 C 
ATOM     12  C   UNL     1      34.149 -15.408 -20.520  0.00  0.00    +0.000 C 
BRANCH  10  15
ATOM     13  N   UNL     1      36.658 -19.038 -21.278  0.00  0.00    -0.235 N 
ATOM     14  N   UNL     1      35.558 -19.665 -20.826  0.00  0.00    -0.180 NA
ATOM     15  C   UNL     1      35.117 -17.492 -21.375  0.00  0.00    +0.037 C 
ATOM     16  C   UNL     1      36.446 -17.735 -21.620  0.00  0.00    +0.081 C 
ATOM     17  C   UNL     1      34.620 -18.716 -20.887  0.00  0.00    +0.119 C 
ATOM     18  H   UNL     1      37.535 -19.479 -21.355  0.00  0.00    +0.174 HD
ENDBRANCH  10  15
BRANCH   8  19
ATOM     19  O   UNL     1      33.261 -14.224 -24.401  0.00  0.00    -0.505 OA
ATOM     20  H   UNL     1      33.875 -14.399 -25.086  0.00  0.00    +0.292 HD
ENDBRANCH   8  19
ENDBRANCH   6   7
BRANCH   3  21
ATOM     21  O   UNL     1      30.556  -9.017 -22.606  0.00  0.00    -0.463 OA
BRANCH  21  27
ATOM     22  N   UNL     1      32.498  -5.289 -23.035  0.00  0.00    +0.389 N 
ATOM     23  C   UNL     1      33.341  -6.492 -23.016  0.00  0.00    -0.042 C 
ATOM     24  C   UNL     1      31.122  -5.387 -23.540  0.00  0.00    -0.042 C 
ATOM     25  C   UNL     1      32.576  -7.732 -22.514  0.00  0.00    +0.024 C 
ATOM     26  C   UNL     1      30.401  -6.649 -23.029  0.00  0.00    +0.024 C 
ATOM     27  C   UNL     1      31.231  -7.915 -23.207  0.00  0.00    +0.164 C 
ATOM     28  C   UNL     1      31.064  -5.302 -25.076  0.00  0.00    -0.021 C 
ATOM     29  C   UNL     1      34.480  -6.191 -22.020  0.00  0.00    -0.021 C 
ATOM     30  C   UNL     1      33.994  -6.762 -24.384  0.00  0.00    -0.021 C 
ATOM     31  C   UNL     1      30.384  -4.149 -22.988  0.00  0.00    -0.021 C 
ATOM     32  H   UNL     1      32.979  -4.597 -23.611  0.00  0.00    -0.084 HD
ATOM     33  H   UNL     1      32.379  -5.060 -22.048  0.00  0.00    -0.084 HD
ENDBRANCH  21  27
ENDBRANCH   3  21
TORSDOF 5
ENDMDL
MODEL 6
REMARK VINA RESULT:     -10.9      1.864      2.970
REMARK  Name = 135565042
REMARK  5 active torsions:
REMARK  status: ('A' for Active; 'I' for Inactive)
REMARK    1  A    between atoms: C_3  and  O_21
REMARK    2  A    between atoms: C_6  and  C_7
REMARK    3  A    between atoms: C_8  and  O_19
REMARK    4  A    between atoms: C_10  and  C_15
REMARK    5  A    between atoms: O_21  and  C_27
REMARK                            x       y       z     vdW  Elec       q    Type
REMARK                         _______ _______ _______ _____ _____    ______ ____
ROOT
ATOM      1  N   UNL     1      37.295 -20.200 -16.877  0.00  0.00    -0.110 NA
ATOM      2  N   UNL     1      36.821 -19.599 -18.001  0.00  0.00    -0.145 NA
ATOM      3  C   UNL     1      36.824 -21.419 -16.534  0.00  0.00    +0.244 C 
ATOM      4  C   UNL     1      35.876 -22.092 -17.277  0.00  0.00    +0.061 C 
ATOM      5  C   UNL     1      35.394 -21.480 -18.421  0.00  0.00    +0.026 C 
ATOM      6  C   UNL     1      35.892 -20.235 -18.746  0.00  0.00    +0.106 C 
ENDROOT
BRANCH   6   7
ATOM      7  C   UNL     1      35.449 -19.526 -19.921  0.00  0.00    +0.053 C 
ATOM      8  C   UNL     1      34.155 -19.693 -20.412  0.00  0.00    +0.135 C 
ATOM      9  C   UNL     1      36.335 -18.664 -20.568  0.00  0.00    +0.005 C 
ATOM     10  C   UNL     1      34.631 -18.136 -22.197  0.00  0.00    +0.006 C 
ATOM     11  C   UNL     1      33.745 -18.998 -21.550  0.00  0.00    +0.037 C 
ATOM     12  C   UNL     1      35.927 -17.969 -21.706  0.00  0.00    +0.000 C 
BRANCH  10  15
ATOM     13  N   UNL     1      33.926 -15.805 -24.812  0.00  0.00    -0.235 N 
ATOM     14  N   UNL     1      33.280 -16.841 -25.372  0.00  0.00    -0.180 NA
ATOM     15  C   UNL     1      34.210 -17.419 -23.368  0.00  0.00    +0.037 C 
ATOM     16  C   UNL     1      34.501 -16.099 -23.611  0.00  0.00    +0.081 C 
ATOM     17  C   UNL     1      33.456 -17.825 -24.486  0.00  0.00    +0.119 C 
ATOM     18  H   UNL     1      33.980 -14.915 -25.231  0.00  0.00    +0.174 HD
ENDBRANCH  10  15
BRANCH   8  19
ATOM     19  O   UNL     1      33.268 -20.528 -19.800  0.00  0.00    -0.505 OA
ATOM     20  H   UNL     1      32.982 -20.348 -18.926  0.00  0.00    +0.292 HD
ENDBRANCH   8  19
ENDBRANCH   6   7
BRANCH   3  21
ATOM     21  O   UNL     1      37.328 -21.989 -15.397  0.00  0.00    -0.463 OA
BRANCH  21  27
ATOM     22  N   UNL     1      36.173 -25.094 -12.775  0.00  0.00    +0.389 N 
ATOM     23  C   UNL     1      35.442 -23.823 -12.681  0.00  0.00    -0.042 C 
ATOM     24  C   UNL     1      36.757 -25.491 -14.063  0.00  0.00    -0.042 C 
ATOM     25  C   UNL     1      36.163 -22.680 -13.421  0.00  0.00    +0.024 C 
ATOM     26  C   UNL     1      37.451 -24.315 -14.776  0.00  0.00    +0.024 C 
ATOM     27  C   UNL     1      36.581 -23.065 -14.835  0.00  0.00    +0.164 C 
ATOM     28  C   UNL     1      35.721 -26.161 -14.984  0.00  0.00    -0.021 C 
ATOM     29  C   UNL     1      35.397 -23.475 -11.179  0.00  0.00    -0.021 C 
ATOM     30  C   UNL     1      33.984 -23.959 -13.160  0.00  0.00    -0.021 C 
ATOM     31  C   UNL     1      37.824 -26.555 -13.730  0.00  0.00    -0.021 C 
ATOM     32  H   UNL     1      35.524 -25.833 -12.502  0.00  0.00    -0.084 HD
ATOM     33  H   UNL     1      36.984 -24.953 -12.173  0.00  0.00    -0.084 HD
ENDBRANCH  21  27
ENDBRANCH   3  21
TORSDOF 5
ENDMDL
MODEL 7
REMARK VINA RESULT:     -10.5      1.923      2.540
REMARK  Name = 135565042
REMARK  5 active torsions:
REMARK  status: ('A' for Active; 'I' for Inactive)
REMARK    1  A    between atoms: C_3  and  O_21
REMARK    2  A    between atoms: C_6  and  C_7
REMARK    3  A    between atoms: C_8  and  O_19
REMARK    4  A    between atoms: C_10  and  C_15
REMARK    5  A    between atoms: O_21  and  C_27
REMARK                            x       y       z     vdW  Elec       q    Type
REMARK                         _______ _______ _______ _____ _____    ______ ____
ROOT
ATOM      1  N   UNL     1      37.430 -20.298 -16.481  0.00  0.00    -0.110 NA
ATOM      2  N   UNL     1      36.913 -19.787 -17.630  0.00  0.00    -0.145 NA
ATOM      3  C   UNL     1      37.036 -21.523 -16.070  0.00  0.00    +0.244 C 
ATOM      4  C   UNL     1      36.124 -22.290 -16.767  0.00  0.00    +0.061 C 
ATOM      5  C   UNL     1      35.598 -21.770 -17.936  0.00  0.00    +0.026 C 
ATOM      6  C   UNL     1      36.019 -20.516 -18.331  0.00  0.00    +0.106 C 
ENDROOT
BRANCH   6   7
ATOM      7  C   UNL     1      35.526 -19.897 -19.537  0.00  0.00    +0.053 C 
ATOM      8  C   UNL     1      34.225 -20.131 -19.981  0.00  0.00    +0.135 C 
ATOM      9  C   UNL     1      36.370 -19.056 -20.262  0.00  0.00    +0.005 C 
ATOM     10  C   UNL     1      34.611 -18.682 -21.875  0.00  0.00    +0.006 C 
ATOM     11  C   UNL     1      33.767 -19.524 -21.150  0.00  0.00    +0.037 C 
ATOM     12  C   UNL     1      35.913 -18.449 -21.431  0.00  0.00    +0.000 C 
BRANCH  10  15
ATOM     13  N   UNL     1      33.767 -16.546 -24.613  0.00  0.00    -0.235 N 
ATOM     14  N   UNL     1      33.147 -17.638 -25.093  0.00  0.00    -0.180 NA
ATOM     15  C   UNL     1      34.139 -18.056 -23.078  0.00  0.00    +0.037 C 
ATOM     16  C   UNL     1      34.377 -16.744 -23.409  0.00  0.00    +0.081 C 
ATOM     17  C   UNL     1      33.378 -18.557 -24.152  0.00  0.00    +0.119 C 
ATOM     18  H   UNL     1      33.780 -15.683 -25.087  0.00  0.00    +0.174 HD
ENDBRANCH  10  15
BRANCH   8  19
ATOM     19  O   UNL     1      33.378 -20.949 -19.292  0.00  0.00    -0.505 OA
ATOM     20  H   UNL     1      32.512 -21.103 -19.613  0.00  0.00    +0.292 HD
ENDBRANCH   8  19
ENDBRANCH   6   7
BRANCH   3  21
ATOM     21  O   UNL     1      37.580 -22.002 -14.909  0.00  0.00    -0.463 OA
BRANCH  21  27
ATOM     22  N   UNL     1      34.811 -25.096 -14.130  0.00  0.00    +0.389 N 
ATOM     23  C   UNL     1      36.232 -25.462 -14.205  0.00  0.00    -0.042 C 
ATOM     24  C   UNL     1      34.444 -23.744 -13.687  0.00  0.00    -0.042 C 
ATOM     25  C   UNL     1      37.090 -24.345 -14.827  0.00  0.00    +0.024 C 
ATOM     26  C   UNL     1      35.338 -22.659 -14.318  0.00  0.00    +0.024 C 
ATOM     27  C   UNL     1      36.824 -22.981 -14.203  0.00  0.00    +0.164 C 
ATOM     28  C   UNL     1      34.430 -23.623 -12.153  0.00  0.00    -0.021 C 
ATOM     29  C   UNL     1      36.298 -26.696 -15.131  0.00  0.00    -0.021 C 
ATOM     30  C   UNL     1      36.791 -25.892 -12.836  0.00  0.00    -0.021 C 
ATOM     31  C   UNL     1      32.996 -23.523 -14.174  0.00  0.00    -0.021 C 
ATOM     32  H   UNL     1      34.368 -25.751 -13.486  0.00  0.00    -0.084 HD
ATOM     33  H   UNL     1      34.500 -25.127 -15.100  0.00  0.00    -0.084 HD
ENDBRANCH  21  27
ENDBRANCH   3  21
TORSDOF 5
ENDMDL
MODEL 8
REMARK VINA RESULT:     -10.5      7.902     14.169
REMARK  Name = 135565042
REMARK  5 active torsions:
REMARK  status: ('A' for Active; 'I' for Inactive)
REMARK    1  A    between atoms: C_3  and  O_21
REMARK    2  A    between atoms: C_6  and  C_7
REMARK    3  A    between atoms: C_8  and  O_19
REMARK    4  A    between atoms: C_10  and  C_15
REMARK    5  A    between atoms: O_21  and  C_27
REMARK                            x       y       z     vdW  Elec       q    Type
REMARK                         _______ _______ _______ _____ _____    ______ ____
ROOT
ATOM      1  N   UNL     1      30.651 -10.914 -21.859  0.00  0.00    -0.110 NA
ATOM      2  N   UNL     1      31.333 -12.078 -21.690  0.00  0.00    -0.145 NA
ATOM      3  C   UNL     1      31.114 -10.000 -22.740  0.00  0.00    +0.244 C 
ATOM      4  C   UNL     1      32.259 -10.192 -23.485  0.00  0.00    +0.061 C 
ATOM      5  C   UNL     1      32.954 -11.377 -23.314  0.00  0.00    +0.026 C 
ATOM      6  C   UNL     1      32.457 -12.291 -22.407  0.00  0.00    +0.106 C 
ENDROOT
BRANCH   6   7
ATOM      7  C   UNL     1      33.114 -13.552 -22.166  0.00  0.00    +0.053 C 
ATOM      8  C   UNL     1      33.349 -14.447 -23.209  0.00  0.00    +0.135 C 
ATOM      9  C   UNL     1      33.516 -13.872 -20.869  0.00  0.00    +0.005 C 
ATOM     10  C   UNL     1      34.388 -15.982 -21.659  0.00  0.00    +0.006 C 
ATOM     11  C   UNL     1      33.986 -15.662 -22.957  0.00  0.00    +0.037 C 
ATOM     12  C   UNL     1      34.152 -15.086 -20.615  0.00  0.00    +0.000 C 
BRANCH  10  15
ATOM     13  N   UNL     1      36.575 -18.789 -21.341  0.00  0.00    -0.235 N 
ATOM     14  N   UNL     1      35.529 -19.358 -20.718  0.00  0.00    -0.180 NA
ATOM     15  C   UNL     1      35.044 -17.232 -21.399  0.00  0.00    +0.037 C 
ATOM     16  C   UNL     1      36.336 -17.516 -21.768  0.00  0.00    +0.081 C 
ATOM     17  C   UNL     1      34.597 -18.402 -20.756  0.00  0.00    +0.119 C 
ATOM     18  H   UNL     1      37.435 -19.250 -21.476  0.00  0.00    +0.174 HD
ENDBRANCH  10  15
BRANCH   8  19
ATOM     19  O   UNL     1      32.967 -14.160 -24.487  0.00  0.00    -0.505 OA
ATOM     20  H   UNL     1      32.106 -14.387 -24.780  0.00  0.00    +0.292 HD
ENDBRANCH   8  19
ENDBRANCH   6   7
BRANCH   3  21
ATOM     21  O   UNL     1      30.397  -8.843 -22.880  0.00  0.00    -0.463 OA
BRANCH  21  27
ATOM     22  N   UNL     1      33.351  -6.178 -21.457  0.00  0.00    +0.389 N 
ATOM     23  C   UNL     1      33.308  -6.430 -22.903  0.00  0.00    -0.042 C 
ATOM     24  C   UNL     1      32.110  -6.280 -20.675  0.00  0.00    -0.042 C 
ATOM     25  C   UNL     1      32.443  -7.656 -23.256  0.00  0.00    +0.024 C 
ATOM     26  C   UNL     1      31.269  -7.508 -21.073  0.00  0.00    +0.024 C 
ATOM     27  C   UNL     1      31.078  -7.628 -22.581  0.00  0.00    +0.164 C 
ATOM     28  C   UNL     1      31.274  -4.990 -20.751  0.00  0.00    -0.021 C 
ATOM     29  C   UNL     1      34.763  -6.728 -23.321  0.00  0.00    -0.021 C 
ATOM     30  C   UNL     1      32.855  -5.188 -23.693  0.00  0.00    -0.021 C 
ATOM     31  C   UNL     1      32.553  -6.450 -19.207  0.00  0.00    -0.021 C 
ATOM     32  H   UNL     1      33.707  -5.231 -21.329  0.00  0.00    -0.084 HD
ATOM     33  H   UNL     1      33.929  -6.937 -21.095  0.00  0.00    -0.084 HD
ENDBRANCH  21  27
ENDBRANCH   3  21
TORSDOF 5
ENDMDL
MODEL 9
REMARK VINA RESULT:     -10.2      1.781      2.719
REMARK  Name = 135565042
REMARK  5 active torsions:
REMARK  status: ('A' for Active; 'I' for Inactive)
REMARK    1  A    between atoms: C_3  and  O_21
REMARK    2  A    between atoms: C_6  and  C_7
REMARK    3  A    between atoms: C_8  and  O_19
REMARK    4  A    between atoms: C_10  and  C_15
REMARK    5  A    between atoms: O_21  and  C_27
REMARK                            x       y       z     vdW  Elec       q    Type
REMARK                         _______ _______ _______ _____ _____    ______ ____
ROOT
ATOM      1  N   UNL     1      34.569 -22.846 -17.548  0.00  0.00    -0.110 NA
ATOM      2  N   UNL     1      34.415 -21.940 -18.552  0.00  0.00    -0.145 NA
ATOM      3  C   UNL     1      35.625 -22.732 -16.715  0.00  0.00    +0.244 C 
ATOM      4  C   UNL     1      36.568 -21.731 -16.832  0.00  0.00    +0.061 C 
ATOM      5  C   UNL     1      36.412 -20.809 -17.852  0.00  0.00    +0.026 C 
ATOM      6  C   UNL     1      35.323 -20.951 -18.689  0.00  0.00    +0.106 C 
ENDROOT
BRANCH   6   7
ATOM      7  C   UNL     1      35.081 -20.035 -19.776  0.00  0.00    +0.053 C 
ATOM      8  C   UNL     1      33.806 -19.896 -20.325  0.00  0.00    +0.135 C 
ATOM      9  C   UNL     1      36.142 -19.283 -20.280  0.00  0.00    +0.005 C 
ATOM     10  C   UNL     1      34.653 -18.253 -21.880  0.00  0.00    +0.006 C 
ATOM     11  C   UNL     1      33.592 -19.005 -21.376  0.00  0.00    +0.037 C 
ATOM     12  C   UNL     1      35.929 -18.392 -21.331  0.00  0.00    +0.000 C 
BRANCH  10  15
ATOM     13  N   UNL     1      34.382 -15.486 -24.125  0.00  0.00    -0.235 N 
ATOM     14  N   UNL     1      33.860 -16.397 -24.964  0.00  0.00    -0.180 NA
ATOM     15  C   UNL     1      34.433 -17.334 -22.961  0.00  0.00    +0.037 C 
ATOM     16  C   UNL     1      34.741 -15.997 -22.912  0.00  0.00    +0.081 C 
ATOM     17  C   UNL     1      33.894 -17.524 -24.248  0.00  0.00    +0.119 C 
ATOM     18  H   UNL     1      34.495 -14.538 -24.364  0.00  0.00    +0.174 HD
ENDBRANCH  10  15
BRANCH   8  19
ATOM     19  O   UNL     1      32.750 -20.619 -19.852  0.00  0.00    -0.505 OA
ATOM     20  H   UNL     1      32.288 -20.328 -19.090  0.00  0.00    +0.292 HD
ENDBRANCH   8  19
ENDBRANCH   6   7
BRANCH   3  21
ATOM     21  O   UNL     1      35.742 -23.663 -15.718  0.00  0.00    -0.463 OA
BRANCH  21  27
ATOM     22  N   UNL     1      33.586 -24.320 -12.145  0.00  0.00    +0.389 N 
ATOM     23  C   UNL     1      35.005 -23.959 -12.022  0.00  0.00    -0.042 C 
ATOM     24  C   UNL     1      32.824 -23.841 -13.306  0.00  0.00    -0.042 C 
ATOM     25  C   UNL     1      35.757 -24.086 -13.361  0.00  0.00    +0.024 C 
ATOM     26  C   UNL     1      33.619 -23.970 -14.620  0.00  0.00    +0.024 C 
ATOM     27  C   UNL     1      35.030 -23.402 -14.512  0.00  0.00    +0.164 C 
ATOM     28  C   UNL     1      32.314 -22.402 -13.108  0.00  0.00    -0.021 C 
ATOM     29  C   UNL     1      35.611 -24.972 -11.029  0.00  0.00    -0.021 C 
ATOM     30  C   UNL     1      35.194 -22.557 -11.413  0.00  0.00    -0.021 C 
ATOM     31  C   UNL     1      31.584 -24.755 -13.399  0.00  0.00    -0.021 C 
ATOM     32  H   UNL     1      33.115 -23.965 -11.312  0.00  0.00    -0.084 HD
ATOM     33  H   UNL     1      33.603 -25.332 -12.265  0.00  0.00    -0.084 HD
ENDBRANCH  21  27
ENDBRANCH   3  21
TORSDOF 5
ENDMDL
