MODEL 1
REMARK VINA RESULT:     -11.3      0.000      0.000
REMARK  Name = 160254
REMARK  0 active torsions:
REMARK  status: ('A' for Active; 'I' for Inactive)
REMARK                            x       y       z     vdW  Elec       q    Type
REMARK                         _______ _______ _______ _____ _____    ______ ____
ROOT
ATOM      1  O   UNL     1      36.474 -20.208 -19.367  0.00  0.00    -0.475 OA
ATOM      2  O   UNL     1      32.061 -22.404 -17.123  0.00  0.00    -0.283 OA
ATOM      3  O   UNL     1      32.092 -21.736 -19.692  0.00  0.00    -0.283 OA
ATOM      4  C   UNL     1      36.061 -23.463 -13.599  0.00  0.00    +0.019 C 
ATOM      5  C   UNL     1      34.728 -23.893 -12.943  0.00  0.00    +0.004 C 
ATOM      6  C   UNL     1      35.835 -22.794 -14.965  0.00  0.00    -0.027 C 
ATOM      7  C   UNL     1      34.592 -22.857 -15.647  0.00  0.00    -0.023 C 
ATOM      8  C   UNL     1      33.814 -24.589 -13.932  0.00  0.00    +0.005 C 
ATOM      9  C   UNL     1      33.434 -23.625 -15.047  0.00  0.00    +0.026 C 
ATOM     10  C   UNL     1      34.449 -22.175 -16.888  0.00  0.00    +0.041 C 
ATOM     11  C   UNL     1      36.751 -22.503 -12.600  0.00  0.00    +0.004 C 
ATOM     12  C   UNL     1      36.968 -24.699 -13.792  0.00  0.00    +0.004 C 
ATOM     13  C   UNL     1      35.545 -21.513 -17.481  0.00  0.00    +0.037 C 
ATOM     14  C   UNL     1      36.910 -22.125 -15.581  0.00  0.00    -0.004 C 
ATOM     15  C   UNL     1      35.396 -20.852 -18.775  0.00  0.00    +0.138 C 
ATOM     16  C   UNL     1      34.284 -20.872 -19.498  0.00  0.00    +0.057 C 
ATOM     17  C   UNL     1      34.504 -20.186 -20.787  0.00  0.00    +0.072 C 
ATOM     18  C   UNL     1      36.771 -21.501 -16.817  0.00  0.00    +0.003 C 
ATOM     19  C   UNL     1      33.138 -22.098 -17.610  0.00  0.00    +0.234 C 
ATOM     20  C   UNL     1      35.881 -19.555 -20.512  0.00  0.00    +0.210 C 
ATOM     21  C   UNL     1      33.097 -21.570 -19.022  0.00  0.00    +0.233 C 
ATOM     22  C   UNL     1      33.463 -19.139 -21.156  0.00  0.00    +0.009 C 
ENDROOT
TORSDOF 0
ENDMDL
MODEL 2
REMARK VINA RESULT:     -10.7      2.710      5.266
REMARK  Name = 160254
REMARK  0 active torsions:
REMARK  status: ('A' for Active; 'I' for Inactive)
REMARK                            x       y       z     vdW  Elec       q    Type
REMARK                         _______ _______ _______ _____ _____    ______ ____
ROOT
ATOM      1  O   UNL     1      30.342 -24.404 -13.259  0.00  0.00    -0.475 OA
ATOM      2  O   UNL     1      33.073 -22.261 -17.416  0.00  0.00    -0.283 OA
ATOM      3  O   UNL     1      30.449 -21.922 -17.193  0.00  0.00    -0.283 OA
ATOM      4  C   UNL     1      36.897 -23.501 -13.758  0.00  0.00    +0.019 C 
ATOM      5  C   UNL     1      37.611 -23.056 -15.056  0.00  0.00    +0.004 C 
ATOM      6  C   UNL     1      35.370 -23.550 -13.936  0.00  0.00    -0.027 C 
ATOM      7  C   UNL     1      34.714 -22.963 -15.049  0.00  0.00    -0.023 C 
ATOM      8  C   UNL     1      36.931 -21.859 -15.690  0.00  0.00    +0.005 C 
ATOM      9  C   UNL     1      35.515 -22.232 -16.105  0.00  0.00    +0.026 C 
ATOM     10  C   UNL     1      33.301 -23.089 -15.164  0.00  0.00    +0.041 C 
ATOM     11  C   UNL     1      37.474 -24.889 -13.395  0.00  0.00    +0.004 C 
ATOM     12  C   UNL     1      37.235 -22.518 -12.615  0.00  0.00    +0.004 C 
ATOM     13  C   UNL     1      32.544 -23.713 -14.149  0.00  0.00    +0.037 C 
ATOM     14  C   UNL     1      34.590 -24.167 -12.941  0.00  0.00    -0.004 C 
ATOM     15  C   UNL     1      31.090 -23.799 -14.259  0.00  0.00    +0.138 C 
ATOM     16  C   UNL     1      30.386 -23.265 -15.249  0.00  0.00    +0.057 C 
ATOM     17  C   UNL     1      28.942 -23.458 -15.004  0.00  0.00    +0.072 C 
ATOM     18  C   UNL     1      33.203 -24.243 -13.040  0.00  0.00    +0.003 C 
ATOM     19  C   UNL     1      32.550 -22.598 -16.366  0.00  0.00    +0.234 C 
ATOM     20  C   UNL     1      29.009 -24.438 -13.819  0.00  0.00    +0.210 C 
ATOM     21  C   UNL     1      31.044 -22.545 -16.330  0.00  0.00    +0.233 C 
ATOM     22  C   UNL     1      28.153 -24.034 -16.172  0.00  0.00    +0.009 C 
ENDROOT
TORSDOF 0
ENDMDL
MODEL 3
REMARK VINA RESULT:     -10.3      2.051      7.014
REMARK  Name = 160254
REMARK  0 active torsions:
REMARK  status: ('A' for Active; 'I' for Inactive)
REMARK                            x       y       z     vdW  Elec       q    Type
REMARK                         _______ _______ _______ _____ _____    ______ ____
ROOT
ATOM      1  O   UNL     1      31.351 -22.207 -17.893  0.00  0.00    -0.475 OA
ATOM      2  O   UNL     1      36.559 -20.723 -17.799  0.00  0.00    -0.283 OA
ATOM      3  O   UNL     1      35.694 -22.745 -16.312  0.00  0.00    -0.283 OA
ATOM      4  C   UNL     1      34.552 -18.391 -22.279  0.00  0.00    +0.019 C 
ATOM      5  C   UNL     1      35.990 -17.862 -22.075  0.00  0.00    +0.004 C 
ATOM      6  C   UNL     1      34.113 -19.308 -21.125  0.00  0.00    -0.027 C 
ATOM      7  C   UNL     1      35.030 -19.831 -20.177  0.00  0.00    -0.023 C 
ATOM      8  C   UNL     1      36.939 -18.964 -21.644  0.00  0.00    +0.005 C 
ATOM      9  C   UNL     1      36.506 -19.514 -20.293  0.00  0.00    +0.026 C 
ATOM     10  C   UNL     1      34.540 -20.638 -19.113  0.00  0.00    +0.041 C 
ATOM     11  C   UNL     1      33.640 -17.146 -22.397  0.00  0.00    +0.004 C 
ATOM     12  C   UNL     1      34.470 -19.181 -23.604  0.00  0.00    +0.004 C 
ATOM     13  C   UNL     1      33.175 -20.989 -19.038  0.00  0.00    +0.037 C 
ATOM     14  C   UNL     1      32.757 -19.674 -21.025  0.00  0.00    -0.004 C 
ATOM     15  C   UNL     1      32.691 -21.852 -17.964  0.00  0.00    +0.138 C 
ATOM     16  C   UNL     1      33.472 -22.405 -17.045  0.00  0.00    +0.057 C 
ATOM     17  C   UNL     1      32.676 -23.287 -16.168  0.00  0.00    +0.072 C 
ATOM     18  C   UNL     1      32.296 -20.503 -20.006  0.00  0.00    +0.003 C 
ATOM     19  C   UNL     1      35.428 -21.130 -18.009  0.00  0.00    +0.234 C 
ATOM     20  C   UNL     1      31.259 -22.899 -16.627  0.00  0.00    +0.210 C 
ATOM     21  C   UNL     1      34.909 -22.166 -17.044  0.00  0.00    +0.233 C 
ATOM     22  C   UNL     1      32.869 -23.070 -14.674  0.00  0.00    +0.009 C 
ENDROOT
TORSDOF 0
ENDMDL
MODEL 4
REMARK VINA RESULT:     -10.2      2.288      6.787
REMARK  Name = 160254
REMARK  0 active torsions:
REMARK  status: ('A' for Active; 'I' for Inactive)
REMARK                            x       y       z     vdW  Elec       q    Type
REMARK                         _______ _______ _______ _____ _____    ______ ____
ROOT
ATOM      1  O   UNL     1      33.399 -24.054 -12.884  0.00  0.00    -0.475 OA
ATOM      2  O   UNL     1      37.460 -21.450 -15.345  0.00  0.00    -0.283 OA
ATOM      3  O   UNL     1      37.892 -22.875 -13.148  0.00  0.00    -0.283 OA
ATOM      4  C   UNL     1      33.488 -21.606 -19.051  0.00  0.00    +0.019 C 
ATOM      5  C   UNL     1      34.619 -20.711 -19.609  0.00  0.00    +0.004 C 
ATOM      6  C   UNL     1      33.787 -22.076 -17.618  0.00  0.00    -0.027 C 
ATOM      7  C   UNL     1      35.072 -21.951 -17.028  0.00  0.00    -0.023 C 
ATOM      8  C   UNL     1      35.989 -21.295 -19.325  0.00  0.00    +0.005 C 
ATOM      9  C   UNL     1      36.218 -21.360 -17.822  0.00  0.00    +0.026 C 
ATOM     10  C   UNL     1      35.258 -22.371 -15.682  0.00  0.00    +0.041 C 
ATOM     11  C   UNL     1      32.191 -20.763 -19.117  0.00  0.00    +0.004 C 
ATOM     12  C   UNL     1      33.309 -22.844 -19.957  0.00  0.00    +0.004 C 
ATOM     13  C   UNL     1      34.209 -22.981 -14.961  0.00  0.00    +0.037 C 
ATOM     14  C   UNL     1      32.760 -22.687 -16.875  0.00  0.00    -0.004 C 
ATOM     15  C   UNL     1      34.425 -23.445 -13.593  0.00  0.00    +0.138 C 
ATOM     16  C   UNL     1      35.592 -23.390 -12.964  0.00  0.00    +0.057 C 
ATOM     17  C   UNL     1      35.481 -24.024 -11.635  0.00  0.00    +0.072 C 
ATOM     18  C   UNL     1      32.966 -23.137 -15.573  0.00  0.00    +0.003 C 
ATOM     19  C   UNL     1      36.552 -22.165 -14.953  0.00  0.00    +0.234 C 
ATOM     20  C   UNL     1      33.954 -24.197 -11.557  0.00  0.00    +0.210 C 
ATOM     21  C   UNL     1      36.768 -22.834 -13.619  0.00  0.00    +0.233 C 
ATOM     22  C   UNL     1      36.019 -23.202 -10.472  0.00  0.00    +0.009 C 
ENDROOT
TORSDOF 0
ENDMDL
MODEL 5
REMARK VINA RESULT:     -10.2      3.123      5.557
REMARK  Name = 160254
REMARK  0 active torsions:
REMARK  status: ('A' for Active; 'I' for Inactive)
REMARK                            x       y       z     vdW  Elec       q    Type
REMARK                         _______ _______ _______ _____ _____    ______ ____
ROOT
ATOM      1  O   UNL     1      35.099 -21.655 -17.401  0.00  0.00    -0.475 OA
ATOM      2  O   UNL     1      33.980 -24.219 -12.764  0.00  0.00    -0.283 OA
ATOM      3  O   UNL     1      36.305 -22.985 -13.108  0.00  0.00    -0.283 OA
ATOM      4  C   UNL     1      29.157 -23.624 -15.199  0.00  0.00    +0.019 C 
ATOM      5  C   UNL     1      28.950 -24.517 -13.953  0.00  0.00    +0.004 C 
ATOM      6  C   UNL     1      30.640 -23.277 -15.412  0.00  0.00    -0.027 C 
ATOM      7  C   UNL     1      31.625 -23.497 -14.413  0.00  0.00    -0.023 C 
ATOM      8  C   UNL     1      29.740 -24.011 -12.762  0.00  0.00    +0.005 C 
ATOM      9  C   UNL     1      31.229 -24.070 -13.068  0.00  0.00    +0.026 C 
ATOM     10  C   UNL     1      32.983 -23.190 -14.702  0.00  0.00    +0.041 C 
ATOM     11  C   UNL     1      28.576 -24.407 -16.400  0.00  0.00    +0.004 C 
ATOM     12  C   UNL     1      28.356 -22.313 -15.039  0.00  0.00    +0.004 C 
ATOM     13  C   UNL     1      33.347 -22.596 -15.930  0.00  0.00    +0.037 C 
ATOM     14  C   UNL     1      31.032 -22.685 -16.627  0.00  0.00    -0.004 C 
ATOM     15  C   UNL     1      34.740 -22.247 -16.198  0.00  0.00    +0.138 C 
ATOM     16  C   UNL     1      35.726 -22.396 -15.324  0.00  0.00    +0.057 C 
ATOM     17  C   UNL     1      36.984 -21.862 -15.883  0.00  0.00    +0.072 C 
ATOM     18  C   UNL     1      32.358 -22.345 -16.881  0.00  0.00    +0.003 C 
ATOM     19  C   UNL     1      34.094 -23.501 -13.744  0.00  0.00    +0.234 C 
ATOM     20  C   UNL     1      36.544 -21.636 -17.341  0.00  0.00    +0.210 C 
ATOM     21  C   UNL     1      35.473 -22.945 -13.999  0.00  0.00    +0.233 C 
ATOM     22  C   UNL     1      38.186 -22.791 -15.791  0.00  0.00    +0.009 C 
ENDROOT
TORSDOF 0
ENDMDL
MODEL 6
REMARK VINA RESULT:      -9.9      1.332      2.095
REMARK  Name = 160254
REMARK  0 active torsions:
REMARK  status: ('A' for Active; 'I' for Inactive)
REMARK                            x       y       z     vdW  Elec       q    Type
REMARK                         _______ _______ _______ _____ _____    ______ ____
ROOT
ATOM      1  O   UNL     1      36.711 -19.651 -20.434  0.00  0.00    -0.475 OA
ATOM      2  O   UNL     1      31.587 -20.683 -19.014  0.00  0.00    -0.283 OA
ATOM      3  O   UNL     1      32.173 -19.813 -21.453  0.00  0.00    -0.283 OA
ATOM      4  C   UNL     1      34.586 -23.180 -15.232  0.00  0.00    +0.019 C 
ATOM      5  C   UNL     1      33.105 -23.267 -14.793  0.00  0.00    +0.004 C 
ATOM      6  C   UNL     1      34.753 -22.348 -16.513  0.00  0.00    -0.027 C 
ATOM      7  C   UNL     1      33.654 -21.985 -17.335  0.00  0.00    -0.023 C 
ATOM      8  C   UNL     1      32.190 -23.573 -15.963  0.00  0.00    +0.005 C 
ATOM      9  C   UNL     1      32.255 -22.439 -16.976  0.00  0.00    +0.026 C 
ATOM     10  C   UNL     1      33.886 -21.176 -18.482  0.00  0.00    +0.041 C 
ATOM     11  C   UNL     1      35.358 -22.559 -14.043  0.00  0.00    +0.004 C 
ATOM     12  C   UNL     1      35.139 -24.600 -15.482  0.00  0.00    +0.004 C 
ATOM     13  C   UNL     1      35.195 -20.805 -18.855  0.00  0.00    +0.037 C 
ATOM     14  C   UNL     1      36.048 -21.962 -16.910  0.00  0.00    -0.004 C 
ATOM     15  C   UNL     1      35.423 -20.010 -20.059  0.00  0.00    +0.138 C 
ATOM     16  C   UNL     1      34.465 -19.639 -20.899  0.00  0.00    +0.057 C 
ATOM     17  C   UNL     1      35.051 -18.927 -22.053  0.00  0.00    +0.072 C 
ATOM     18  C   UNL     1      36.268 -21.210 -18.061  0.00  0.00    +0.003 C 
ATOM     19  C   UNL     1      32.765 -20.656 -19.332  0.00  0.00    +0.234 C 
ATOM     20  C   UNL     1      36.492 -18.749 -21.543  0.00  0.00    +0.210 C 
ATOM     21  C   UNL     1      33.077 -20.007 -20.657  0.00  0.00    +0.233 C 
ATOM     22  C   UNL     1      34.401 -17.594 -22.395  0.00  0.00    +0.009 C 
ENDROOT
TORSDOF 0
ENDMDL
MODEL 7
REMARK VINA RESULT:      -9.8      8.129     11.965
REMARK  Name = 160254
REMARK  0 active torsions:
REMARK  status: ('A' for Active; 'I' for Inactive)
REMARK                            x       y       z     vdW  Elec       q    Type
REMARK                         _______ _______ _______ _____ _____    ______ ____
ROOT
ATOM      1  O   UNL     1      34.054 -14.514 -24.667  0.00  0.00    -0.475 OA
ATOM      2  O   UNL     1      32.501 -13.970 -19.507  0.00  0.00    -0.283 OA
ATOM      3  O   UNL     1      34.170 -15.905 -20.228  0.00  0.00    -0.283 OA
ATOM      4  C   UNL     1      31.220  -9.227 -21.830  0.00  0.00    +0.019 C 
ATOM      5  C   UNL     1      30.636  -9.224 -20.398  0.00  0.00    +0.004 C 
ATOM      6  C   UNL     1      31.874 -10.575 -22.177  0.00  0.00    -0.027 C 
ATOM      7  C   UNL     1      32.166 -11.555 -21.193  0.00  0.00    -0.023 C 
ATOM      8  C   UNL     1      31.604  -9.822 -19.396  0.00  0.00    +0.005 C 
ATOM      9  C   UNL     1      31.858 -11.284 -19.735  0.00  0.00    +0.026 C 
ATOM     10  C   UNL     1      32.733 -12.795 -21.599  0.00  0.00    +0.041 C 
ATOM     11  C   UNL     1      30.044  -8.902 -22.783  0.00  0.00    +0.004 C 
ATOM     12  C   UNL     1      32.278  -8.109 -21.964  0.00  0.00    +0.004 C 
ATOM     13  C   UNL     1      33.082 -13.026 -22.947  0.00  0.00    +0.037 C 
ATOM     14  C   UNL     1      32.232 -10.833 -23.514  0.00  0.00    -0.004 C 
ATOM     15  C   UNL     1      33.702 -14.287 -23.344  0.00  0.00    +0.138 C 
ATOM     16  C   UNL     1      34.031 -15.254 -22.497  0.00  0.00    +0.057 C 
ATOM     17  C   UNL     1      34.717 -16.346 -23.216  0.00  0.00    +0.072 C 
ATOM     18  C   UNL     1      32.829 -12.032 -23.892  0.00  0.00    +0.003 C 
ATOM     19  C   UNL     1      32.962 -13.922 -20.636  0.00  0.00    +0.234 C 
ATOM     20  C   UNL     1      34.459 -15.903 -24.668  0.00  0.00    +0.210 C 
ATOM     21  C   UNL     1      33.775 -15.115 -21.070  0.00  0.00    +0.233 C 
ATOM     22  C   UNL     1      34.181 -17.744 -22.946  0.00  0.00    +0.009 C 
ENDROOT
TORSDOF 0
ENDMDL
MODEL 8
REMARK VINA RESULT:      -9.6      1.524      6.147
REMARK  Name = 160254
REMARK  0 active torsions:
REMARK  status: ('A' for Active; 'I' for Inactive)
REMARK                            x       y       z     vdW  Elec       q    Type
REMARK                         _______ _______ _______ _____ _____    ______ ____
ROOT
ATOM      1  O   UNL     1      37.241 -22.247 -15.977  0.00  0.00    -0.475 OA
ATOM      2  O   UNL     1      32.176 -22.773 -17.819  0.00  0.00    -0.283 OA
ATOM      3  O   UNL     1      32.819 -23.557 -15.366  0.00  0.00    -0.283 OA
ATOM      4  C   UNL     1      34.519 -19.259 -21.240  0.00  0.00    +0.019 C 
ATOM      5  C   UNL     1      33.123 -19.610 -21.806  0.00  0.00    +0.004 C 
ATOM      6  C   UNL     1      34.840 -20.070 -19.974  0.00  0.00    -0.027 C 
ATOM      7  C   UNL     1      33.852 -20.802 -19.266  0.00  0.00    -0.023 C 
ATOM      8  C   UNL     1      32.072 -19.670 -20.715  0.00  0.00    +0.005 C 
ATOM      9  C   UNL     1      32.412 -20.783 -19.735  0.00  0.00    +0.026 C 
ATOM     10  C   UNL     1      34.237 -21.563 -18.127  0.00  0.00    +0.041 C 
ATOM     11  C   UNL     1      35.535 -19.542 -22.372  0.00  0.00    +0.004 C 
ATOM     12  C   UNL     1      34.578 -17.754 -20.897  0.00  0.00    +0.004 C 
ATOM     13  C   UNL     1      35.565 -21.531 -17.650  0.00  0.00    +0.037 C 
ATOM     14  C   UNL     1      36.157 -20.058 -19.475  0.00  0.00    -0.004 C 
ATOM     15  C   UNL     1      35.939 -22.283 -16.455  0.00  0.00    +0.138 C 
ATOM     16  C   UNL     1      35.084 -22.980 -15.717  0.00  0.00    +0.057 C 
ATOM     17  C   UNL     1      35.774 -23.540 -14.537  0.00  0.00    +0.072 C 
ATOM     18  C   UNL     1      36.513 -20.769 -18.332  0.00  0.00    +0.003 C 
ATOM     19  C   UNL     1      33.275 -22.452 -17.398  0.00  0.00    +0.234 C 
ATOM     20  C   UNL     1      37.233 -23.234 -14.920  0.00  0.00    +0.210 C 
ATOM     21  C   UNL     1      33.674 -23.047 -16.071  0.00  0.00    +0.233 C 
ATOM     22  C   UNL     1      35.551 -25.026 -14.295  0.00  0.00    +0.009 C 
ENDROOT
TORSDOF 0
ENDMDL
MODEL 9
REMARK VINA RESULT:      -9.4      2.075      4.018
REMARK  Name = 160254
REMARK  0 active torsions:
REMARK  status: ('A' for Active; 'I' for Inactive)
REMARK                            x       y       z     vdW  Elec       q    Type
REMARK                         _______ _______ _______ _____ _____    ______ ____
ROOT
ATOM      1  O   UNL     1      31.957 -20.690 -19.491  0.00  0.00    -0.475 OA
ATOM      2  O   UNL     1      35.539 -23.048 -16.184  0.00  0.00    -0.283 OA
ATOM      3  O   UNL     1      36.315 -21.226 -17.952  0.00  0.00    -0.283 OA
ATOM      4  C   UNL     1      30.703 -24.102 -13.939  0.00  0.00    +0.019 C 
ATOM      5  C   UNL     1      31.771 -24.903 -13.158  0.00  0.00    +0.004 C 
ATOM      6  C   UNL     1      31.313 -23.358 -15.139  0.00  0.00    -0.027 C 
ATOM      7  C   UNL     1      32.713 -23.192 -15.301  0.00  0.00    -0.023 C 
ATOM      8  C   UNL     1      33.026 -24.085 -12.924  0.00  0.00    +0.005 C 
ATOM      9  C   UNL     1      33.668 -23.734 -14.258  0.00  0.00    +0.026 C 
ATOM     10  C   UNL     1      33.202 -22.529 -16.461  0.00  0.00    +0.041 C 
ATOM     11  C   UNL     1      29.630 -25.124 -14.387  0.00  0.00    +0.004 C 
ATOM     12  C   UNL     1      30.034 -23.073 -13.001  0.00  0.00    +0.004 C 
ATOM     13  C   UNL     1      32.313 -21.967 -17.403  0.00  0.00    +0.037 C 
ATOM     14  C   UNL     1      30.451 -22.788 -16.095  0.00  0.00    -0.004 C 
ATOM     15  C   UNL     1      32.827 -21.252 -18.568  0.00  0.00    +0.138 C 
ATOM     16  C   UNL     1      34.115 -21.029 -18.796  0.00  0.00    +0.057 C 
ATOM     17  C   UNL     1      34.279 -20.204 -20.010  0.00  0.00    +0.072 C 
ATOM     18  C   UNL     1      30.940 -22.100 -17.203  0.00  0.00    +0.003 C 
ATOM     19  C   UNL     1      34.667 -22.418 -16.760  0.00  0.00    +0.234 C 
ATOM     20  C   UNL     1      32.838 -20.245 -20.548  0.00  0.00    +0.210 C 
ATOM     21  C   UNL     1      35.131 -21.509 -17.870  0.00  0.00    +0.233 C 
ATOM     22  C   UNL     1      35.281 -20.730 -21.027  0.00  0.00    +0.009 C 
ENDROOT
TORSDOF 0
ENDMDL
