MODEL 1
REMARK VINA RESULT:     -12.9      0.000      0.000
REMARK  Name = 127737
REMARK  3 active torsions:
REMARK  status: ('A' for Active; 'I' for Inactive)
REMARK    1  A    between atoms: N_2  and  S_15
REMARK    2  A    between atoms: N_3  and  C_9
REMARK    3  A    between atoms: S_15  and  C_23
REMARK                            x       y       z     vdW  Elec       q    Type
REMARK                         _______ _______ _______ _____ _____    ______ ____
ROOT
ATOM      1  O   UNL     1      34.362 -15.896 -23.440  0.00  0.00    -0.251 OA
ATOM      2  N   UNL     1      34.762 -16.960 -21.413  0.00  0.00    -0.169 N 
ATOM      3  N   UNL     1      33.878 -14.804 -21.434  0.00  0.00    -0.267 N 
ATOM      4  C   UNL     1      34.323 -15.856 -22.217  0.00  0.00    +0.323 C 
ATOM      5  H   UNL     1      34.656 -16.879 -20.437  0.00  0.00    +0.178 HD
ATOM      6  H   UNL     1      33.918 -14.944 -20.461  0.00  0.00    +0.156 HD
ENDROOT
BRANCH   3   9
ATOM      7 CL   UNL     1      30.941 -10.775 -20.393  0.00  0.00    -0.081 Cl
ATOM      8 CL   UNL     1      31.804  -9.581 -23.274  0.00  0.00    -0.081 Cl
ATOM      9  C   UNL     1      33.374 -13.553 -21.861  0.00  0.00    +0.053 C 
ATOM     10  C   UNL     1      32.512 -12.852 -21.034  0.00  0.00    +0.027 C 
ATOM     11  C   UNL     1      33.752 -13.056 -23.097  0.00  0.00    +0.016 C 
ATOM     12  C   UNL     1      32.014 -11.618 -21.455  0.00  0.00    +0.069 C 
ATOM     13  C   UNL     1      33.255 -11.822 -23.518  0.00  0.00    +0.014 C 
ATOM     14  C   UNL     1      32.386 -11.103 -22.697  0.00  0.00    +0.068 C 
ENDBRANCH   3   9
BRANCH   2  15
ATOM     15  S   UNL     1      35.455 -18.406 -22.016  0.00  0.00    +0.077 S 
ATOM     16  O   UNL     1      36.899 -18.237 -22.099  0.00  0.00    -0.150 OA
ATOM     17  O   UNL     1      34.711 -18.827 -23.193  0.00  0.00    -0.150 OA
BRANCH  15  23
ATOM     18  O   UNL     1      34.129 -22.163 -17.708  0.00  0.00    -0.475 OA
ATOM     19  C   UNL     1      33.511 -20.747 -19.421  0.00  0.00    +0.017 C 
ATOM     20  C   UNL     1      32.220 -21.209 -18.866  0.00  0.00    +0.077 C 
ATOM     21  C   UNL     1      34.551 -21.309 -18.696  0.00  0.00    +0.135 C 
ATOM     22  C   UNL     1      32.729 -22.372 -18.011  0.00  0.00    +0.210 C 
ATOM     23  C   UNL     1      35.092 -19.535 -20.732  0.00  0.00    +0.125 C 
ATOM     24  C   UNL     1      33.762 -19.851 -20.443  0.00  0.00    +0.019 C 
ATOM     25  C   UNL     1      35.873 -21.003 -18.956  0.00  0.00    +0.038 C 
ATOM     26  C   UNL     1      36.140 -20.106 -19.992  0.00  0.00    +0.023 C 
ENDBRANCH  15  23
ENDBRANCH   2  15
TORSDOF 3
ENDMDL
MODEL 2
REMARK VINA RESULT:     -12.7      0.696      1.493
REMARK  Name = 127737
REMARK  3 active torsions:
REMARK  status: ('A' for Active; 'I' for Inactive)
REMARK    1  A    between atoms: N_2  and  S_15
REMARK    2  A    between atoms: N_3  and  C_9
REMARK    3  A    between atoms: S_15  and  C_23
REMARK                            x       y       z     vdW  Elec       q    Type
REMARK                         _______ _______ _______ _____ _____    ______ ____
ROOT
ATOM      1  O   UNL     1      34.557 -16.062 -23.150  0.00  0.00    -0.251 OA
ATOM      2  N   UNL     1      34.845 -17.092 -21.087  0.00  0.00    -0.169 N 
ATOM      3  N   UNL     1      33.928 -14.953 -21.195  0.00  0.00    -0.267 N 
ATOM      4  C   UNL     1      34.439 -16.006 -21.932  0.00  0.00    +0.323 C 
ATOM      5  H   UNL     1      34.676 -17.001 -20.121  0.00  0.00    +0.178 HD
ATOM      6  H   UNL     1      33.908 -15.079 -20.218  0.00  0.00    +0.156 HD
ENDROOT
BRANCH   3   9
ATOM      7 CL   UNL     1      31.062 -10.841 -20.290  0.00  0.00    -0.081 Cl
ATOM      8 CL   UNL     1      31.886  -9.793 -23.238  0.00  0.00    -0.081 Cl
ATOM      9  C   UNL     1      33.432 -13.716 -21.670  0.00  0.00    +0.053 C 
ATOM     10  C   UNL     1      32.595 -12.966 -20.861  0.00  0.00    +0.027 C 
ATOM     11  C   UNL     1      33.793 -13.282 -22.935  0.00  0.00    +0.016 C 
ATOM     12  C   UNL     1      32.105 -11.746 -21.330  0.00  0.00    +0.069 C 
ATOM     13  C   UNL     1      33.304 -12.062 -23.403  0.00  0.00    +0.014 C 
ATOM     14  C   UNL     1      32.460 -11.295 -22.601  0.00  0.00    +0.068 C 
ENDBRANCH   3   9
BRANCH   2  15
ATOM     15  S   UNL     1      35.598 -18.534 -21.624  0.00  0.00    +0.077 S 
ATOM     16  O   UNL     1      37.043 -18.363 -21.556  0.00  0.00    -0.150 OA
ATOM     17  O   UNL     1      34.981 -18.948 -22.875  0.00  0.00    -0.150 OA
BRANCH  15  23
ATOM     18  O   UNL     1      34.052 -22.371 -17.464  0.00  0.00    -0.475 OA
ATOM     19  C   UNL     1      35.608 -21.008 -18.482  0.00  0.00    +0.017 C 
ATOM     20  C   UNL     1      36.377 -21.677 -17.410  0.00  0.00    +0.077 C 
ATOM     21  C   UNL     1      34.301 -21.472 -18.470  0.00  0.00    +0.135 C 
ATOM     22  C   UNL     1      35.212 -22.257 -16.606  0.00  0.00    +0.210 C 
ATOM     23  C   UNL     1      35.106 -19.671 -20.392  0.00  0.00    +0.125 C 
ATOM     24  C   UNL     1      36.033 -20.108 -19.442  0.00  0.00    +0.019 C 
ATOM     25  C   UNL     1      33.371 -21.064 -19.405  0.00  0.00    +0.038 C 
ATOM     26  C   UNL     1      33.784 -20.147 -20.374  0.00  0.00    +0.023 C 
ENDBRANCH  15  23
ENDBRANCH   2  15
TORSDOF 3
ENDMDL
MODEL 3
REMARK VINA RESULT:     -12.6      3.445      4.974
REMARK  Name = 127737
REMARK  3 active torsions:
REMARK  status: ('A' for Active; 'I' for Inactive)
REMARK    1  A    between atoms: N_2  and  S_15
REMARK    2  A    between atoms: N_3  and  C_9
REMARK    3  A    between atoms: S_15  and  C_23
REMARK                            x       y       z     vdW  Elec       q    Type
REMARK                         _______ _______ _______ _____ _____    ______ ____
ROOT
ATOM      1  O   UNL     1      32.581 -19.844 -20.666  0.00  0.00    -0.251 OA
ATOM      2  N   UNL     1      34.478 -20.685 -19.620  0.00  0.00    -0.169 N 
ATOM      3  N   UNL     1      34.680 -18.955 -21.168  0.00  0.00    -0.267 N 
ATOM      4  C   UNL     1      33.796 -19.803 -20.524  0.00  0.00    +0.323 C 
ATOM      5  H   UNL     1      35.450 -20.564 -19.518  0.00  0.00    +0.178 HD
ATOM      6  H   UNL     1      35.629 -19.060 -20.932  0.00  0.00    +0.156 HD
ENDROOT
BRANCH   3   9
ATOM      7 CL   UNL     1      34.165 -13.987 -22.170  0.00  0.00    -0.081 Cl
ATOM      8 CL   UNL     1      33.442 -14.821 -25.212  0.00  0.00    -0.081 Cl
ATOM      9  C   UNL     1      34.386 -17.955 -22.125  0.00  0.00    +0.053 C 
ATOM     10  C   UNL     1      34.412 -16.623 -21.744  0.00  0.00    +0.027 C 
ATOM     11  C   UNL     1      34.077 -18.328 -23.422  0.00  0.00    +0.016 C 
ATOM     12  C   UNL     1      34.123 -15.637 -22.687  0.00  0.00    +0.069 C 
ATOM     13  C   UNL     1      33.788 -17.341 -24.366  0.00  0.00    +0.014 C 
ATOM     14  C   UNL     1      33.810 -15.996 -23.998  0.00  0.00    +0.068 C 
ENDBRANCH   3   9
BRANCH   2  15
ATOM     15  S   UNL     1      33.737 -21.930 -18.707  0.00  0.00    +0.077 S 
ATOM     16  O   UNL     1      33.806 -23.173 -19.463  0.00  0.00    -0.150 OA
ATOM     17  O   UNL     1      32.450 -21.453 -18.223  0.00  0.00    -0.150 OA
BRANCH  15  23
ATOM     18  O   UNL     1      37.243 -22.341 -14.020  0.00  0.00    -0.475 OA
ATOM     19  C   UNL     1      35.232 -22.723 -15.084  0.00  0.00    +0.017 C 
ATOM     20  C   UNL     1      35.010 -23.244 -13.718  0.00  0.00    +0.077 C 
ATOM     21  C   UNL     1      36.514 -22.201 -15.175  0.00  0.00    +0.135 C 
ATOM     22  C   UNL     1      36.461 -23.269 -13.231  0.00  0.00    +0.210 C 
ATOM     23  C   UNL     1      34.807 -22.045 -17.330  0.00  0.00    +0.125 C 
ATOM     24  C   UNL     1      34.359 -22.649 -16.153  0.00  0.00    +0.019 C 
ATOM     25  C   UNL     1      36.975 -21.588 -16.323  0.00  0.00    +0.038 C 
ATOM     26  C   UNL     1      36.106 -21.516 -17.414  0.00  0.00    +0.023 C 
ENDBRANCH  15  23
ENDBRANCH   2  15
TORSDOF 3
ENDMDL
MODEL 4
REMARK VINA RESULT:     -12.3      4.189      6.029
REMARK  Name = 127737
REMARK  3 active torsions:
REMARK  status: ('A' for Active; 'I' for Inactive)
REMARK    1  A    between atoms: N_2  and  S_15
REMARK    2  A    between atoms: N_3  and  C_9
REMARK    3  A    between atoms: S_15  and  C_23
REMARK                            x       y       z     vdW  Elec       q    Type
REMARK                         _______ _______ _______ _____ _____    ______ ____
ROOT
ATOM      1  O   UNL     1      32.364 -20.486 -20.130  0.00  0.00    -0.251 OA
ATOM      2  N   UNL     1      34.025 -21.369 -18.765  0.00  0.00    -0.169 N 
ATOM      3  N   UNL     1      34.554 -19.694 -20.296  0.00  0.00    -0.267 N 
ATOM      4  C   UNL     1      33.541 -20.488 -19.789  0.00  0.00    +0.323 C 
ATOM      5  H   UNL     1      34.971 -21.283 -18.505  0.00  0.00    +0.178 HD
ATOM      6  H   UNL     1      35.446 -19.829 -19.903  0.00  0.00    +0.156 HD
ENDROOT
BRANCH   3   9
ATOM      7 CL   UNL     1      32.922 -18.476 -24.964  0.00  0.00    -0.081 Cl
ATOM      8 CL   UNL     1      34.219 -15.548 -24.500  0.00  0.00    -0.081 Cl
ATOM      9  C   UNL     1      34.466 -18.712 -21.311  0.00  0.00    +0.053 C 
ATOM     10  C   UNL     1      33.821 -19.019 -22.497  0.00  0.00    +0.027 C 
ATOM     11  C   UNL     1      35.027 -17.464 -21.097  0.00  0.00    +0.016 C 
ATOM     12  C   UNL     1      33.734 -18.051 -23.499  0.00  0.00    +0.069 C 
ATOM     13  C   UNL     1      34.940 -16.496 -22.098  0.00  0.00    +0.014 C 
ATOM     14  C   UNL     1      34.294 -16.789 -23.298  0.00  0.00    +0.068 C 
ENDBRANCH   3   9
BRANCH   2  15
ATOM     15  S   UNL     1      33.090 -22.556 -17.959  0.00  0.00    +0.077 S 
ATOM     16  O   UNL     1      33.218 -23.820 -18.673  0.00  0.00    -0.150 OA
ATOM     17  O   UNL     1      31.767 -22.011 -17.694  0.00  0.00    -0.150 OA
BRANCH  15  23
ATOM     18  O   UNL     1      35.789 -23.008 -12.769  0.00  0.00    -0.475 OA
ATOM     19  C   UNL     1      33.954 -23.322 -14.131  0.00  0.00    +0.017 C 
ATOM     20  C   UNL     1      33.493 -23.794 -12.807  0.00  0.00    +0.077 C 
ATOM     21  C   UNL     1      35.259 -22.864 -14.027  0.00  0.00    +0.135 C 
ATOM     22  C   UNL     1      34.846 -23.876 -12.097  0.00  0.00    +0.210 C 
ATOM     23  C   UNL     1      33.923 -22.685 -16.428  0.00  0.00    +0.125 C 
ATOM     24  C   UNL     1      33.265 -23.235 -15.326  0.00  0.00    +0.019 C 
ATOM     25  C   UNL     1      35.926 -22.306 -15.100  0.00  0.00    +0.038 C 
ATOM     26  C   UNL     1      35.245 -22.222 -16.316  0.00  0.00    +0.023 C 
ENDBRANCH  15  23
ENDBRANCH   2  15
TORSDOF 3
ENDMDL
MODEL 5
REMARK VINA RESULT:     -11.6      4.506      8.761
REMARK  Name = 127737
REMARK  3 active torsions:
REMARK  status: ('A' for Active; 'I' for Inactive)
REMARK    1  A    between atoms: N_2  and  S_15
REMARK    2  A    between atoms: N_3  and  C_9
REMARK    3  A    between atoms: S_15  and  C_23
REMARK                            x       y       z     vdW  Elec       q    Type
REMARK                         _______ _______ _______ _____ _____    ______ ____
ROOT
ATOM      1  O   UNL     1      35.888 -19.610 -20.104  0.00  0.00    -0.251 OA
ATOM      2  N   UNL     1      34.150 -19.227 -21.599  0.00  0.00    -0.169 N 
ATOM      3  N   UNL     1      33.812 -20.623 -19.764  0.00  0.00    -0.267 N 
ATOM      4  C   UNL     1      34.725 -19.821 -20.427  0.00  0.00    +0.323 C 
ATOM      5  H   UNL     1      33.196 -19.400 -21.772  0.00  0.00    +0.178 HD
ATOM      6  H   UNL     1      32.916 -20.680 -20.167  0.00  0.00    +0.156 HD
ENDROOT
BRANCH   3   9
ATOM      7 CL   UNL     1      37.026 -22.100 -16.099  0.00  0.00    -0.081 Cl
ATOM      8 CL   UNL     1      34.570 -23.769 -14.815  0.00  0.00    -0.081 Cl
ATOM      9  C   UNL     1      34.008 -21.371 -18.580  0.00  0.00    +0.053 C 
ATOM     10  C   UNL     1      35.258 -21.378 -17.982  0.00  0.00    +0.027 C 
ATOM     11  C   UNL     1      32.947 -22.080 -18.042  0.00  0.00    +0.016 C 
ATOM     12  C   UNL     1      35.452 -22.116 -16.813  0.00  0.00    +0.069 C 
ATOM     13  C   UNL     1      33.141 -22.818 -16.874  0.00  0.00    +0.014 C 
ATOM     14  C   UNL     1      34.393 -22.836 -16.260  0.00  0.00    +0.068 C 
ENDBRANCH   3   9
BRANCH   2  15
ATOM     15  S   UNL     1      34.990 -18.241 -22.720  0.00  0.00    +0.077 S 
ATOM     16  O   UNL     1      34.475 -18.505 -24.057  0.00  0.00    -0.150 OA
ATOM     17  O   UNL     1      36.418 -18.352 -22.465  0.00  0.00    -0.150 OA
BRANCH  15  23
ATOM     18  O   UNL     1      33.329 -12.830 -21.175  0.00  0.00    -0.475 OA
ATOM     19  C   UNL     1      33.806 -14.422 -22.774  0.00  0.00    +0.017 C 
ATOM     20  C   UNL     1      33.503 -13.209 -23.566  0.00  0.00    +0.077 C 
ATOM     21  C   UNL     1      33.714 -14.123 -21.422  0.00  0.00    +0.135 C 
ATOM     22  C   UNL     1      32.874 -12.354 -22.464  0.00  0.00    +0.210 C 
ATOM     23  C   UNL     1      34.490 -16.640 -22.229  0.00  0.00    +0.125 C 
ATOM     24  C   UNL     1      34.199 -15.677 -23.199  0.00  0.00    +0.019 C 
ATOM     25  C   UNL     1      34.008 -15.055 -20.447  0.00  0.00    +0.038 C 
ATOM     26  C   UNL     1      34.396 -16.330 -20.862  0.00  0.00    +0.023 C 
ENDBRANCH  15  23
ENDBRANCH   2  15
TORSDOF 3
ENDMDL
MODEL 6
REMARK VINA RESULT:     -11.0      4.462      8.739
REMARK  Name = 127737
REMARK  3 active torsions:
REMARK  status: ('A' for Active; 'I' for Inactive)
REMARK    1  A    between atoms: N_2  and  S_15
REMARK    2  A    between atoms: N_3  and  C_9
REMARK    3  A    between atoms: S_15  and  C_23
REMARK                            x       y       z     vdW  Elec       q    Type
REMARK                         _______ _______ _______ _____ _____    ______ ____
ROOT
ATOM      1  O   UNL     1      35.708 -20.318 -20.136  0.00  0.00    -0.251 OA
ATOM      2  N   UNL     1      34.121 -19.245 -21.452  0.00  0.00    -0.169 N 
ATOM      3  N   UNL     1      33.440 -20.503 -19.613  0.00  0.00    -0.267 N 
ATOM      4  C   UNL     1      34.528 -20.067 -20.349  0.00  0.00    +0.323 C 
ATOM      5  H   UNL     1      33.161 -19.042 -21.535  0.00  0.00    +0.178 HD
ATOM      6  H   UNL     1      32.557 -20.203 -19.929  0.00  0.00    +0.156 HD
ENDROOT
BRANCH   3   9
ATOM      7 CL   UNL     1      30.706 -23.101 -16.190  0.00  0.00    -0.081 Cl
ATOM      8 CL   UNL     1      33.505 -23.944 -14.805  0.00  0.00    -0.081 Cl
ATOM      9  C   UNL     1      33.440 -21.327 -18.463  0.00  0.00    +0.053 C 
ATOM     10  C   UNL     1      32.233 -21.764 -17.943  0.00  0.00    +0.027 C 
ATOM     11  C   UNL     1      34.647 -21.679 -17.881  0.00  0.00    +0.016 C 
ATOM     12  C   UNL     1      32.233 -22.577 -16.808  0.00  0.00    +0.069 C 
ATOM     13  C   UNL     1      34.646 -22.491 -16.747  0.00  0.00    +0.014 C 
ATOM     14  C   UNL     1      33.440 -22.940 -16.211  0.00  0.00    +0.068 C 
ENDBRANCH   3   9
BRANCH   2  15
ATOM     15  S   UNL     1      35.172 -18.588 -22.635  0.00  0.00    +0.077 S 
ATOM     16  O   UNL     1      35.003 -19.328 -23.878  0.00  0.00    -0.150 OA
ATOM     17  O   UNL     1      36.500 -18.448 -22.056  0.00  0.00    -0.150 OA
BRANCH  15  23
ATOM     18  O   UNL     1      32.963 -13.183 -23.212  0.00  0.00    -0.475 OA
ATOM     19  C   UNL     1      33.967 -14.836 -21.955  0.00  0.00    +0.017 C 
ATOM     20  C   UNL     1      33.763 -13.736 -20.988  0.00  0.00    +0.077 C 
ATOM     21  C   UNL     1      33.464 -14.461 -23.192  0.00  0.00    +0.135 C 
ATOM     22  C   UNL     1      33.438 -12.609 -21.971  0.00  0.00    +0.210 C 
ATOM     23  C   UNL     1      34.515 -16.982 -22.840  0.00  0.00    +0.125 C 
ATOM     24  C   UNL     1      34.494 -16.099 -21.757  0.00  0.00    +0.019 C 
ATOM     25  C   UNL     1      33.463 -15.320 -24.273  0.00  0.00    +0.038 C 
ATOM     26  C   UNL     1      34.002 -16.595 -24.089  0.00  0.00    +0.023 C 
ENDBRANCH  15  23
ENDBRANCH   2  15
TORSDOF 3
ENDMDL
MODEL 7
REMARK VINA RESULT:     -10.9      5.451     10.543
REMARK  Name = 127737
REMARK  3 active torsions:
REMARK  status: ('A' for Active; 'I' for Inactive)
REMARK    1  A    between atoms: N_2  and  S_15
REMARK    2  A    between atoms: N_3  and  C_9
REMARK    3  A    between atoms: S_15  and  C_23
REMARK                            x       y       z     vdW  Elec       q    Type
REMARK                         _______ _______ _______ _____ _____    ______ ____
ROOT
ATOM      1  O   UNL     1      31.528 -13.260 -21.309  0.00  0.00    -0.251 OA
ATOM      2  N   UNL     1      32.240 -11.205 -22.128  0.00  0.00    -0.169 N 
ATOM      3  N   UNL     1      33.277 -13.161 -22.852  0.00  0.00    -0.267 N 
ATOM      4  C   UNL     1      32.290 -12.635 -22.037  0.00  0.00    +0.323 C 
ATOM      5  H   UNL     1      32.847 -10.771 -22.770  0.00  0.00    +0.178 HD
ATOM      6  H   UNL     1      33.800 -12.509 -23.372  0.00  0.00    +0.156 HD
ENDROOT
BRANCH   3   9
ATOM      7 CL   UNL     1      35.283 -17.379 -20.820  0.00  0.00    -0.081 Cl
ATOM      8 CL   UNL     1      34.724 -18.839 -23.652  0.00  0.00    -0.081 Cl
ATOM      9  C   UNL     1      33.628 -14.520 -23.029  0.00  0.00    +0.053 C 
ATOM     10  C   UNL     1      34.211 -15.212 -21.979  0.00  0.00    +0.027 C 
ATOM     11  C   UNL     1      33.383 -15.131 -24.248  0.00  0.00    +0.016 C 
ATOM     12  C   UNL     1      34.558 -16.552 -22.153  0.00  0.00    +0.069 C 
ATOM     13  C   UNL     1      33.730 -16.471 -24.422  0.00  0.00    +0.014 C 
ATOM     14  C   UNL     1      34.317 -17.181 -23.375  0.00  0.00    +0.068 C 
ENDBRANCH   3   9
BRANCH   2  15
ATOM     15  S   UNL     1      31.207 -10.192 -21.209  0.00  0.00    +0.077 S 
ATOM     16  O   UNL     1      31.498 -10.383 -19.795  0.00  0.00    -0.150 OA
ATOM     17  O   UNL     1      29.844 -10.352 -21.691  0.00  0.00    -0.150 OA
BRANCH  15  23
ATOM     18  O   UNL     1      33.112  -4.902 -22.887  0.00  0.00    -0.475 OA
ATOM     19  C   UNL     1      32.971  -7.187 -23.170  0.00  0.00    +0.017 C 
ATOM     20  C   UNL     1      33.867  -6.752 -24.265  0.00  0.00    +0.077 C 
ATOM     21  C   UNL     1      32.604  -6.085 -22.412  0.00  0.00    +0.135 C 
ATOM     22  C   UNL     1      33.608  -5.245 -24.202  0.00  0.00    +0.210 C 
ATOM     23  C   UNL     1      31.752  -8.602 -21.688  0.00  0.00    +0.125 C 
ATOM     24  C   UNL     1      32.559  -8.458 -22.820  0.00  0.00    +0.019 C 
ATOM     25  C   UNL     1      31.818  -6.204 -21.283  0.00  0.00    +0.038 C 
ATOM     26  C   UNL     1      31.386  -7.482 -20.924  0.00  0.00    +0.023 C 
ENDBRANCH  15  23
ENDBRANCH   2  15
TORSDOF 3
ENDMDL
MODEL 8
REMARK VINA RESULT:     -10.8      6.476     10.433
REMARK  Name = 127737
REMARK  3 active torsions:
REMARK  status: ('A' for Active; 'I' for Inactive)
REMARK    1  A    between atoms: N_2  and  S_15
REMARK    2  A    between atoms: N_3  and  C_9
REMARK    3  A    between atoms: S_15  and  C_23
REMARK                            x       y       z     vdW  Elec       q    Type
REMARK                         _______ _______ _______ _____ _____    ______ ____
ROOT
ATOM      1  O   UNL     1      33.386 -23.458 -16.473  0.00  0.00    -0.251 OA
ATOM      2  N   UNL     1      34.444 -21.743 -17.631  0.00  0.00    -0.169 N 
ATOM      3  N   UNL     1      35.060 -22.208 -15.433  0.00  0.00    -0.267 N 
ATOM      4  C   UNL     1      34.225 -22.566 -16.476  0.00  0.00    +0.323 C 
ATOM      5  H   UNL     1      35.168 -21.077 -17.581  0.00  0.00    +0.178 HD
ATOM      6  H   UNL     1      35.677 -21.462 -15.610  0.00  0.00    +0.156 HD
ENDROOT
BRANCH   3   9
ATOM      7 CL   UNL     1      38.016 -23.685 -11.556  0.00  0.00    -0.081 Cl
ATOM      8 CL   UNL     1      35.315 -24.615 -10.037  0.00  0.00    -0.081 Cl
ATOM      9  C   UNL     1      35.136 -22.782 -14.142  0.00  0.00    +0.053 C 
ATOM     10  C   UNL     1      36.375 -22.939 -13.542  0.00  0.00    +0.027 C 
ATOM     11  C   UNL     1      33.971 -23.176 -13.505  0.00  0.00    +0.016 C 
ATOM     12  C   UNL     1      36.451 -23.506 -12.269  0.00  0.00    +0.069 C 
ATOM     13  C   UNL     1      34.047 -23.742 -12.232  0.00  0.00    +0.014 C 
ATOM     14  C   UNL     1      35.286 -23.907 -11.614  0.00  0.00    +0.068 C 
ENDBRANCH   3   9
BRANCH   2  15
ATOM     15  S   UNL     1      33.548 -21.827 -19.088  0.00  0.00    +0.077 S 
ATOM     16  O   UNL     1      32.167 -21.450 -18.814  0.00  0.00    -0.150 OA
ATOM     17  O   UNL     1      33.830 -23.097 -19.740  0.00  0.00    -0.150 OA
BRANCH  15  23
ATOM     18  O   UNL     1      35.989 -17.611 -22.358  0.00  0.00    -0.475 OA
ATOM     19  C   UNL     1      34.217 -18.986 -21.821  0.00  0.00    +0.017 C 
ATOM     20  C   UNL     1      33.738 -18.244 -23.008  0.00  0.00    +0.077 C 
ATOM     21  C   UNL     1      35.514 -18.593 -21.526  0.00  0.00    +0.135 C 
ATOM     22  C   UNL     1      34.808 -17.151 -23.055  0.00  0.00    +0.210 C 
ATOM     23  C   UNL     1      34.299 -20.568 -20.039  0.00  0.00    +0.125 C 
ATOM     24  C   UNL     1      33.592 -19.978 -21.090  0.00  0.00    +0.019 C 
ATOM     25  C   UNL     1      36.236 -19.170 -20.500  0.00  0.00    +0.038 C 
ATOM     26  C   UNL     1      35.613 -20.167 -19.747  0.00  0.00    +0.023 C 
ENDBRANCH  15  23
ENDBRANCH   2  15
TORSDOF 3
ENDMDL
MODEL 9
REMARK VINA RESULT:     -10.8      5.844     11.215
REMARK  Name = 127737
REMARK  3 active torsions:
REMARK  status: ('A' for Active; 'I' for Inactive)
REMARK    1  A    between atoms: N_2  and  S_15
REMARK    2  A    between atoms: N_3  and  C_9
REMARK    3  A    between atoms: S_15  and  C_23
REMARK                            x       y       z     vdW  Elec       q    Type
REMARK                         _______ _______ _______ _____ _____    ______ ____
ROOT
ATOM      1  O   UNL     1      31.353 -12.293 -22.031  0.00  0.00    -0.251 OA
ATOM      2  N   UNL     1      32.443 -10.349 -22.691  0.00  0.00    -0.169 N 
ATOM      3  N   UNL     1      33.350 -12.426 -23.232  0.00  0.00    -0.267 N 
ATOM      4  C   UNL     1      32.303 -11.774 -22.605  0.00  0.00    +0.323 C 
ATOM      5  H   UNL     1      33.205 -10.000 -23.209  0.00  0.00    +0.178 HD
ATOM      6  H   UNL     1      34.033 -11.849 -23.644  0.00  0.00    +0.156 HD
ENDROOT
BRANCH   3   9
ATOM      7 CL   UNL     1      34.856 -16.753 -21.007  0.00  0.00    -0.081 Cl
ATOM      8 CL   UNL     1      34.212 -18.249 -23.803  0.00  0.00    -0.081 Cl
ATOM      9  C   UNL     1      33.561 -13.820 -23.354  0.00  0.00    +0.053 C 
ATOM     10  C   UNL     1      34.044 -14.530 -22.267  0.00  0.00    +0.027 C 
ATOM     11  C   UNL     1      33.281 -14.445 -24.558  0.00  0.00    +0.016 C 
ATOM     12  C   UNL     1      34.252 -15.904 -22.387  0.00  0.00    +0.069 C 
ATOM     13  C   UNL     1      33.489 -15.820 -24.677  0.00  0.00    +0.014 C 
ATOM     14  C   UNL     1      33.975 -16.549 -23.593  0.00  0.00    +0.068 C 
ENDBRANCH   3   9
BRANCH   2  15
ATOM     15  S   UNL     1      31.392  -9.207 -21.966  0.00  0.00    +0.077 S 
ATOM     16  O   UNL     1      31.638  -9.187 -20.530  0.00  0.00    -0.150 OA
ATOM     17  O   UNL     1      30.042  -9.432 -22.460  0.00  0.00    -0.150 OA
BRANCH  15  23
ATOM     18  O   UNL     1      33.209  -4.152 -24.325  0.00  0.00    -0.475 OA
ATOM     19  C   UNL     1      31.536  -5.544 -23.562  0.00  0.00    +0.017 C 
ATOM     20  C   UNL     1      30.804  -4.368 -24.081  0.00  0.00    +0.077 C 
ATOM     21  C   UNL     1      32.897  -5.362 -23.759  0.00  0.00    +0.135 C 
ATOM     22  C   UNL     1      31.978  -3.397 -24.223  0.00  0.00    +0.210 C 
ATOM     23  C   UNL     1      31.964  -7.709 -22.659  0.00  0.00    +0.125 C 
ATOM     24  C   UNL     1      31.048  -6.717 -23.016  0.00  0.00    +0.019 C 
ATOM     25  C   UNL     1      33.820  -6.333 -23.424  0.00  0.00    +0.038 C 
ATOM     26  C   UNL     1      33.342  -7.519 -22.863  0.00  0.00    +0.023 C 
ENDBRANCH  15  23
ENDBRANCH   2  15
TORSDOF 3
ENDMDL
