MODEL 1
REMARK VINA RESULT:     -10.2      0.000      0.000
REMARK  Name = 24872560
REMARK  5 active torsions:
REMARK  status: ('A' for Active; 'I' for Inactive)
REMARK    1  A    between atoms: N_3  and  C_12
REMARK    2  A    between atoms: N_4  and  C_24
REMARK    3  A    between atoms: C_17  and  C_20
REMARK    4  A    between atoms: C_27  and  C_32
REMARK    5  A    between atoms: C_28  and  C_34
REMARK                            x       y       z     vdW  Elec       q    Type
REMARK                         _______ _______ _______ _____ _____    ______ ____
ROOT
ATOM      1  S   UNL     1      33.059 -11.761 -24.526  0.00  0.00    -0.017 S 
ATOM      2  O   UNL     1      31.995 -12.098 -19.560  0.00  0.00    -0.272 OA
ATOM      3  N   UNL     1      32.167 -10.070 -22.502  0.00  0.00    -0.265 N 
ATOM      4  N   UNL     1      32.694 -12.202 -21.801  0.00  0.00    -0.217 N 
ATOM      5  C   UNL     1      31.534 -10.225 -21.151  0.00  0.00    +0.133 C 
ATOM      6  C   UNL     1      31.658  -9.064 -20.135  0.00  0.00    +0.028 C 
ATOM      7  C   UNL     1      29.992 -10.089 -21.078  0.00  0.00    +0.028 C 
ATOM      8  C   UNL     1      30.167  -9.254 -19.796  0.00  0.00    +0.004 C 
ATOM      9  C   UNL     1      32.078 -11.629 -20.692  0.00  0.00    +0.251 C 
ATOM     10  C   UNL     1      32.701 -11.337 -22.933  0.00  0.00    +0.152 C 
ENDROOT
BRANCH   3  12
ATOM     11  F   UNL     1      30.429  -6.265 -24.883  0.00  0.00    -0.204 F 
ATOM     12  C   UNL     1      32.370  -8.817 -23.167  0.00  0.00    +0.055 C 
ATOM     13  C   UNL     1      31.284  -8.133 -23.714  0.00  0.00    +0.045 C 
ATOM     14  C   UNL     1      33.653  -8.278 -23.266  0.00  0.00    +0.015 C 
ATOM     15  C   UNL     1      31.480  -6.913 -24.360  0.00  0.00    +0.146 C 
ATOM     16  C   UNL     1      33.851  -7.058 -23.912  0.00  0.00    +0.008 C 
ATOM     17  C   UNL     1      32.764  -6.375 -24.459  0.00  0.00    +0.081 C 
BRANCH  17  20
ATOM     18  O   UNL     1      33.145  -4.062 -24.472  0.00  0.00    -0.270 OA
ATOM     19  N   UNL     1      32.995  -5.119 -26.530  0.00  0.00    -0.299 N 
ATOM     20  C   UNL     1      32.974  -5.103 -25.131  0.00  0.00    +0.248 C 
ATOM     21  C   UNL     1      33.215  -3.942 -27.340  0.00  0.00    +0.111 C 
ATOM     22  H   UNL     1      32.851  -5.979 -26.988  0.00  0.00    +0.150 HD
ENDBRANCH  17  20
ENDBRANCH   3  12
BRANCH   4  24
ATOM     23  N   UNL     1      34.222 -15.283 -20.397  0.00  0.00    -0.232 NA
ATOM     24  C   UNL     1      33.266 -13.511 -21.737  0.00  0.00    +0.079 C 
ATOM     25  C   UNL     1      33.425 -14.282 -22.883  0.00  0.00    +0.023 C 
ATOM     26  C   UNL     1      33.677 -14.052 -20.529  0.00  0.00    +0.115 C 
ATOM     27  C   UNL     1      33.982 -15.552 -22.787  0.00  0.00    +0.100 C 
ATOM     28  C   UNL     1      34.360 -16.002 -21.533  0.00  0.00    +0.153 C 
BRANCH  27  32
ATOM     29  F   UNL     1      34.997 -17.438 -23.855  0.00  0.00    -0.166 F 
ATOM     30  F   UNL     1      32.982 -16.924 -24.472  0.00  0.00    -0.166 F 
ATOM     31  F   UNL     1      34.653 -15.665 -25.066  0.00  0.00    -0.166 F 
ATOM     32  C   UNL     1      34.149 -16.379 -24.017  0.00  0.00    +0.421 C 
ENDBRANCH  27  32
BRANCH  28  34
ATOM     33  N   UNL     1      35.420 -18.336 -21.168  0.00  0.00    -0.189 NA
ATOM     34  C   UNL     1      34.944 -17.289 -21.332  0.00  0.00    +0.120 C 
ENDBRANCH  28  34
ENDBRANCH   4  24
TORSDOF 5
ENDMDL
MODEL 2
REMARK VINA RESULT:     -10.1      2.510      9.066
REMARK  Name = 24872560
REMARK  5 active torsions:
REMARK  status: ('A' for Active; 'I' for Inactive)
REMARK    1  A    between atoms: N_3  and  C_12
REMARK    2  A    between atoms: N_4  and  C_24
REMARK    3  A    between atoms: C_17  and  C_20
REMARK    4  A    between atoms: C_27  and  C_32
REMARK    5  A    between atoms: C_28  and  C_34
REMARK                            x       y       z     vdW  Elec       q    Type
REMARK                         _______ _______ _______ _____ _____    ______ ____
ROOT
ATOM      1  S   UNL     1      35.003  -9.030 -24.084  0.00  0.00    -0.017 S 
ATOM      2  O   UNL     1      30.436  -7.411 -22.523  0.00  0.00    -0.272 OA
ATOM      3  N   UNL     1      32.737 -10.126 -22.894  0.00  0.00    -0.265 N 
ATOM      4  N   UNL     1      32.536  -7.900 -23.459  0.00  0.00    -0.217 N 
ATOM      5  C   UNL     1      31.550  -9.616 -22.132  0.00  0.00    +0.133 C 
ATOM      6  C   UNL     1      30.268 -10.482 -22.086  0.00  0.00    +0.028 C 
ATOM      7  C   UNL     1      31.623  -9.689 -20.586  0.00  0.00    +0.028 C 
ATOM      8  C   UNL     1      30.162 -10.174 -20.580  0.00  0.00    +0.004 C 
ATOM      9  C   UNL     1      31.397  -8.155 -22.699  0.00  0.00    +0.251 C 
ATOM     10  C   UNL     1      33.406  -9.025 -23.538  0.00  0.00    +0.152 C 
ENDROOT
BRANCH   3  12
ATOM     11  F   UNL     1      32.843 -14.015 -25.728  0.00  0.00    -0.204 F 
ATOM     12  C   UNL     1      33.038 -11.512 -23.097  0.00  0.00    +0.055 C 
ATOM     13  C   UNL     1      32.791 -12.106 -24.335  0.00  0.00    +0.045 C 
ATOM     14  C   UNL     1      33.581 -12.268 -22.058  0.00  0.00    +0.015 C 
ATOM     15  C   UNL     1      33.085 -13.455 -24.534  0.00  0.00    +0.146 C 
ATOM     16  C   UNL     1      33.875 -13.617 -22.256  0.00  0.00    +0.008 C 
ATOM     17  C   UNL     1      33.628 -14.211 -23.494  0.00  0.00    +0.081 C 
BRANCH  17  20
ATOM     18  O   UNL     1      33.636 -16.182 -24.763  0.00  0.00    -0.270 OA
ATOM     19  N   UNL     1      34.601 -16.277 -22.657  0.00  0.00    -0.299 N 
ATOM     20  C   UNL     1      33.937 -15.617 -23.697  0.00  0.00    +0.248 C 
ATOM     21  C   UNL     1      34.998 -17.666 -22.716  0.00  0.00    +0.111 C 
ATOM     22  H   UNL     1      34.809 -15.768 -21.839  0.00  0.00    +0.150 HD
ENDBRANCH  17  20
ENDBRANCH   3  12
BRANCH   4  24
ATOM     23  N   UNL     1      33.034  -4.243 -23.877  0.00  0.00    -0.232 NA
ATOM     24  C   UNL     1      32.736  -6.633 -24.091  0.00  0.00    +0.079 C 
ATOM     25  C   UNL     1      32.833  -6.529 -25.474  0.00  0.00    +0.023 C 
ATOM     26  C   UNL     1      32.842  -5.471 -23.344  0.00  0.00    +0.115 C 
ATOM     27  C   UNL     1      33.030  -5.283 -26.059  0.00  0.00    +0.100 C 
ATOM     28  C   UNL     1      33.123  -4.182 -25.224  0.00  0.00    +0.153 C 
BRANCH  27  32
ATOM     29  F   UNL     1      32.707  -6.288 -28.206  0.00  0.00    -0.166 F 
ATOM     30  F   UNL     1      32.409  -4.144 -28.069  0.00  0.00    -0.166 F 
ATOM     31  F   UNL     1      34.418  -4.969 -27.964  0.00  0.00    -0.166 F 
ATOM     32  C   UNL     1      33.136  -5.174 -27.543  0.00  0.00    +0.421 C 
ENDBRANCH  27  32
BRANCH  28  34
ATOM     33  N   UNL     1      33.483  -1.787 -26.140  0.00  0.00    -0.189 NA
ATOM     34  C   UNL     1      33.321  -2.861 -25.729  0.00  0.00    +0.120 C 
ENDBRANCH  28  34
ENDBRANCH   4  24
TORSDOF 5
ENDMDL
MODEL 3
REMARK VINA RESULT:      -9.6      2.537      9.460
REMARK  Name = 24872560
REMARK  5 active torsions:
REMARK  status: ('A' for Active; 'I' for Inactive)
REMARK    1  A    between atoms: N_3  and  C_12
REMARK    2  A    between atoms: N_4  and  C_24
REMARK    3  A    between atoms: C_17  and  C_20
REMARK    4  A    between atoms: C_27  and  C_32
REMARK    5  A    between atoms: C_28  and  C_34
REMARK                            x       y       z     vdW  Elec       q    Type
REMARK                         _______ _______ _______ _____ _____    ______ ____
ROOT
ATOM      1  S   UNL     1      34.894  -8.876 -24.108  0.00  0.00    -0.017 S 
ATOM      2  O   UNL     1      30.446  -7.323 -22.180  0.00  0.00    -0.272 OA
ATOM      3  N   UNL     1      32.703 -10.023 -22.828  0.00  0.00    -0.265 N 
ATOM      4  N   UNL     1      32.479  -7.772 -23.272  0.00  0.00    -0.217 N 
ATOM      5  C   UNL     1      31.571  -9.546 -21.967  0.00  0.00    +0.133 C 
ATOM      6  C   UNL     1      30.290 -10.411 -21.879  0.00  0.00    +0.028 C 
ATOM      7  C   UNL     1      31.743  -9.693 -20.434  0.00  0.00    +0.028 C 
ATOM      8  C   UNL     1      30.283 -10.175 -20.356  0.00  0.00    +0.004 C 
ATOM      9  C   UNL     1      31.389  -8.060 -22.453  0.00  0.00    +0.251 C 
ATOM     10  C   UNL     1      33.336  -8.894 -23.460  0.00  0.00    +0.152 C 
ENDROOT
BRANCH   3  12
ATOM     11  F   UNL     1      32.695 -13.747 -25.876  0.00  0.00    -0.204 F 
ATOM     12  C   UNL     1      32.984 -11.398 -23.115  0.00  0.00    +0.055 C 
ATOM     13  C   UNL     1      32.699 -11.919 -24.378  0.00  0.00    +0.045 C 
ATOM     14  C   UNL     1      33.543 -12.217 -22.134  0.00  0.00    +0.015 C 
ATOM     15  C   UNL     1      32.973 -13.257 -24.659  0.00  0.00    +0.146 C 
ATOM     16  C   UNL     1      33.817 -13.555 -22.414  0.00  0.00    +0.008 C 
ATOM     17  C   UNL     1      33.532 -14.076 -23.676  0.00  0.00    +0.081 C 
BRANCH  17  20
ATOM     18  O   UNL     1      33.727 -15.908 -25.125  0.00  0.00    -0.270 OA
ATOM     19  N   UNL     1      34.224 -16.272 -22.890  0.00  0.00    -0.299 N 
ATOM     20  C   UNL     1      33.820 -15.471 -23.965  0.00  0.00    +0.248 C 
ATOM     21  C   UNL     1      34.569 -17.670 -23.020  0.00  0.00    +0.111 C 
ATOM     22  H   UNL     1      34.277 -15.860 -21.997  0.00  0.00    +0.150 HD
ENDBRANCH  17  20
ENDBRANCH   3  12
BRANCH   4  24
ATOM     23  N   UNL     1      33.785  -5.058 -25.447  0.00  0.00    -0.232 NA
ATOM     24  C   UNL     1      32.644  -6.477 -23.855  0.00  0.00    +0.079 C 
ATOM     25  C   UNL     1      31.867  -5.400 -23.441  0.00  0.00    +0.023 C 
ATOM     26  C   UNL     1      33.580  -6.256 -24.852  0.00  0.00    +0.115 C 
ATOM     27  C   UNL     1      32.049  -4.152 -24.029  0.00  0.00    +0.100 C 
ATOM     28  C   UNL     1      33.011  -4.036 -25.018  0.00  0.00    +0.153 C 
BRANCH  27  32
ATOM     29  F   UNL     1      31.943  -1.917 -23.185  0.00  0.00    -0.166 F 
ATOM     30  F   UNL     1      30.378  -2.525 -24.557  0.00  0.00    -0.166 F 
ATOM     31  F   UNL     1      30.407  -3.310 -22.529  0.00  0.00    -0.166 F 
ATOM     32  C   UNL     1      31.213  -3.000 -23.586  0.00  0.00    +0.421 C 
ENDBRANCH  27  32
BRANCH  28  34
ATOM     33  N   UNL     1      33.490  -1.791 -26.216  0.00  0.00    -0.189 NA
ATOM     34  C   UNL     1      33.275  -2.798 -25.679  0.00  0.00    +0.120 C 
ENDBRANCH  28  34
ENDBRANCH   4  24
TORSDOF 5
ENDMDL
MODEL 4
REMARK VINA RESULT:      -8.5      9.276     14.922
REMARK  Name = 24872560
REMARK  5 active torsions:
REMARK  status: ('A' for Active; 'I' for Inactive)
REMARK    1  A    between atoms: N_3  and  C_12
REMARK    2  A    between atoms: N_4  and  C_24
REMARK    3  A    between atoms: C_17  and  C_20
REMARK    4  A    between atoms: C_27  and  C_32
REMARK    5  A    between atoms: C_28  and  C_34
REMARK                            x       y       z     vdW  Elec       q    Type
REMARK                         _______ _______ _______ _____ _____    ______ ____
ROOT
ATOM      1  S   UNL     1      36.670 -20.646 -17.509  0.00  0.00    -0.017 S 
ATOM      2  O   UNL     1      31.856 -22.138 -18.226  0.00  0.00    -0.272 OA
ATOM      3  N   UNL     1      34.904 -22.483 -16.385  0.00  0.00    -0.265 N 
ATOM      4  N   UNL     1      34.074 -21.360 -18.219  0.00  0.00    -0.217 N 
ATOM      5  C   UNL     1      33.419 -22.689 -16.353  0.00  0.00    +0.133 C 
ATOM      6  C   UNL     1      32.872 -24.103 -16.046  0.00  0.00    +0.028 C 
ATOM      7  C   UNL     1      32.661 -22.155 -15.111  0.00  0.00    +0.028 C 
ATOM      8  C   UNL     1      31.838 -23.457 -15.104  0.00  0.00    +0.004 C 
ATOM      9  C   UNL     1      32.966 -22.034 -17.712  0.00  0.00    +0.251 C 
ATOM     10  C   UNL     1      35.237 -21.533 -17.416  0.00  0.00    +0.152 C 
ENDROOT
BRANCH   3  12
ATOM     11  F   UNL     1      36.136 -26.551 -14.127  0.00  0.00    -0.204 F 
ATOM     12  C   UNL     1      35.849 -23.253 -15.631  0.00  0.00    +0.055 C 
ATOM     13  C   UNL     1      35.532 -24.552 -15.235  0.00  0.00    +0.045 C 
ATOM     14  C   UNL     1      37.087 -22.704 -15.295  0.00  0.00    +0.015 C 
ATOM     15  C   UNL     1      36.451 -25.303 -14.503  0.00  0.00    +0.146 C 
ATOM     16  C   UNL     1      38.007 -23.454 -14.562  0.00  0.00    +0.008 C 
ATOM     17  C   UNL     1      37.689 -24.753 -14.166  0.00  0.00    +0.081 C 
BRANCH  17  20
ATOM     18  O   UNL     1      38.409 -25.862 -12.229  0.00  0.00    -0.270 OA
ATOM     19  N   UNL     1      39.831 -25.904 -14.061  0.00  0.00    -0.299 N 
ATOM     20  C   UNL     1      38.651 -25.533 -13.404  0.00  0.00    +0.248 C 
ATOM     21  C   UNL     1      40.871 -26.697 -13.447  0.00  0.00    +0.111 C 
ATOM     22  H   UNL     1      39.958 -25.609 -14.991  0.00  0.00    +0.150 HD
ENDBRANCH  17  20
ENDBRANCH   3  12
BRANCH   4  24
ATOM     23  N   UNL     1      32.688 -19.926 -21.353  0.00  0.00    -0.232 NA
ATOM     24  C   UNL     1      33.993 -20.616 -19.437  0.00  0.00    +0.079 C 
ATOM     25  C   UNL     1      35.075 -19.874 -19.898  0.00  0.00    +0.023 C 
ATOM     26  C   UNL     1      32.832 -20.609 -20.195  0.00  0.00    +0.115 C 
ATOM     27  C   UNL     1      34.965 -19.159 -21.086  0.00  0.00    +0.100 C 
ATOM     28  C   UNL     1      33.761 -19.217 -21.768  0.00  0.00    +0.153 C 
BRANCH  27  32
ATOM     29  F   UNL     1      36.593 -18.767 -22.794  0.00  0.00    -0.166 F 
ATOM     30  F   UNL     1      35.851 -17.032 -21.726  0.00  0.00    -0.166 F 
ATOM     31  F   UNL     1      37.198 -18.421 -20.735  0.00  0.00    -0.166 F 
ATOM     32  C   UNL     1      36.126 -18.361 -21.576  0.00  0.00    +0.421 C 
ENDBRANCH  27  32
BRANCH  28  34
ATOM     33  N   UNL     1      33.381 -17.954 -23.997  0.00  0.00    -0.189 NA
ATOM     34  C   UNL     1      33.551 -18.521 -22.997  0.00  0.00    +0.120 C 
ENDBRANCH  28  34
ENDBRANCH   4  24
TORSDOF 5
ENDMDL
MODEL 5
REMARK VINA RESULT:      -7.4      2.794      9.479
REMARK  Name = 24872560
REMARK  5 active torsions:
REMARK  status: ('A' for Active; 'I' for Inactive)
REMARK    1  A    between atoms: N_3  and  C_12
REMARK    2  A    between atoms: N_4  and  C_24
REMARK    3  A    between atoms: C_17  and  C_20
REMARK    4  A    between atoms: C_27  and  C_32
REMARK    5  A    between atoms: C_28  and  C_34
REMARK                            x       y       z     vdW  Elec       q    Type
REMARK                         _______ _______ _______ _____ _____    ______ ____
ROOT
ATOM      1  S   UNL     1      31.891 -12.409 -20.310  0.00  0.00    -0.017 S 
ATOM      2  O   UNL     1      32.814 -10.540 -24.955  0.00  0.00    -0.272 OA
ATOM      3  N   UNL     1      32.970 -13.322 -22.709  0.00  0.00    -0.265 N 
ATOM      4  N   UNL     1      32.412 -11.085 -22.704  0.00  0.00    -0.217 N 
ATOM      5  C   UNL     1      32.934 -12.905 -24.149  0.00  0.00    +0.133 C 
ATOM      6  C   UNL     1      34.070 -13.378 -25.088  0.00  0.00    +0.028 C 
ATOM      7  C   UNL     1      31.914 -13.627 -25.065  0.00  0.00    +0.028 C 
ATOM      8  C   UNL     1      33.003 -13.706 -26.150  0.00  0.00    +0.004 C 
ATOM      9  C   UNL     1      32.710 -11.350 -24.038  0.00  0.00    +0.251 C 
ATOM     10  C   UNL     1      32.477 -12.248 -21.885  0.00  0.00    +0.152 C 
ENDROOT
BRANCH   3  12
ATOM     11  F   UNL     1      34.981 -17.617 -23.530  0.00  0.00    -0.204 F 
ATOM     12  C   UNL     1      33.576 -14.527 -22.226  0.00  0.00    +0.055 C 
ATOM     13  C   UNL     1      33.993 -15.508 -23.125  0.00  0.00    +0.045 C 
ATOM     14  C   UNL     1      33.749 -14.720 -20.855  0.00  0.00    +0.015 C 
ATOM     15  C   UNL     1      34.584 -16.681 -22.656  0.00  0.00    +0.146 C 
ATOM     16  C   UNL     1      34.340 -15.892 -20.384  0.00  0.00    +0.008 C 
ATOM     17  C   UNL     1      34.757 -16.873 -21.284  0.00  0.00    +0.081 C 
BRANCH  17  20
ATOM     18  O   UNL     1      36.596 -18.137 -20.565  0.00  0.00    -0.270 OA
ATOM     19  N   UNL     1      34.527 -19.185 -20.562  0.00  0.00    -0.299 N 
ATOM     20  C   UNL     1      35.373 -18.093 -20.790  0.00  0.00    +0.248 C 
ATOM     21  C   UNL     1      34.985 -20.457 -20.050  0.00  0.00    +0.111 C 
ATOM     22  H   UNL     1      33.569 -19.081 -20.762  0.00  0.00    +0.150 HD
ENDBRANCH  17  20
ENDBRANCH   3  12
BRANCH   4  24
ATOM     23  N   UNL     1      31.015  -8.311 -20.666  0.00  0.00    -0.232 NA
ATOM     24  C   UNL     1      32.112  -9.758 -22.262  0.00  0.00    +0.079 C 
ATOM     25  C   UNL     1      32.597  -8.648 -22.946  0.00  0.00    +0.023 C 
ATOM     26  C   UNL     1      31.333  -9.538 -21.138  0.00  0.00    +0.115 C 
ATOM     27  C   UNL     1      32.290  -7.370 -22.491  0.00  0.00    +0.100 C 
ATOM     28  C   UNL     1      31.503  -7.258 -21.357  0.00  0.00    +0.153 C 
BRANCH  27  32
ATOM     29  F   UNL     1      31.841  -5.294 -23.591  0.00  0.00    -0.166 F 
ATOM     30  F   UNL     1      33.711  -5.447 -22.504  0.00  0.00    -0.166 F 
ATOM     31  F   UNL     1      33.456  -6.518 -24.380  0.00  0.00    -0.166 F 
ATOM     32  C   UNL     1      32.812  -6.182 -23.224  0.00  0.00    +0.421 C 
ENDBRANCH  27  32
BRANCH  28  34
ATOM     33  N   UNL     1      30.828  -4.960 -20.371  0.00  0.00    -0.189 NA
ATOM     34  C   UNL     1      31.131  -5.991 -20.814  0.00  0.00    +0.120 C 
ENDBRANCH  28  34
ENDBRANCH   4  24
TORSDOF 5
ENDMDL
MODEL 6
REMARK VINA RESULT:      -7.4      2.845      4.173
REMARK  Name = 24872560
REMARK  5 active torsions:
REMARK  status: ('A' for Active; 'I' for Inactive)
REMARK    1  A    between atoms: N_3  and  C_12
REMARK    2  A    between atoms: N_4  and  C_24
REMARK    3  A    between atoms: C_17  and  C_20
REMARK    4  A    between atoms: C_27  and  C_32
REMARK    5  A    between atoms: C_28  and  C_34
REMARK                            x       y       z     vdW  Elec       q    Type
REMARK                         _______ _______ _______ _____ _____    ______ ____
ROOT
ATOM      1  S   UNL     1      34.442 -12.714 -21.057  0.00  0.00    -0.017 S 
ATOM      2  O   UNL     1      33.054 -15.405 -25.150  0.00  0.00    -0.272 OA
ATOM      3  N   UNL     1      33.073 -12.262 -23.439  0.00  0.00    -0.265 N 
ATOM      4  N   UNL     1      33.692 -14.456 -23.096  0.00  0.00    -0.217 N 
ATOM      5  C   UNL     1      32.958 -12.934 -24.775  0.00  0.00    +0.133 C 
ATOM      6  C   UNL     1      31.711 -12.648 -25.645  0.00  0.00    +0.028 C 
ATOM      7  C   UNL     1      33.848 -12.383 -25.918  0.00  0.00    +0.028 C 
ATOM      8  C   UNL     1      32.641 -12.511 -26.865  0.00  0.00    +0.004 C 
ATOM      9  C   UNL     1      33.238 -14.440 -24.412  0.00  0.00    +0.251 C 
ATOM     10  C   UNL     1      33.687 -13.163 -22.498  0.00  0.00    +0.152 C 
ENDROOT
BRANCH   3  12
ATOM     11  F   UNL     1      33.175  -7.452 -23.577  0.00  0.00    -0.204 F 
ATOM     12  C   UNL     1      32.492 -10.993 -23.113  0.00  0.00    +0.055 C 
ATOM     13  C   UNL     1      33.124  -9.814 -23.508  0.00  0.00    +0.045 C 
ATOM     14  C   UNL     1      31.293 -10.937 -22.402  0.00  0.00    +0.015 C 
ATOM     15  C   UNL     1      32.559  -8.579 -23.193  0.00  0.00    +0.146 C 
ATOM     16  C   UNL     1      30.727  -9.702 -22.086  0.00  0.00    +0.008 C 
ATOM     17  C   UNL     1      31.359  -8.523 -22.481  0.00  0.00    +0.081 C 
BRANCH  17  20
ATOM     18  O   UNL     1      29.842  -6.772 -22.842  0.00  0.00    -0.270 OA
ATOM     19  N   UNL     1      31.263  -6.580 -21.020  0.00  0.00    -0.299 N 
ATOM     20  C   UNL     1      30.765  -7.238 -22.151  0.00  0.00    +0.248 C 
ATOM     21  C   UNL     1      30.760  -5.309 -20.549  0.00  0.00    +0.111 C 
ATOM     22  H   UNL     1      31.995  -7.006 -20.518  0.00  0.00    +0.150 HD
ENDBRANCH  17  20
ENDBRANCH   3  12
BRANCH   4  24
ATOM     23  N   UNL     1      34.782 -16.830 -20.455  0.00  0.00    -0.232 NA
ATOM     24  C   UNL     1      34.078 -15.678 -22.461  0.00  0.00    +0.079 C 
ATOM     25  C   UNL     1      34.125 -16.872 -23.172  0.00  0.00    +0.023 C 
ATOM     26  C   UNL     1      34.412 -15.710 -21.116  0.00  0.00    +0.115 C 
ATOM     27  C   UNL     1      34.501 -18.045 -22.526  0.00  0.00    +0.100 C 
ATOM     28  C   UNL     1      34.817 -17.971 -21.180  0.00  0.00    +0.153 C 
BRANCH  27  32
ATOM     29  F   UNL     1      33.826 -19.298 -24.449  0.00  0.00    -0.166 F 
ATOM     30  F   UNL     1      35.810 -19.690 -23.667  0.00  0.00    -0.166 F 
ATOM     31  F   UNL     1      34.058 -20.380 -22.578  0.00  0.00    -0.166 F 
ATOM     32  C   UNL     1      34.549 -19.325 -23.290  0.00  0.00    +0.421 C 
ENDBRANCH  27  32
BRANCH  28  34
ATOM     33  N   UNL     1      35.543 -20.050 -19.819  0.00  0.00    -0.189 NA
ATOM     34  C   UNL     1      35.217 -19.118 -20.430  0.00  0.00    +0.120 C 
ENDBRANCH  28  34
ENDBRANCH   4  24
TORSDOF 5
ENDMDL
