MODEL 1
REMARK VINA RESULT:     -11.5      0.000      0.000
REMARK  Name = 5289566
REMARK  8 active torsions:
REMARK  status: ('A' for Active; 'I' for Inactive)
REMARK    1  A    between atoms: O_1  and  C_3
REMARK    2  A    between atoms: O_1  and  C_14
REMARK    3  A    between atoms: C_2  and  C_12
REMARK    4  A    between atoms: C_14  and  C_15
REMARK    5  A    between atoms: C_15  and  C_16
REMARK    6  A    between atoms: C_16  and  C_17
REMARK    7  A    between atoms: C_17  and  C_18
REMARK    8  A    between atoms: C_18  and  C_21
REMARK                            x       y       z     vdW  Elec       q    Type
REMARK                         _______ _______ _______ _____ _____    ______ ____
ROOT
ATOM      1  O   UNL     1      33.400 -23.010 -17.695  0.00  0.00    -0.475 OA
ENDROOT
BRANCH   1   3
ATOM      2  C   UNL     1      34.158 -19.896 -20.333  0.00  0.00    +0.053 C 
ATOM      3  C   UNL     1      33.651 -21.982 -18.567  0.00  0.00    +0.139 C 
ATOM      4  C   UNL     1      35.218 -20.588 -19.748  0.00  0.00    +0.008 C 
ATOM      5  C   UNL     1      32.843 -20.251 -20.033  0.00  0.00    +0.008 C 
ATOM      6  C   UNL     1      34.964 -21.635 -18.861  0.00  0.00    +0.037 C 
ATOM      7  C   UNL     1      32.588 -21.297 -19.146  0.00  0.00    +0.037 C 
BRANCH   2  12
ATOM      8  O   UNL     1      34.911 -17.667 -20.688  0.00  0.00    -0.458 OA
ATOM      9  N   UNL     1      34.236 -18.813 -22.548  0.00  0.00    -0.236 NA
ATOM     10  C   UNL     1      34.750 -17.506 -22.987  0.00  0.00    +0.150 C 
ATOM     11  C   UNL     1      34.852 -16.689 -21.715  0.00  0.00    +0.231 C 
ATOM     12  C   UNL     1      34.427 -18.793 -21.267  0.00  0.00    +0.220 C 
ATOM     13  C   UNL     1      33.824 -16.894 -24.020  0.00  0.00    +0.030 C 
ENDBRANCH   2  12
ENDBRANCH   1   3
BRANCH   1  14
ATOM     14  C   UNL     1      33.182 -22.658 -16.335  0.00  0.00    +0.205 C 
BRANCH  14  15
ATOM     15  C   UNL     1      31.693 -22.759 -16.033  0.00  0.00    +0.047 C 
BRANCH  15  16
ATOM     16  C   UNL     1      31.390 -22.423 -14.576  0.00  0.00    +0.004 C 
BRANCH  16  17
ATOM     17  C   UNL     1      29.936 -22.739 -14.222  0.00  0.00    +0.008 C 
BRANCH  17  18
ATOM     18  C   UNL     1      29.306 -23.684 -15.250  0.00  0.00    +0.067 C 
BRANCH  18  21
ATOM     19  O   UNL     1      27.887 -23.584 -17.187  0.00  0.00    -0.358 OA
ATOM     20  N   UNL     1      26.861 -22.844 -17.764  0.00  0.00    -0.082 NA
ATOM     21  C   UNL     1      28.200 -23.006 -16.019  0.00  0.00    +0.154 C 
ATOM     22  C   UNL     1      27.450 -21.922 -15.767  0.00  0.00    +0.054 C 
ATOM     23  C   UNL     1      26.617 -21.858 -16.897  0.00  0.00    +0.101 C 
ATOM     24  C   UNL     1      25.570 -20.866 -17.190  0.00  0.00    +0.056 C 
ENDBRANCH  18  21
ENDBRANCH  17  18
ENDBRANCH  16  17
ENDBRANCH  15  16
ENDBRANCH  14  15
ENDBRANCH   1  14
TORSDOF 8
ENDMDL
MODEL 2
REMARK VINA RESULT:     -11.3      5.061      7.903
REMARK  Name = 5289566
REMARK  8 active torsions:
REMARK  status: ('A' for Active; 'I' for Inactive)
REMARK    1  A    between atoms: O_1  and  C_3
REMARK    2  A    between atoms: O_1  and  C_14
REMARK    3  A    between atoms: C_2  and  C_12
REMARK    4  A    between atoms: C_14  and  C_15
REMARK    5  A    between atoms: C_15  and  C_16
REMARK    6  A    between atoms: C_16  and  C_17
REMARK    7  A    between atoms: C_17  and  C_18
REMARK    8  A    between atoms: C_18  and  C_21
REMARK                            x       y       z     vdW  Elec       q    Type
REMARK                         _______ _______ _______ _____ _____    ______ ____
ROOT
ATOM      1  O   UNL     1      35.268 -16.878 -22.343  0.00  0.00    -0.475 OA
ENDROOT
BRANCH   1   3
ATOM      2  C   UNL     1      33.030 -13.394 -22.046  0.00  0.00    +0.053 C 
ATOM      3  C   UNL     1      34.529 -15.727 -22.244  0.00  0.00    +0.139 C 
ATOM      4  C   UNL     1      33.405 -14.082 -20.893  0.00  0.00    +0.008 C 
ATOM      5  C   UNL     1      33.409 -13.876 -23.300  0.00  0.00    +0.008 C 
ATOM      6  C   UNL     1      34.157 -15.253 -20.992  0.00  0.00    +0.037 C 
ATOM      7  C   UNL     1      34.160 -15.046 -23.399  0.00  0.00    +0.037 C 
BRANCH   2  12
ATOM      8  O   UNL     1      32.409 -11.289 -22.964  0.00  0.00    -0.458 OA
ATOM      9  N   UNL     1      31.427 -11.854 -20.977  0.00  0.00    -0.236 NA
ATOM     10  C   UNL     1      30.844 -10.577 -21.420  0.00  0.00    +0.150 C 
ATOM     11  C   UNL     1      31.761 -10.103 -22.529  0.00  0.00    +0.231 C 
ATOM     12  C   UNL     1      32.237 -12.161 -21.941  0.00  0.00    +0.220 C 
ATOM     13  C   UNL     1      30.755  -9.606 -20.258  0.00  0.00    +0.030 C 
ENDBRANCH   2  12
ENDBRANCH   1   3
BRANCH   1  14
ATOM     14  C   UNL     1      35.402 -17.656 -21.161  0.00  0.00    +0.205 C 
BRANCH  14  15
ATOM     15  C   UNL     1      34.976 -19.086 -21.464  0.00  0.00    +0.047 C 
BRANCH  15  16
ATOM     16  C   UNL     1      33.814 -19.528 -20.579  0.00  0.00    +0.004 C 
BRANCH  16  17
ATOM     17  C   UNL     1      34.165 -20.789 -19.787  0.00  0.00    +0.008 C 
BRANCH  17  18
ATOM     18  C   UNL     1      35.623 -20.764 -19.319  0.00  0.00    +0.067 C 
BRANCH  18  21
ATOM     19  O   UNL     1      34.784 -22.230 -17.609  0.00  0.00    -0.358 OA
ATOM     20  N   UNL     1      35.080 -22.732 -16.347  0.00  0.00    -0.082 NA
ATOM     21  C   UNL     1      35.781 -21.406 -17.964  0.00  0.00    +0.154 C 
ATOM     22  C   UNL     1      36.734 -21.320 -17.024  0.00  0.00    +0.054 C 
ATOM     23  C   UNL     1      36.249 -22.175 -16.019  0.00  0.00    +0.101 C 
ATOM     24  C   UNL     1      36.873 -22.490 -14.724  0.00  0.00    +0.056 C 
ENDBRANCH  18  21
ENDBRANCH  17  18
ENDBRANCH  16  17
ENDBRANCH  15  16
ENDBRANCH  14  15
ENDBRANCH   1  14
TORSDOF 8
ENDMDL
MODEL 3
REMARK VINA RESULT:     -11.2      4.147      9.080
REMARK  Name = 5289566
REMARK  8 active torsions:
REMARK  status: ('A' for Active; 'I' for Inactive)
REMARK    1  A    between atoms: O_1  and  C_3
REMARK    2  A    between atoms: O_1  and  C_14
REMARK    3  A    between atoms: C_2  and  C_12
REMARK    4  A    between atoms: C_14  and  C_15
REMARK    5  A    between atoms: C_15  and  C_16
REMARK    6  A    between atoms: C_16  and  C_17
REMARK    7  A    between atoms: C_17  and  C_18
REMARK    8  A    between atoms: C_18  and  C_21
REMARK                            x       y       z     vdW  Elec       q    Type
REMARK                         _______ _______ _______ _____ _____    ______ ____
ROOT
ATOM      1  O   UNL     1      34.161 -21.788 -18.897  0.00  0.00    -0.475 OA
ENDROOT
BRANCH   1   3
ATOM      2  C   UNL     1      35.642 -22.531 -15.090  0.00  0.00    +0.053 C 
ATOM      3  C   UNL     1      34.650 -22.035 -17.639  0.00  0.00    +0.139 C 
ATOM      4  C   UNL     1      34.341 -22.911 -15.419  0.00  0.00    +0.008 C 
ATOM      5  C   UNL     1      36.447 -21.903 -16.042  0.00  0.00    +0.008 C 
ATOM      6  C   UNL     1      33.843 -22.662 -16.698  0.00  0.00    +0.037 C 
ATOM      7  C   UNL     1      35.949 -21.654 -17.320  0.00  0.00    +0.037 C 
BRANCH   2  12
ATOM      8  O   UNL     1      37.458 -23.198 -13.706  0.00  0.00    -0.458 OA
ATOM      9  N   UNL     1      35.507 -22.680 -12.631  0.00  0.00    -0.236 NA
ATOM     10  C   UNL     1      36.523 -22.969 -11.606  0.00  0.00    +0.150 C 
ATOM     11  C   UNL     1      37.658 -23.624 -12.367  0.00  0.00    +0.231 C 
ATOM     12  C   UNL     1      36.166 -22.793 -13.742  0.00  0.00    +0.220 C 
ATOM     13  C   UNL     1      35.939 -23.854 -10.520  0.00  0.00    +0.030 C 
ENDBRANCH   2  12
ENDBRANCH   1   3
BRANCH   1  14
ATOM     14  C   UNL     1      32.821 -21.324 -18.983  0.00  0.00    +0.205 C 
BRANCH  14  15
ATOM     15  C   UNL     1      32.748 -20.229 -20.038  0.00  0.00    +0.047 C 
BRANCH  15  16
ATOM     16  C   UNL     1      34.135 -19.715 -20.415  0.00  0.00    +0.004 C 
BRANCH  16  17
ATOM     17  C   UNL     1      34.151 -19.145 -21.834  0.00  0.00    +0.008 C 
BRANCH  17  18
ATOM     18  C   UNL     1      35.273 -18.119 -22.009  0.00  0.00    +0.067 C 
BRANCH  18  21
ATOM     19  O   UNL     1      34.638 -16.332 -20.532  0.00  0.00    -0.358 OA
ATOM     20  N   UNL     1      34.169 -15.024 -20.525  0.00  0.00    -0.082 NA
ATOM     21  C   UNL     1      34.771 -16.711 -21.811  0.00  0.00    +0.154 C 
ATOM     22  C   UNL     1      34.425 -15.741 -22.671  0.00  0.00    +0.054 C 
ATOM     23  C   UNL     1      34.050 -14.692 -21.813  0.00  0.00    +0.101 C 
ATOM     24  C   UNL     1      33.572 -13.350 -22.184  0.00  0.00    +0.056 C 
ENDBRANCH  18  21
ENDBRANCH  17  18
ENDBRANCH  16  17
ENDBRANCH  15  16
ENDBRANCH  14  15
ENDBRANCH   1  14
TORSDOF 8
ENDMDL
MODEL 4
REMARK VINA RESULT:     -11.1      4.449      7.864
REMARK  Name = 5289566
REMARK  8 active torsions:
REMARK  status: ('A' for Active; 'I' for Inactive)
REMARK    1  A    between atoms: O_1  and  C_3
REMARK    2  A    between atoms: O_1  and  C_14
REMARK    3  A    between atoms: C_2  and  C_12
REMARK    4  A    between atoms: C_14  and  C_15
REMARK    5  A    between atoms: C_15  and  C_16
REMARK    6  A    between atoms: C_16  and  C_17
REMARK    7  A    between atoms: C_17  and  C_18
REMARK    8  A    between atoms: C_18  and  C_21
REMARK                            x       y       z     vdW  Elec       q    Type
REMARK                         _______ _______ _______ _____ _____    ______ ____
ROOT
ATOM      1  O   UNL     1      34.879 -16.302 -22.728  0.00  0.00    -0.475 OA
ENDROOT
BRANCH   1   3
ATOM      2  C   UNL     1      32.754 -12.878 -21.733  0.00  0.00    +0.053 C 
ATOM      3  C   UNL     1      34.176 -15.171 -22.400  0.00  0.00    +0.139 C 
ATOM      4  C   UNL     1      33.052 -13.150 -23.068  0.00  0.00    +0.008 C 
ATOM      5  C   UNL     1      33.168 -13.758 -20.733  0.00  0.00    +0.008 C 
ATOM      6  C   UNL     1      33.766 -14.301 -23.403  0.00  0.00    +0.037 C 
ATOM      7  C   UNL     1      33.882 -14.907 -21.067  0.00  0.00    +0.037 C 
BRANCH   2  12
ATOM      8  O   UNL     1      31.683 -10.872 -22.433  0.00  0.00    -0.458 OA
ATOM      9  N   UNL     1      31.643 -11.308 -20.188  0.00  0.00    -0.236 NA
ATOM     10  C   UNL     1      30.853 -10.089 -20.424  0.00  0.00    +0.150 C 
ATOM     11  C   UNL     1      31.201  -9.676 -21.839  0.00  0.00    +0.231 C 
ATOM     12  C   UNL     1      32.001 -11.665 -21.381  0.00  0.00    +0.220 C 
ATOM     13  C   UNL     1      31.192  -9.032 -19.389  0.00  0.00    +0.030 C 
ENDBRANCH   2  12
ENDBRANCH   1   3
BRANCH   1  14
ATOM     14  C   UNL     1      34.191 -17.285 -23.489  0.00  0.00    +0.205 C 
BRANCH  14  15
ATOM     15  C   UNL     1      34.614 -18.666 -23.004  0.00  0.00    +0.047 C 
BRANCH  15  16
ATOM     16  C   UNL     1      35.657 -18.578 -21.893  0.00  0.00    +0.004 C 
BRANCH  16  17
ATOM     17  C   UNL     1      35.162 -19.249 -20.610  0.00  0.00    +0.008 C 
BRANCH  17  18
ATOM     18  C   UNL     1      33.692 -19.661 -20.729  0.00  0.00    +0.067 C 
BRANCH  18  21
ATOM     19  O   UNL     1      31.991 -20.641 -19.343  0.00  0.00    -0.358 OA
ATOM     20  N   UNL     1      31.798 -21.572 -18.330  0.00  0.00    -0.082 NA
ATOM     21  C   UNL     1      33.298 -20.626 -19.639  0.00  0.00    +0.154 C 
ATOM     22  C   UNL     1      34.003 -21.488 -18.891  0.00  0.00    +0.054 C 
ATOM     23  C   UNL     1      33.014 -22.065 -18.077  0.00  0.00    +0.101 C 
ATOM     24  C   UNL     1      33.186 -23.096 -17.040  0.00  0.00    +0.056 C 
ENDBRANCH  18  21
ENDBRANCH  17  18
ENDBRANCH  16  17
ENDBRANCH  15  16
ENDBRANCH  14  15
ENDBRANCH   1  14
TORSDOF 8
ENDMDL
MODEL 5
REMARK VINA RESULT:     -11.1      3.728      6.487
REMARK  Name = 5289566
REMARK  8 active torsions:
REMARK  status: ('A' for Active; 'I' for Inactive)
REMARK    1  A    between atoms: O_1  and  C_3
REMARK    2  A    between atoms: O_1  and  C_14
REMARK    3  A    between atoms: C_2  and  C_12
REMARK    4  A    between atoms: C_14  and  C_15
REMARK    5  A    between atoms: C_15  and  C_16
REMARK    6  A    between atoms: C_16  and  C_17
REMARK    7  A    between atoms: C_17  and  C_18
REMARK    8  A    between atoms: C_18  and  C_21
REMARK                            x       y       z     vdW  Elec       q    Type
REMARK                         _______ _______ _______ _____ _____    ______ ____
ROOT
ATOM      1  O   UNL     1      33.879 -22.786 -17.856  0.00  0.00    -0.475 OA
ENDROOT
BRANCH   1   3
ATOM      2  C   UNL     1      34.266 -19.669 -20.568  0.00  0.00    +0.053 C 
ATOM      3  C   UNL     1      34.007 -21.756 -18.751  0.00  0.00    +0.139 C 
ATOM      4  C   UNL     1      33.001 -20.151 -20.237  0.00  0.00    +0.008 C 
ATOM      5  C   UNL     1      35.402 -20.232 -19.986  0.00  0.00    +0.008 C 
ATOM      6  C   UNL     1      32.870 -21.199 -19.325  0.00  0.00    +0.037 C 
ATOM      7  C   UNL     1      35.272 -21.279 -19.076  0.00  0.00    +0.037 C 
BRANCH   2  12
ATOM      8  O   UNL     1      34.744 -17.374 -20.979  0.00  0.00    -0.458 OA
ATOM      9  N   UNL     1      34.220 -18.640 -22.811  0.00  0.00    -0.236 NA
ATOM     10  C   UNL     1      34.573 -17.292 -23.282  0.00  0.00    +0.150 C 
ATOM     11  C   UNL     1      34.571 -16.437 -22.031  0.00  0.00    +0.231 C 
ATOM     12  C   UNL     1      34.403 -18.564 -21.530  0.00  0.00    +0.220 C 
ATOM     13  C   UNL     1      33.583 -16.823 -24.331  0.00  0.00    +0.030 C 
ENDBRANCH   2  12
ENDBRANCH   1   3
BRANCH   1  14
ATOM     14  C   UNL     1      32.671 -22.842 -17.111  0.00  0.00    +0.205 C 
BRANCH  14  15
ATOM     15  C   UNL     1      33.005 -22.790 -15.626  0.00  0.00    +0.047 C 
BRANCH  15  16
ATOM     16  C   UNL     1      34.372 -23.404 -15.335  0.00  0.00    +0.004 C 
BRANCH  16  17
ATOM     17  C   UNL     1      35.266 -22.433 -14.563  0.00  0.00    +0.008 C 
BRANCH  17  18
ATOM     18  C   UNL     1      35.944 -23.123 -13.376  0.00  0.00    +0.067 C 
BRANCH  18  21
ATOM     19  O   UNL     1      37.913 -23.112 -14.754  0.00  0.00    -0.358 OA
ATOM     20  N   UNL     1      39.088 -23.812 -15.001  0.00  0.00    -0.082 NA
ATOM     21  C   UNL     1      37.256 -23.750 -13.776  0.00  0.00    +0.154 C 
ATOM     22  C   UNL     1      37.912 -24.838 -13.343  0.00  0.00    +0.054 C 
ATOM     23  C   UNL     1      39.065 -24.838 -14.147  0.00  0.00    +0.101 C 
ATOM     24  C   UNL     1      40.176 -25.804 -14.130  0.00  0.00    +0.056 C 
ENDBRANCH  18  21
ENDBRANCH  17  18
ENDBRANCH  16  17
ENDBRANCH  15  16
ENDBRANCH  14  15
ENDBRANCH   1  14
TORSDOF 8
ENDMDL
MODEL 6
REMARK VINA RESULT:     -11.0      4.444      7.847
REMARK  Name = 5289566
REMARK  8 active torsions:
REMARK  status: ('A' for Active; 'I' for Inactive)
REMARK    1  A    between atoms: O_1  and  C_3
REMARK    2  A    between atoms: O_1  and  C_14
REMARK    3  A    between atoms: C_2  and  C_12
REMARK    4  A    between atoms: C_14  and  C_15
REMARK    5  A    between atoms: C_15  and  C_16
REMARK    6  A    between atoms: C_16  and  C_17
REMARK    7  A    between atoms: C_17  and  C_18
REMARK    8  A    between atoms: C_18  and  C_21
REMARK                            x       y       z     vdW  Elec       q    Type
REMARK                         _______ _______ _______ _____ _____    ______ ____
ROOT
ATOM      1  O   UNL     1      34.735 -16.366 -23.393  0.00  0.00    -0.475 OA
ENDROOT
BRANCH   1   3
ATOM      2  C   UNL     1      32.711 -12.976 -22.111  0.00  0.00    +0.053 C 
ATOM      3  C   UNL     1      34.067 -15.246 -22.969  0.00  0.00    +0.139 C 
ATOM      4  C   UNL     1      33.406 -13.762 -21.192  0.00  0.00    +0.008 C 
ATOM      5  C   UNL     1      32.698 -13.328 -23.461  0.00  0.00    +0.008 C 
ATOM      6  C   UNL     1      34.087 -14.901 -21.623  0.00  0.00    +0.037 C 
ATOM      7  C   UNL     1      33.378 -14.466 -23.891  0.00  0.00    +0.037 C 
BRANCH   2  12
ATOM      8  O   UNL     1      31.809 -10.832 -22.610  0.00  0.00    -0.458 OA
ATOM      9  N   UNL     1      31.551 -11.559 -20.457  0.00  0.00    -0.236 NA
ATOM     10  C   UNL     1      30.848 -10.273 -20.585  0.00  0.00    +0.150 C 
ATOM     11  C   UNL     1      31.339  -9.698 -21.898  0.00  0.00    +0.231 C 
ATOM     12  C   UNL     1      31.994 -11.776 -21.656  0.00  0.00    +0.220 C 
ATOM     13  C   UNL     1      31.149  -9.386 -19.391  0.00  0.00    +0.030 C 
ENDBRANCH   2  12
ENDBRANCH   1   3
BRANCH   1  14
ATOM     14  C   UNL     1      34.494 -17.566 -22.672  0.00  0.00    +0.205 C 
BRANCH  14  15
ATOM     15  C   UNL     1      35.831 -18.179 -22.277  0.00  0.00    +0.047 C 
BRANCH  15  16
ATOM     16  C   UNL     1      35.846 -18.601 -20.810  0.00  0.00    +0.004 C 
BRANCH  16  17
ATOM     17  C   UNL     1      34.891 -19.769 -20.557  0.00  0.00    +0.008 C 
BRANCH  17  18
ATOM     18  C   UNL     1      35.568 -20.876 -19.744  0.00  0.00    +0.067 C 
BRANCH  18  21
ATOM     19  O   UNL     1      35.200 -22.084 -17.699  0.00  0.00    -0.358 OA
ATOM     20  N   UNL     1      34.194 -22.601 -16.892  0.00  0.00    -0.082 NA
ATOM     21  C   UNL     1      34.616 -21.496 -18.753  0.00  0.00    +0.154 C 
ATOM     22  C   UNL     1      33.278 -21.581 -18.710  0.00  0.00    +0.054 C 
ATOM     23  C   UNL     1      33.055 -22.288 -17.515  0.00  0.00    +0.101 C 
ATOM     24  C   UNL     1      31.765 -22.686 -16.930  0.00  0.00    +0.056 C 
ENDBRANCH  18  21
ENDBRANCH  17  18
ENDBRANCH  16  17
ENDBRANCH  15  16
ENDBRANCH  14  15
ENDBRANCH   1  14
TORSDOF 8
ENDMDL
MODEL 7
REMARK VINA RESULT:     -10.9      4.965      9.471
REMARK  Name = 5289566
REMARK  8 active torsions:
REMARK  status: ('A' for Active; 'I' for Inactive)
REMARK    1  A    between atoms: O_1  and  C_3
REMARK    2  A    between atoms: O_1  and  C_14
REMARK    3  A    between atoms: C_2  and  C_12
REMARK    4  A    between atoms: C_14  and  C_15
REMARK    5  A    between atoms: C_15  and  C_16
REMARK    6  A    between atoms: C_16  and  C_17
REMARK    7  A    between atoms: C_17  and  C_18
REMARK    8  A    between atoms: C_18  and  C_21
REMARK                            x       y       z     vdW  Elec       q    Type
REMARK                         _______ _______ _______ _____ _____    ______ ____
ROOT
ATOM      1  O   UNL     1      36.028 -20.526 -18.683  0.00  0.00    -0.475 OA
ENDROOT
BRANCH   1   3
ATOM      2  C   UNL     1      35.991 -22.704 -15.149  0.00  0.00    +0.053 C 
ATOM      3  C   UNL     1      36.016 -21.245 -17.515  0.00  0.00    +0.139 C 
ATOM      4  C   UNL     1      37.124 -21.973 -15.506  0.00  0.00    +0.008 C 
ATOM      5  C   UNL     1      34.869 -22.701 -15.978  0.00  0.00    +0.008 C 
ATOM      6  C   UNL     1      37.137 -21.241 -16.694  0.00  0.00    +0.037 C 
ATOM      7  C   UNL     1      34.882 -21.969 -17.165  0.00  0.00    +0.037 C 
BRANCH   2  12
ATOM      8  O   UNL     1      35.529 -22.793 -12.817  0.00  0.00    -0.458 OA
ATOM      9  N   UNL     1      36.360 -24.706 -13.755  0.00  0.00    -0.236 NA
ATOM     10  C   UNL     1      36.052 -24.994 -12.345  0.00  0.00    +0.150 C 
ATOM     11  C   UNL     1      35.841 -23.632 -11.715  0.00  0.00    +0.231 C 
ATOM     12  C   UNL     1      35.979 -23.475 -13.898  0.00  0.00    +0.220 C 
ATOM     13  C   UNL     1      37.181 -25.781 -11.708  0.00  0.00    +0.030 C 
ENDBRANCH   2  12
ENDBRANCH   1   3
BRANCH   1  14
ATOM     14  C   UNL     1      34.958 -20.759 -19.589  0.00  0.00    +0.205 C 
BRANCH  14  15
ATOM     15  C   UNL     1      34.968 -19.669 -20.652  0.00  0.00    +0.047 C 
BRANCH  15  16
ATOM     16  C   UNL     1      36.299 -18.921 -20.679  0.00  0.00    +0.004 C 
BRANCH  16  17
ATOM     17  C   UNL     1      36.405 -18.019 -21.910  0.00  0.00    +0.008 C 
BRANCH  17  18
ATOM     18  C   UNL     1      35.023 -17.704 -22.490  0.00  0.00    +0.067 C 
BRANCH  18  21
ATOM     19  O   UNL     1      34.481 -16.017 -20.867  0.00  0.00    -0.358 OA
ATOM     20  N   UNL     1      34.085 -14.690 -20.748  0.00  0.00    -0.082 NA
ATOM     21  C   UNL     1      34.598 -16.292 -22.173  0.00  0.00    +0.154 C 
ATOM     22  C   UNL     1      34.308 -15.236 -22.948  0.00  0.00    +0.054 C 
ATOM     23  C   UNL     1      33.988 -14.244 -22.004  0.00  0.00    +0.101 C 
ATOM     24  C   UNL     1      33.585 -12.852 -22.259  0.00  0.00    +0.056 C 
ENDBRANCH  18  21
ENDBRANCH  17  18
ENDBRANCH  16  17
ENDBRANCH  15  16
ENDBRANCH  14  15
ENDBRANCH   1  14
TORSDOF 8
ENDMDL
MODEL 8
REMARK VINA RESULT:     -10.8      5.586     10.474
REMARK  Name = 5289566
REMARK  8 active torsions:
REMARK  status: ('A' for Active; 'I' for Inactive)
REMARK    1  A    between atoms: O_1  and  C_3
REMARK    2  A    between atoms: O_1  and  C_14
REMARK    3  A    between atoms: C_2  and  C_12
REMARK    4  A    between atoms: C_14  and  C_15
REMARK    5  A    between atoms: C_15  and  C_16
REMARK    6  A    between atoms: C_16  and  C_17
REMARK    7  A    between atoms: C_17  and  C_18
REMARK    8  A    between atoms: C_18  and  C_21
REMARK                            x       y       z     vdW  Elec       q    Type
REMARK                         _______ _______ _______ _____ _____    ______ ____
ROOT
ATOM      1  O   UNL     1      34.298 -14.876 -23.934  0.00  0.00    -0.475 OA
ENDROOT
BRANCH   1   3
ATOM      2  C   UNL     1      34.560 -18.242 -21.519  0.00  0.00    +0.053 C 
ATOM      3  C   UNL     1      34.384 -15.988 -23.136  0.00  0.00    +0.139 C 
ATOM      4  C   UNL     1      34.725 -16.973 -20.966  0.00  0.00    +0.008 C 
ATOM      5  C   UNL     1      34.305 -18.380 -22.883  0.00  0.00    +0.008 C 
ATOM      6  C   UNL     1      34.637 -15.841 -21.777  0.00  0.00    +0.037 C 
ATOM      7  C   UNL     1      34.217 -17.250 -23.694  0.00  0.00    +0.037 C 
BRANCH   2  12
ATOM      8  O   UNL     1      33.476 -20.065 -20.442  0.00  0.00    -0.458 OA
ATOM      9  N   UNL     1      35.734 -19.901 -20.120  0.00  0.00    -0.236 NA
ATOM     10  C   UNL     1      35.274 -21.134 -19.461  0.00  0.00    +0.150 C 
ATOM     11  C   UNL     1      33.765 -21.002 -19.416  0.00  0.00    +0.231 C 
ATOM     12  C   UNL     1      34.654 -19.434 -20.663  0.00  0.00    +0.220 C 
ATOM     13  C   UNL     1      35.906 -21.265 -18.088  0.00  0.00    +0.030 C 
ENDBRANCH   2  12
ENDBRANCH   1   3
BRANCH   1  14
ATOM     14  C   UNL     1      33.116 -14.096 -23.820  0.00  0.00    +0.205 C 
BRANCH  14  15
ATOM     15  C   UNL     1      33.437 -12.831 -23.035  0.00  0.00    +0.047 C 
BRANCH  15  16
ATOM     16  C   UNL     1      32.220 -11.916 -22.918  0.00  0.00    +0.004 C 
BRANCH  16  17
ATOM     17  C   UNL     1      31.678 -11.891 -21.488  0.00  0.00    +0.008 C 
BRANCH  17  18
ATOM     18  C   UNL     1      30.581 -10.835 -21.328  0.00  0.00    +0.067 C 
BRANCH  18  21
ATOM     19  O   UNL     1      31.281  -9.638 -19.365  0.00  0.00    -0.358 OA
ATOM     20  N   UNL     1      31.771  -8.408 -18.942  0.00  0.00    -0.082 NA
ATOM     21  C   UNL     1      31.113  -9.575 -20.693  0.00  0.00    +0.154 C 
ATOM     22  C   UNL     1      31.459  -8.381 -21.198  0.00  0.00    +0.054 C 
ATOM     23  C   UNL     1      31.869  -7.674 -20.054  0.00  0.00    +0.101 C 
ATOM     24  C   UNL     1      32.365  -6.290 -19.978  0.00  0.00    +0.056 C 
ENDBRANCH  18  21
ENDBRANCH  17  18
ENDBRANCH  16  17
ENDBRANCH  15  16
ENDBRANCH  14  15
ENDBRANCH   1  14
TORSDOF 8
ENDMDL
MODEL 9
REMARK VINA RESULT:     -10.7      3.599      8.939
REMARK  Name = 5289566
REMARK  8 active torsions:
REMARK  status: ('A' for Active; 'I' for Inactive)
REMARK    1  A    between atoms: O_1  and  C_3
REMARK    2  A    between atoms: O_1  and  C_14
REMARK    3  A    between atoms: C_2  and  C_12
REMARK    4  A    between atoms: C_14  and  C_15
REMARK    5  A    between atoms: C_15  and  C_16
REMARK    6  A    between atoms: C_16  and  C_17
REMARK    7  A    between atoms: C_17  and  C_18
REMARK    8  A    between atoms: C_18  and  C_21
REMARK                            x       y       z     vdW  Elec       q    Type
REMARK                         _______ _______ _______ _____ _____    ______ ____
ROOT
ATOM      1  O   UNL     1      34.321 -19.782 -21.176  0.00  0.00    -0.475 OA
ENDROOT
BRANCH   1   3
ATOM      2  C   UNL     1      33.972 -21.997 -17.683  0.00  0.00    +0.053 C 
ATOM      3  C   UNL     1      34.205 -20.514 -20.022  0.00  0.00    +0.139 C 
ATOM      4  C   UNL     1      32.829 -21.636 -18.397  0.00  0.00    +0.008 C 
ATOM      5  C   UNL     1      35.232 -21.615 -18.143  0.00  0.00    +0.008 C 
ATOM      6  C   UNL     1      32.946 -20.892 -19.571  0.00  0.00    +0.037 C 
ATOM      7  C   UNL     1      35.349 -20.871 -19.317  0.00  0.00    +0.037 C 
BRANCH   2  12
ATOM      8  O   UNL     1      32.583 -22.893 -15.971  0.00  0.00    -0.458 OA
ATOM      9  N   UNL     1      34.818 -23.342 -15.795  0.00  0.00    -0.236 NA
ATOM     10  C   UNL     1      34.129 -24.057 -14.710  0.00  0.00    +0.150 C 
ATOM     11  C   UNL     1      32.740 -23.454 -14.677  0.00  0.00    +0.231 C 
ATOM     12  C   UNL     1      33.847 -22.781 -16.445  0.00  0.00    +0.220 C 
ATOM     13  C   UNL     1      34.886 -23.892 -13.405  0.00  0.00    +0.030 C 
ENDBRANCH   2  12
ENDBRANCH   1   3
BRANCH   1  14
ATOM     14  C   UNL     1      35.177 -18.649 -21.132  0.00  0.00    +0.205 C 
BRANCH  14  15
ATOM     15  C   UNL     1      35.455 -18.187 -22.556  0.00  0.00    +0.047 C 
BRANCH  15  16
ATOM     16  C   UNL     1      34.197 -18.235 -23.419  0.00  0.00    +0.004 C 
BRANCH  16  17
ATOM     17  C   UNL     1      33.839 -16.849 -23.959  0.00  0.00    +0.008 C 
BRANCH  17  18
ATOM     18  C   UNL     1      34.771 -15.774 -23.395  0.00  0.00    +0.067 C 
BRANCH  18  21
ATOM     19  O   UNL     1      34.369 -15.238 -21.087  0.00  0.00    -0.358 OA
ATOM     20  N   UNL     1      33.654 -14.375 -20.265  0.00  0.00    -0.082 NA
ATOM     21  C   UNL     1      34.077 -14.928 -22.358  0.00  0.00    +0.154 C 
ATOM     22  C   UNL     1      33.210 -13.908 -22.449  0.00  0.00    +0.054 C 
ATOM     23  C   UNL     1      32.969 -13.590 -21.102  0.00  0.00    +0.101 C 
ATOM     24  C   UNL     1      32.090 -12.538 -20.566  0.00  0.00    +0.056 C 
ENDBRANCH  18  21
ENDBRANCH  17  18
ENDBRANCH  16  17
ENDBRANCH  15  16
ENDBRANCH  14  15
ENDBRANCH   1  14
TORSDOF 8
ENDMDL
