MODEL 1
REMARK VINA RESULT:     -12.2      0.000      0.000
REMARK  Name = 1150567
REMARK  6 active torsions:
REMARK  status: ('A' for Active; 'I' for Inactive)
REMARK    1  A    between atoms: C_1  and  C_3
REMARK    2  A    between atoms: C_1  and  C_17
REMARK    3  A    between atoms: C_10  and  O_12
REMARK    4  A    between atoms: C_11  and  O_14
REMARK    5  A    between atoms: N_16  and  C_23
REMARK    6  A    between atoms: C_23  and  C_24
REMARK                            x       y       z     vdW  Elec       q    Type
REMARK                         _______ _______ _______ _____ _____    ______ ____
ROOT
ATOM      1  C   UNL     1      34.567 -19.159 -22.505  0.00  0.00    +0.008 C 
ENDROOT
BRANCH   1   3
ATOM      2  O   UNL     1      32.077 -19.855 -20.942  0.00  0.00    -0.291 OA
ATOM      3  C   UNL     1      34.382 -19.030 -21.005  0.00  0.00    +0.066 C 
ATOM      4  C   UNL     1      35.605 -19.541 -20.209  0.00  0.00    +0.034 C 
ATOM      5  C   UNL     1      33.219 -19.878 -20.519  0.00  0.00    +0.173 C 
ATOM      6  C   UNL     1      35.030 -20.539 -19.256  0.00  0.00    -0.016 C 
ATOM      7  C   UNL     1      33.668 -20.741 -19.438  0.00  0.00    +0.034 C 
ATOM      8  C   UNL     1      35.704 -21.250 -18.275  0.00  0.00    +0.036 C 
ATOM      9  C   UNL     1      32.930 -21.630 -18.681  0.00  0.00    +0.043 C 
ATOM     10  C   UNL     1      34.983 -22.156 -17.490  0.00  0.00    +0.172 C 
ATOM     11  C   UNL     1      33.606 -22.345 -17.692  0.00  0.00    +0.172 C 
BRANCH  10  12
ATOM     12  O   UNL     1      35.637 -22.861 -16.522  0.00  0.00    -0.468 OA
ATOM     13  C   UNL     1      36.674 -22.183 -15.818  0.00  0.00    +0.253 C 
ENDBRANCH  10  12
BRANCH  11  14
ATOM     14  O   UNL     1      32.916 -23.233 -16.921  0.00  0.00    -0.468 OA
ATOM     15  C   UNL     1      31.704 -22.771 -16.329  0.00  0.00    +0.253 C 
ENDBRANCH  11  14
ENDBRANCH   1   3
BRANCH   1  17
ATOM     16  N   UNL     1      33.407 -15.171 -23.688  0.00  0.00    +0.390 N 
ATOM     17  C   UNL     1      34.617 -17.793 -23.180  0.00  0.00    -0.004 C 
ATOM     18  C   UNL     1      33.432 -17.604 -24.132  0.00  0.00    -0.023 C 
ATOM     19  C   UNL     1      34.631 -16.665 -22.142  0.00  0.00    -0.023 C 
ATOM     20  C   UNL     1      33.420 -16.198 -24.736  0.00  0.00    -0.077 C 
ATOM     21  C   UNL     1      34.581 -15.290 -22.812  0.00  0.00    -0.077 C 
ATOM     22  H   UNL     1      32.573 -15.314 -23.117  0.00  0.00    -0.079 HD
BRANCH  16  23
ATOM     23  C   UNL     1      33.344 -13.835 -24.279  0.00  0.00    -0.050 C 
BRANCH  23  24
ATOM     24  C   UNL     1      32.735 -12.831 -23.337  0.00  0.00    -0.043 C 
ATOM     25  C   UNL     1      32.738 -11.485 -23.678  0.00  0.00    -0.006 C 
ATOM     26  C   UNL     1      32.182 -13.264 -22.140  0.00  0.00    -0.006 C 
ATOM     27  C   UNL     1      32.175 -10.554 -22.805  0.00  0.00    -0.000 C 
ATOM     28  C   UNL     1      31.618 -12.332 -21.267  0.00  0.00    -0.000 C 
ATOM     29  C   UNL     1      31.614 -10.978 -21.600  0.00  0.00    -0.000 C 
ENDBRANCH  23  24
ENDBRANCH  16  23
ENDBRANCH   1  17
TORSDOF 6
ENDMDL
MODEL 2
REMARK VINA RESULT:     -12.0      0.877      1.300
REMARK  Name = 1150567
REMARK  6 active torsions:
REMARK  status: ('A' for Active; 'I' for Inactive)
REMARK    1  A    between atoms: C_1  and  C_3
REMARK    2  A    between atoms: C_1  and  C_17
REMARK    3  A    between atoms: C_10  and  O_12
REMARK    4  A    between atoms: C_11  and  O_14
REMARK    5  A    between atoms: N_16  and  C_23
REMARK    6  A    between atoms: C_23  and  C_24
REMARK                            x       y       z     vdW  Elec       q    Type
REMARK                         _______ _______ _______ _____ _____    ______ ____
ROOT
ATOM      1  C   UNL     1      34.487 -19.878 -21.964  0.00  0.00    +0.008 C 
ENDROOT
BRANCH   1   3
ATOM      2  O   UNL     1      31.870 -20.062 -20.467  0.00  0.00    -0.291 OA
ATOM      3  C   UNL     1      34.288 -19.674 -20.474  0.00  0.00    +0.066 C 
ATOM      4  C   UNL     1      35.374 -20.377 -19.627  0.00  0.00    +0.034 C 
ATOM      5  C   UNL     1      32.976 -20.281 -20.007  0.00  0.00    +0.173 C 
ATOM      6  C   UNL     1      34.599 -21.225 -18.670  0.00  0.00    -0.016 C 
ATOM      7  C   UNL     1      33.229 -21.181 -18.892  0.00  0.00    +0.034 C 
ATOM      8  C   UNL     1      35.103 -22.019 -17.652  0.00  0.00    +0.036 C 
ATOM      9  C   UNL     1      32.319 -21.898 -18.139  0.00  0.00    +0.043 C 
ATOM     10  C   UNL     1      34.208 -22.756 -16.870  0.00  0.00    +0.172 C 
ATOM     11  C   UNL     1      32.825 -22.696 -17.112  0.00  0.00    +0.172 C 
BRANCH  10  12
ATOM     12  O   UNL     1      34.694 -23.540 -15.866  0.00  0.00    -0.468 OA
ATOM     13  C   UNL     1      35.755 -23.002 -15.081  0.00  0.00    +0.253 C 
ENDBRANCH  10  12
BRANCH  11  14
ATOM     14  O   UNL     1      31.963 -23.421 -16.345  0.00  0.00    -0.468 OA
ATOM     15  C   UNL     1      30.783 -22.758 -15.896  0.00  0.00    +0.253 C 
ENDBRANCH  11  14
ENDBRANCH   1   3
BRANCH   1  17
ATOM     16  N   UNL     1      33.835 -15.825 -23.304  0.00  0.00    +0.390 N 
ATOM     17  C   UNL     1      34.714 -18.552 -22.682  0.00  0.00    -0.004 C 
ATOM     18  C   UNL     1      33.578 -18.258 -23.668  0.00  0.00    -0.023 C 
ATOM     19  C   UNL     1      34.842 -17.398 -21.682  0.00  0.00    -0.023 C 
ATOM     20  C   UNL     1      33.746 -16.883 -24.318  0.00  0.00    -0.077 C 
ATOM     21  C   UNL     1      34.969 -16.051 -22.397  0.00  0.00    -0.077 C 
ATOM     22  H   UNL     1      32.979 -15.847 -22.749  0.00  0.00    -0.079 HD
BRANCH  16  23
ATOM     23  C   UNL     1      33.943 -14.512 -23.941  0.00  0.00    -0.050 C 
BRANCH  23  24
ATOM     24  C   UNL     1      33.230 -13.445 -23.153  0.00  0.00    -0.043 C 
ATOM     25  C   UNL     1      32.805 -13.720 -21.861  0.00  0.00    -0.006 C 
ATOM     26  C   UNL     1      33.007 -12.203 -23.730  0.00  0.00    -0.006 C 
ATOM     27  C   UNL     1      32.143 -12.733 -21.130  0.00  0.00    -0.000 C 
ATOM     28  C   UNL     1      32.346 -11.215 -22.999  0.00  0.00    -0.000 C 
ATOM     29  C   UNL     1      31.915 -11.481 -21.699  0.00  0.00    -0.000 C 
ENDBRANCH  23  24
ENDBRANCH  16  23
ENDBRANCH   1  17
TORSDOF 6
ENDMDL
MODEL 3
REMARK VINA RESULT:     -12.0      2.277      4.404
REMARK  Name = 1150567
REMARK  6 active torsions:
REMARK  status: ('A' for Active; 'I' for Inactive)
REMARK    1  A    between atoms: C_1  and  C_3
REMARK    2  A    between atoms: C_1  and  C_17
REMARK    3  A    between atoms: C_10  and  O_12
REMARK    4  A    between atoms: C_11  and  O_14
REMARK    5  A    between atoms: N_16  and  C_23
REMARK    6  A    between atoms: C_23  and  C_24
REMARK                            x       y       z     vdW  Elec       q    Type
REMARK                         _______ _______ _______ _____ _____    ______ ____
ROOT
ATOM      1  C   UNL     1      34.152 -22.046 -18.998  0.00  0.00    +0.008 C 
ENDROOT
BRANCH   1   3
ATOM      2  O   UNL     1      32.696 -22.723 -16.439  0.00  0.00    -0.291 OA
ATOM      3  C   UNL     1      34.502 -21.552 -17.607  0.00  0.00    +0.066 C 
ATOM      4  C   UNL     1      36.020 -21.605 -17.322  0.00  0.00    +0.034 C 
ATOM      5  C   UNL     1      33.874 -22.429 -16.538  0.00  0.00    +0.173 C 
ATOM      6  C   UNL     1      36.128 -22.394 -16.057  0.00  0.00    -0.016 C 
ATOM      7  C   UNL     1      34.903 -22.875 -15.612  0.00  0.00    +0.034 C 
ATOM      8  C   UNL     1      37.279 -22.684 -15.342  0.00  0.00    +0.036 C 
ATOM      9  C   UNL     1      34.764 -23.643 -14.472  0.00  0.00    +0.043 C 
ATOM     10  C   UNL     1      37.171 -23.457 -14.181  0.00  0.00    +0.172 C 
ATOM     11  C   UNL     1      35.922 -23.934 -13.750  0.00  0.00    +0.172 C 
BRANCH  10  12
ATOM     12  O   UNL     1      38.298 -23.748 -13.471  0.00  0.00    -0.468 OA
ATOM     13  C   UNL     1      39.080 -24.852 -13.921  0.00  0.00    +0.253 C 
ENDBRANCH  10  12
BRANCH  11  14
ATOM     14  O   UNL     1      35.830 -24.689 -12.618  0.00  0.00    -0.468 OA
ATOM     15  C   UNL     1      35.358 -24.037 -11.442  0.00  0.00    +0.253 C 
ENDBRANCH  11  14
ENDBRANCH   1   3
BRANCH   1  17
ATOM     16  N   UNL     1      35.056 -18.322 -20.990  0.00  0.00    +0.390 N 
ATOM     17  C   UNL     1      34.630 -21.073 -20.071  0.00  0.00    -0.004 C 
ATOM     18  C   UNL     1      33.483 -20.181 -20.558  0.00  0.00    -0.023 C 
ATOM     19  C   UNL     1      35.779 -20.202 -19.553  0.00  0.00    -0.023 C 
ATOM     20  C   UNL     1      33.977 -19.136 -21.561  0.00  0.00    -0.077 C 
ATOM     21  C   UNL     1      36.198 -19.157 -20.589  0.00  0.00    -0.077 C 
ATOM     22  H   UNL     1      34.695 -17.862 -20.154  0.00  0.00    -0.079 HD
BRANCH  16  23
ATOM     23  C   UNL     1      35.482 -17.295 -21.940  0.00  0.00    -0.050 C 
BRANCH  23  24
ATOM     24  C   UNL     1      34.662 -16.038 -21.815  0.00  0.00    -0.043 C 
ATOM     25  C   UNL     1      34.362 -15.303 -22.954  0.00  0.00    -0.006 C 
ATOM     26  C   UNL     1      34.220 -15.632 -20.564  0.00  0.00    -0.006 C 
ATOM     27  C   UNL     1      33.603 -14.138 -22.839  0.00  0.00    -0.000 C 
ATOM     28  C   UNL     1      33.460 -14.467 -20.449  0.00  0.00    -0.000 C 
ATOM     29  C   UNL     1      33.152 -13.721 -21.587  0.00  0.00    -0.000 C 
ENDBRANCH  23  24
ENDBRANCH  16  23
ENDBRANCH   1  17
TORSDOF 6
ENDMDL
MODEL 4
REMARK VINA RESULT:     -12.0      4.195      9.783
REMARK  Name = 1150567
REMARK  6 active torsions:
REMARK  status: ('A' for Active; 'I' for Inactive)
REMARK    1  A    between atoms: C_1  and  C_3
REMARK    2  A    between atoms: C_1  and  C_17
REMARK    3  A    between atoms: C_10  and  O_12
REMARK    4  A    between atoms: C_11  and  O_14
REMARK    5  A    between atoms: N_16  and  C_23
REMARK    6  A    between atoms: C_23  and  C_24
REMARK                            x       y       z     vdW  Elec       q    Type
REMARK                         _______ _______ _______ _____ _____    ______ ____
ROOT
ATOM      1  C   UNL     1      33.473 -15.080 -23.554  0.00  0.00    +0.008 C 
ENDROOT
BRANCH   1   3
ATOM      2  O   UNL     1      33.553 -12.349 -24.844  0.00  0.00    -0.291 OA
ATOM      3  C   UNL     1      33.835 -13.774 -22.873  0.00  0.00    +0.066 C 
ATOM      4  C   UNL     1      33.176 -13.627 -21.482  0.00  0.00    +0.034 C 
ATOM      5  C   UNL     1      33.335 -12.581 -23.668  0.00  0.00    +0.173 C 
ATOM      6  C   UNL     1      32.463 -12.315 -21.551  0.00  0.00    -0.016 C 
ATOM      7  C   UNL     1      32.543 -11.720 -22.804  0.00  0.00    +0.034 C 
ATOM      8  C   UNL     1      31.756 -11.687 -20.538  0.00  0.00    +0.036 C 
ATOM      9  C   UNL     1      31.946 -10.511 -23.104  0.00  0.00    +0.043 C 
ATOM     10  C   UNL     1      31.141 -10.461 -20.810  0.00  0.00    +0.172 C 
ATOM     11  C   UNL     1      31.235  -9.877 -22.084  0.00  0.00    +0.172 C 
BRANCH  10  12
ATOM     12  O   UNL     1      30.443  -9.835 -19.819  0.00  0.00    -0.468 OA
ATOM     13  C   UNL     1      31.182  -9.408 -18.678  0.00  0.00    +0.253 C 
ENDBRANCH  10  12
BRANCH  11  14
ATOM     14  O   UNL     1      30.629  -8.682 -22.337  0.00  0.00    -0.468 OA
ATOM     15  C   UNL     1      31.442  -7.514 -22.254  0.00  0.00    +0.253 C 
ENDBRANCH  11  14
ENDBRANCH   1   3
BRANCH   1  17
ATOM     16  N   UNL     1      34.615 -18.667 -21.439  0.00  0.00    +0.390 N 
ATOM     17  C   UNL     1      34.334 -16.232 -23.046  0.00  0.00    -0.004 C 
ATOM     18  C   UNL     1      34.451 -16.201 -21.519  0.00  0.00    -0.023 C 
ATOM     19  C   UNL     1      33.767 -17.583 -23.494  0.00  0.00    -0.023 C 
ATOM     20  C   UNL     1      35.229 -17.410 -20.995  0.00  0.00    -0.077 C 
ATOM     21  C   UNL     1      34.568 -18.746 -22.906  0.00  0.00    -0.077 C 
ATOM     22  H   UNL     1      33.657 -18.690 -21.092  0.00  0.00    -0.079 HD
BRANCH  16  23
ATOM     23  C   UNL     1      35.339 -19.813 -20.888  0.00  0.00    -0.050 C 
BRANCH  23  24
ATOM     24  C   UNL     1      34.515 -20.565 -19.877  0.00  0.00    -0.043 C 
ATOM     25  C   UNL     1      35.153 -21.344 -18.921  0.00  0.00    -0.006 C 
ATOM     26  C   UNL     1      33.132 -20.469 -19.915  0.00  0.00    -0.006 C 
ATOM     27  C   UNL     1      34.390 -22.041 -17.983  0.00  0.00    -0.000 C 
ATOM     28  C   UNL     1      32.369 -21.167 -18.976  0.00  0.00    -0.000 C 
ATOM     29  C   UNL     1      32.999 -21.952 -18.010  0.00  0.00    -0.000 C 
ENDBRANCH  23  24
ENDBRANCH  16  23
ENDBRANCH   1  17
TORSDOF 6
ENDMDL
MODEL 5
REMARK VINA RESULT:     -12.0      2.019      3.966
REMARK  Name = 1150567
REMARK  6 active torsions:
REMARK  status: ('A' for Active; 'I' for Inactive)
REMARK    1  A    between atoms: C_1  and  C_3
REMARK    2  A    between atoms: C_1  and  C_17
REMARK    3  A    between atoms: C_10  and  O_12
REMARK    4  A    between atoms: C_11  and  O_14
REMARK    5  A    between atoms: N_16  and  C_23
REMARK    6  A    between atoms: C_23  and  C_24
REMARK                            x       y       z     vdW  Elec       q    Type
REMARK                         _______ _______ _______ _____ _____    ______ ____
ROOT
ATOM      1  C   UNL     1      35.868 -20.238 -18.989  0.00  0.00    +0.008 C 
ENDROOT
BRANCH   1   3
ATOM      2  O   UNL     1      36.630 -21.965 -16.630  0.00  0.00    -0.291 OA
ATOM      3  C   UNL     1      35.329 -21.620 -18.676  0.00  0.00    +0.066 C 
ATOM      4  C   UNL     1      33.797 -21.719 -18.866  0.00  0.00    +0.034 C 
ATOM      5  C   UNL     1      35.565 -21.987 -17.221  0.00  0.00    +0.173 C 
ATOM      6  C   UNL     1      33.300 -22.247 -17.559  0.00  0.00    -0.016 C 
ATOM      7  C   UNL     1      34.307 -22.391 -16.613  0.00  0.00    +0.034 C 
ATOM      8  C   UNL     1      31.994 -22.569 -17.224  0.00  0.00    +0.036 C 
ATOM      9  C   UNL     1      34.076 -22.848 -15.329  0.00  0.00    +0.043 C 
ATOM     10  C   UNL     1      31.728 -23.037 -15.933  0.00  0.00    +0.172 C 
ATOM     11  C   UNL     1      32.762 -23.175 -14.993  0.00  0.00    +0.172 C 
BRANCH  10  12
ATOM     12  O   UNL     1      30.446 -23.356 -15.594  0.00  0.00    -0.468 OA
ATOM     13  C   UNL     1      29.415 -22.510 -16.096  0.00  0.00    +0.253 C 
ENDBRANCH  10  12
BRANCH  11  14
ATOM     14  O   UNL     1      32.490 -23.629 -13.736  0.00  0.00    -0.468 OA
ATOM     15  C   UNL     1      33.599 -23.808 -12.858  0.00  0.00    +0.253 C 
ENDBRANCH  11  14
ENDBRANCH   1   3
BRANCH   1  17
ATOM     16  N   UNL     1      34.612 -17.814 -22.335  0.00  0.00    +0.390 N 
ATOM     17  C   UNL     1      35.553 -19.828 -20.424  0.00  0.00    -0.004 C 
ATOM     18  C   UNL     1      34.071 -19.475 -20.584  0.00  0.00    -0.023 C 
ATOM     19  C   UNL     1      36.417 -18.640 -20.860  0.00  0.00    -0.023 C 
ATOM     20  C   UNL     1      33.768 -18.967 -21.995  0.00  0.00    -0.077 C 
ATOM     21  C   UNL     1      36.038 -18.160 -22.262  0.00  0.00    -0.077 C 
ATOM     22  H   UNL     1      34.431 -17.079 -21.652  0.00  0.00    -0.079 HD
BRANCH  16  23
ATOM     23  C   UNL     1      34.276 -17.308 -23.666  0.00  0.00    -0.050 C 
BRANCH  23  24
ATOM     24  C   UNL     1      33.914 -15.847 -23.636  0.00  0.00    -0.043 C 
ATOM     25  C   UNL     1      33.309 -15.271 -24.745  0.00  0.00    -0.006 C 
ATOM     26  C   UNL     1      34.191 -15.096 -22.502  0.00  0.00    -0.006 C 
ATOM     27  C   UNL     1      32.974 -13.916 -24.719  0.00  0.00    -0.000 C 
ATOM     28  C   UNL     1      33.855 -13.742 -22.476  0.00  0.00    -0.000 C 
ATOM     29  C   UNL     1      33.247 -13.153 -23.585  0.00  0.00    -0.000 C 
ENDBRANCH  23  24
ENDBRANCH  16  23
ENDBRANCH   1  17
TORSDOF 6
ENDMDL
MODEL 6
REMARK VINA RESULT:     -11.3      5.052     11.477
REMARK  Name = 1150567
REMARK  6 active torsions:
REMARK  status: ('A' for Active; 'I' for Inactive)
REMARK    1  A    between atoms: C_1  and  C_3
REMARK    2  A    between atoms: C_1  and  C_17
REMARK    3  A    between atoms: C_10  and  O_12
REMARK    4  A    between atoms: C_11  and  O_14
REMARK    5  A    between atoms: N_16  and  C_23
REMARK    6  A    between atoms: C_23  and  C_24
REMARK                            x       y       z     vdW  Elec       q    Type
REMARK                         _______ _______ _______ _____ _____    ______ ____
ROOT
ATOM      1  C   UNL     1      32.359 -11.995 -21.673  0.00  0.00    +0.008 C 
ENDROOT
BRANCH   1   3
ATOM      2  O   UNL     1      30.025 -10.079 -21.734  0.00  0.00    -0.291 OA
ATOM      3  C   UNL     1      32.069 -10.966 -22.749  0.00  0.00    +0.066 C 
ATOM      4  C   UNL     1      33.334 -10.193 -23.188  0.00  0.00    +0.034 C 
ATOM      5  C   UNL     1      31.115  -9.897 -22.244  0.00  0.00    +0.173 C 
ATOM      6  C   UNL     1      32.961  -8.755 -23.020  0.00  0.00    -0.016 C 
ATOM      7  C   UNL     1      31.697  -8.583 -22.470  0.00  0.00    +0.034 C 
ATOM      8  C   UNL     1      33.731  -7.645 -23.331  0.00  0.00    +0.036 C 
ATOM      9  C   UNL     1      31.151  -7.341 -22.210  0.00  0.00    +0.043 C 
ATOM     10  C   UNL     1      33.204  -6.373 -23.081  0.00  0.00    +0.172 C 
ATOM     11  C   UNL     1      31.924  -6.222 -22.524  0.00  0.00    +0.172 C 
BRANCH  10  12
ATOM     12  O   UNL     1      33.954  -5.274 -23.383  0.00  0.00    -0.468 OA
ATOM     13  C   UNL     1      33.973  -4.860 -24.747  0.00  0.00    +0.253 C 
ENDBRANCH  10  12
BRANCH  11  14
ATOM     14  O   UNL     1      31.423  -4.977 -22.284  0.00  0.00    -0.468 OA
ATOM     15  C   UNL     1      30.040  -4.890 -21.946  0.00  0.00    +0.253 C 
ENDBRANCH  11  14
ENDBRANCH   1   3
BRANCH   1  17
ATOM     16  N   UNL     1      33.825 -15.870 -22.892  0.00  0.00    +0.390 N 
ATOM     17  C   UNL     1      33.313 -13.074 -22.177  0.00  0.00    -0.004 C 
ATOM     18  C   UNL     1      33.512 -14.169 -21.124  0.00  0.00    -0.023 C 
ATOM     19  C   UNL     1      32.802 -13.696 -23.481  0.00  0.00    -0.023 C 
ATOM     20  C   UNL     1      34.387 -15.304 -21.660  0.00  0.00    -0.077 C 
ATOM     21  C   UNL     1      33.701 -14.846 -23.939  0.00  0.00    -0.077 C 
ATOM     22  H   UNL     1      32.890 -16.219 -22.681  0.00  0.00    -0.079 HD
BRANCH  16  23
ATOM     23  C   UNL     1      34.644 -16.987 -23.364  0.00  0.00    -0.050 C 
BRANCH  23  24
ATOM     24  C   UNL     1      34.916 -17.985 -22.270  0.00  0.00    -0.043 C 
ATOM     25  C   UNL     1      36.181 -18.046 -21.701  0.00  0.00    -0.006 C 
ATOM     26  C   UNL     1      33.900 -18.831 -21.848  0.00  0.00    -0.006 C 
ATOM     27  C   UNL     1      36.434 -18.971 -20.687  0.00  0.00    -0.000 C 
ATOM     28  C   UNL     1      34.154 -19.756 -20.833  0.00  0.00    -0.000 C 
ATOM     29  C   UNL     1      35.421 -19.825 -20.254  0.00  0.00    -0.000 C 
ENDBRANCH  23  24
ENDBRANCH  16  23
ENDBRANCH   1  17
TORSDOF 6
ENDMDL
MODEL 7
REMARK VINA RESULT:     -11.2      3.146      9.659
REMARK  Name = 1150567
REMARK  6 active torsions:
REMARK  status: ('A' for Active; 'I' for Inactive)
REMARK    1  A    between atoms: C_1  and  C_3
REMARK    2  A    between atoms: C_1  and  C_17
REMARK    3  A    between atoms: C_10  and  O_12
REMARK    4  A    between atoms: C_11  and  O_14
REMARK    5  A    between atoms: N_16  and  C_23
REMARK    6  A    between atoms: C_23  and  C_24
REMARK                            x       y       z     vdW  Elec       q    Type
REMARK                         _______ _______ _______ _____ _____    ______ ____
ROOT
ATOM      1  C   UNL     1      35.502 -17.726 -21.365  0.00  0.00    +0.008 C 
ENDROOT
BRANCH   1   3
ATOM      2  O   UNL     1      34.220 -15.464 -19.828  0.00  0.00    -0.291 OA
ATOM      3  C   UNL     1      34.208 -17.019 -21.719  0.00  0.00    +0.066 C 
ATOM      4  C   UNL     1      34.101 -16.693 -23.227  0.00  0.00    +0.034 C 
ATOM      5  C   UNL     1      34.107 -15.673 -21.023  0.00  0.00    +0.173 C 
ATOM      6  C   UNL     1      33.827 -15.224 -23.266  0.00  0.00    -0.016 C 
ATOM      7  C   UNL     1      33.841 -14.637 -22.008  0.00  0.00    +0.034 C 
ATOM      8  C   UNL     1      33.592 -14.442 -24.386  0.00  0.00    +0.036 C 
ATOM      9  C   UNL     1      33.628 -13.286 -21.804  0.00  0.00    +0.043 C 
ATOM     10  C   UNL     1      33.370 -13.072 -24.212  0.00  0.00    +0.172 C 
ATOM     11  C   UNL     1      33.389 -12.498 -22.930  0.00  0.00    +0.172 C 
BRANCH  10  12
ATOM     12  O   UNL     1      33.138 -12.294 -25.307  0.00  0.00    -0.468 OA
ATOM     13  C   UNL     1      32.623 -12.945 -26.466  0.00  0.00    +0.253 C 
ENDBRANCH  10  12
BRANCH  11  14
ATOM     14  O   UNL     1      33.174 -11.161 -22.774  0.00  0.00    -0.468 OA
ATOM     15  C   UNL     1      31.865 -10.758 -22.380  0.00  0.00    +0.253 C 
ENDBRANCH  11  14
ENDBRANCH   1   3
BRANCH   1  17
ATOM     16  N   UNL     1      34.379 -21.191 -19.045  0.00  0.00    +0.390 N 
ATOM     17  C   UNL     1      35.256 -19.185 -20.995  0.00  0.00    -0.004 C 
ATOM     18  C   UNL     1      36.119 -19.603 -19.799  0.00  0.00    -0.023 C 
ATOM     19  C   UNL     1      33.778 -19.432 -20.677  0.00  0.00    -0.023 C 
ATOM     20  C   UNL     1      35.804 -21.034 -19.359  0.00  0.00    -0.077 C 
ATOM     21  C   UNL     1      33.540 -20.869 -20.208  0.00  0.00    -0.077 C 
ATOM     22  H   UNL     1      34.146 -20.536 -18.299  0.00  0.00    -0.079 HD
BRANCH  16  23
ATOM     23  C   UNL     1      34.103 -22.549 -18.577  0.00  0.00    -0.050 C 
BRANCH  23  24
ATOM     24  C   UNL     1      33.354 -22.551 -17.270  0.00  0.00    -0.043 C 
ATOM     25  C   UNL     1      34.061 -22.653 -16.079  0.00  0.00    -0.006 C 
ATOM     26  C   UNL     1      31.971 -22.454 -17.275  0.00  0.00    -0.006 C 
ATOM     27  C   UNL     1      33.368 -22.656 -14.868  0.00  0.00    -0.000 C 
ATOM     28  C   UNL     1      31.278 -22.456 -16.063  0.00  0.00    -0.000 C 
ATOM     29  C   UNL     1      31.977 -22.557 -14.860  0.00  0.00    -0.000 C 
ENDBRANCH  23  24
ENDBRANCH  16  23
ENDBRANCH   1  17
TORSDOF 6
ENDMDL
MODEL 8
REMARK VINA RESULT:     -11.0      4.374     10.835
REMARK  Name = 1150567
REMARK  6 active torsions:
REMARK  status: ('A' for Active; 'I' for Inactive)
REMARK    1  A    between atoms: C_1  and  C_3
REMARK    2  A    between atoms: C_1  and  C_17
REMARK    3  A    between atoms: C_10  and  O_12
REMARK    4  A    between atoms: C_11  and  O_14
REMARK    5  A    between atoms: N_16  and  C_23
REMARK    6  A    between atoms: C_23  and  C_24
REMARK                            x       y       z     vdW  Elec       q    Type
REMARK                         _______ _______ _______ _____ _____    ______ ____
ROOT
ATOM      1  C   UNL     1      33.682 -13.019 -21.617  0.00  0.00    +0.008 C 
ENDROOT
BRANCH   1   3
ATOM      2  O   UNL     1      31.539 -11.641 -19.995  0.00  0.00    -0.291 OA
ATOM      3  C   UNL     1      32.465 -12.298 -22.164  0.00  0.00    +0.066 C 
ATOM      4  C   UNL     1      32.802 -11.397 -23.376  0.00  0.00    +0.034 C 
ATOM      5  C   UNL     1      31.873 -11.355 -21.131  0.00  0.00    +0.173 C 
ATOM      6  C   UNL     1      32.269 -10.054 -22.992  0.00  0.00    -0.016 C 
ATOM      7  C   UNL     1      31.747 -10.025 -21.705  0.00  0.00    +0.034 C 
ATOM      8  C   UNL     1      32.267  -8.900 -23.759  0.00  0.00    +0.036 C 
ATOM      9  C   UNL     1      31.213  -8.885 -21.134  0.00  0.00    +0.043 C 
ATOM     10  C   UNL     1      31.731  -7.730 -23.210  0.00  0.00    +0.172 C 
ATOM     11  C   UNL     1      31.209  -7.723 -21.906  0.00  0.00    +0.172 C 
BRANCH  10  12
ATOM     12  O   UNL     1      31.725  -6.589 -23.957  0.00  0.00    -0.468 OA
ATOM     13  C   UNL     1      30.734  -6.489 -24.977  0.00  0.00    +0.253 C 
ENDBRANCH  10  12
BRANCH  11  14
ATOM     14  O   UNL     1      30.692  -6.576 -21.380  0.00  0.00    -0.468 OA
ATOM     15  C   UNL     1      31.529  -5.837 -20.493  0.00  0.00    +0.253 C 
ENDBRANCH  11  14
ENDBRANCH   1   3
BRANCH   1  17
ATOM     16  N   UNL     1      35.010 -17.059 -22.370  0.00  0.00    +0.390 N 
ATOM     17  C   UNL     1      33.628 -14.513 -21.919  0.00  0.00    -0.004 C 
ATOM     18  C   UNL     1      34.348 -14.837 -23.232  0.00  0.00    -0.023 C 
ATOM     19  C   UNL     1      34.243 -15.328 -20.777  0.00  0.00    -0.023 C 
ATOM     20  C   UNL     1      34.385 -16.345 -23.490  0.00  0.00    -0.077 C 
ATOM     21  C   UNL     1      34.283 -16.820 -21.115  0.00  0.00    -0.077 C 
ATOM     22  H   UNL     1      35.958 -16.699 -22.257  0.00  0.00    -0.079 HD
BRANCH  16  23
ATOM     23  C   UNL     1      35.085 -18.492 -22.653  0.00  0.00    -0.050 C 
BRANCH  23  24
ATOM     24  C   UNL     1      34.804 -19.322 -21.428  0.00  0.00    -0.043 C 
ATOM     25  C   UNL     1      35.864 -19.766 -20.648  0.00  0.00    -0.006 C 
ATOM     26  C   UNL     1      33.493 -19.632 -21.097  0.00  0.00    -0.006 C 
ATOM     27  C   UNL     1      35.605 -20.536 -19.513  0.00  0.00    -0.000 C 
ATOM     28  C   UNL     1      33.235 -20.402 -19.962  0.00  0.00    -0.000 C 
ATOM     29  C   UNL     1      34.292 -20.853 -19.170  0.00  0.00    -0.000 C 
ENDBRANCH  23  24
ENDBRANCH  16  23
ENDBRANCH   1  17
TORSDOF 6
ENDMDL
MODEL 9
REMARK VINA RESULT:     -10.9      3.449      6.847
REMARK  Name = 1150567
REMARK  6 active torsions:
REMARK  status: ('A' for Active; 'I' for Inactive)
REMARK    1  A    between atoms: C_1  and  C_3
REMARK    2  A    between atoms: C_1  and  C_17
REMARK    3  A    between atoms: C_10  and  O_12
REMARK    4  A    between atoms: C_11  and  O_14
REMARK    5  A    between atoms: N_16  and  C_23
REMARK    6  A    between atoms: C_23  and  C_24
REMARK                            x       y       z     vdW  Elec       q    Type
REMARK                         _______ _______ _______ _____ _____    ______ ____
ROOT
ATOM      1  C   UNL     1      32.118 -12.764 -22.537  0.00  0.00    +0.008 C 
ENDROOT
BRANCH   1   3
ATOM      2  O   UNL     1      33.935 -13.723 -20.323  0.00  0.00    -0.291 OA
ATOM      3  C   UNL     1      33.464 -13.442 -22.709  0.00  0.00    +0.066 C 
ATOM      4  C   UNL     1      33.449 -14.521 -23.816  0.00  0.00    +0.034 C 
ATOM      5  C   UNL     1      33.872 -14.184 -21.448  0.00  0.00    +0.173 C 
ATOM      6  C   UNL     1      33.963 -15.750 -23.137  0.00  0.00    -0.016 C 
ATOM      7  C   UNL     1      34.195 -15.563 -21.780  0.00  0.00    +0.034 C 
ATOM      8  C   UNL     1      34.197 -16.991 -23.708  0.00  0.00    +0.036 C 
ATOM      9  C   UNL     1      34.656 -16.566 -20.949  0.00  0.00    +0.043 C 
ATOM     10  C   UNL     1      34.666 -18.026 -22.893  0.00  0.00    +0.172 C 
ATOM     11  C   UNL     1      34.894 -17.815 -21.523  0.00  0.00    +0.172 C 
BRANCH  10  12
ATOM     12  O   UNL     1      34.899 -19.251 -23.445  0.00  0.00    -0.468 OA
ATOM     13  C   UNL     1      34.057 -19.644 -24.526  0.00  0.00    +0.253 C 
ENDBRANCH  10  12
BRANCH  11  14
ATOM     14  O   UNL     1      35.349 -18.833 -20.738  0.00  0.00    -0.468 OA
ATOM     15  C   UNL     1      34.398 -19.817 -20.339  0.00  0.00    +0.253 C 
ENDBRANCH  11  14
ENDBRANCH   1   3
BRANCH   1  17
ATOM     16  N   UNL     1      31.376  -8.519 -22.264  0.00  0.00    +0.390 N 
ATOM     17  C   UNL     1      32.278 -11.305 -22.124  0.00  0.00    -0.004 C 
ATOM     18  C   UNL     1      32.546 -10.413 -23.341  0.00  0.00    -0.023 C 
ATOM     19  C   UNL     1      31.036 -10.804 -21.380  0.00  0.00    -0.023 C 
ATOM     20  C   UNL     1      32.607  -8.936 -22.947  0.00  0.00    -0.077 C 
ATOM     21  C   UNL     1      31.146  -9.314 -21.050  0.00  0.00    -0.077 C 
ATOM     22  H   UNL     1      30.594  -8.680 -22.898  0.00  0.00    -0.079 HD
BRANCH  16  23
ATOM     23  C   UNL     1      31.428  -7.093 -21.940  0.00  0.00    -0.050 C 
BRANCH  23  24
ATOM     24  C   UNL     1      31.902  -6.269 -23.107  0.00  0.00    -0.043 C 
ATOM     25  C   UNL     1      31.141  -6.226 -24.267  0.00  0.00    -0.006 C 
ATOM     26  C   UNL     1      33.093  -5.564 -23.007  0.00  0.00    -0.006 C 
ATOM     27  C   UNL     1      31.580  -5.463 -25.349  0.00  0.00    -0.000 C 
ATOM     28  C   UNL     1      33.532  -4.800 -24.090  0.00  0.00    -0.000 C 
ATOM     29  C   UNL     1      32.774  -4.750 -25.260  0.00  0.00    -0.000 C 
ENDBRANCH  23  24
ENDBRANCH  16  23
ENDBRANCH   1  17
TORSDOF 6
ENDMDL
