MODEL 1
REMARK VINA RESULT:     -13.0      0.000      0.000
REMARK  Name = 46937094
REMARK  6 active torsions:
REMARK  status: ('A' for Active; 'I' for Inactive)
REMARK    1  A    between atoms: C_3  and  C_10
REMARK    2  A    between atoms: C_7  and  C_22
REMARK    3  A    between atoms: N_9  and  C_12
REMARK    4  A    between atoms: C_22  and  N_25
REMARK    5  A    between atoms: C_26  and  C_28
REMARK    6  A    between atoms: C_28  and  N_29
REMARK                            x       y       z     vdW  Elec       q    Type
REMARK                         _______ _______ _______ _____ _____    ______ ____
ROOT
ATOM      1  O   UNL     1      36.112 -17.861 -20.250  0.00  0.00    -0.273 OA
ATOM      2  N   UNL     1      34.683 -17.984 -22.065  0.00  0.00    -0.272 N 
ATOM      3  C   UNL     1      35.033 -16.693 -22.642  0.00  0.00    +0.152 C 
ATOM      4  C   UNL     1      34.470 -16.734 -24.057  0.00  0.00    +0.031 C 
ATOM      5  C   UNL     1      33.270 -17.671 -23.934  0.00  0.00    +0.024 C 
ATOM      6  C   UNL     1      33.732 -18.699 -22.914  0.00  0.00    +0.094 C 
ATOM      7  C   UNL     1      35.314 -18.495 -20.942  0.00  0.00    +0.244 C 
ENDROOT
BRANCH   3  10
ATOM      8  O   UNL     1      34.369 -15.714 -20.583  0.00  0.00    -0.273 OA
ATOM      9  N   UNL     1      33.789 -14.660 -22.605  0.00  0.00    -0.283 N 
ATOM     10  C   UNL     1      34.365 -15.641 -21.807  0.00  0.00    +0.244 C 
ATOM     11  H   UNL     1      33.889 -14.776 -23.577  0.00  0.00    +0.155 HD
BRANCH   9  12
ATOM     12  C   UNL     1      33.075 -13.514 -22.181  0.00  0.00    +0.050 C 
ATOM     13  C   UNL     1      33.046 -12.374 -22.984  0.00  0.00    +0.015 C 
ATOM     14  C   UNL     1      32.402 -13.527 -20.962  0.00  0.00    +0.015 C 
ATOM     15  C   UNL     1      32.342 -11.229 -22.577  0.00  0.00    +0.001 C 
ATOM     16  C   UNL     1      31.656 -11.241 -21.339  0.00  0.00    +0.000 C 
ATOM     17  C   UNL     1      31.697 -12.398 -20.543  0.00  0.00    +0.001 C 
ATOM     18  C   UNL     1      32.301 -10.073 -23.372  0.00  0.00    +0.000 C 
ATOM     19  C   UNL     1      30.952 -10.096 -20.932  0.00  0.00    +0.000 C 
ATOM     20  C   UNL     1      31.596  -8.944 -22.953  0.00  0.00    +0.000 C 
ATOM     21  C   UNL     1      30.923  -8.956 -21.734  0.00  0.00    +0.000 C 
ENDBRANCH   9  12
ENDBRANCH   3  10
BRANCH   7  22
ATOM     22  C   UNL     1      34.956 -19.915 -20.584  0.00  0.00    +0.149 C 
ATOM     23  C   UNL     1      33.476 -20.040 -20.311  0.00  0.00    +0.031 C 
BRANCH  22  25
ATOM     24  O   UNL     1      34.655 -22.142 -18.761  0.00  0.00    -0.277 OA
ATOM     25  N   UNL     1      35.749 -20.202 -19.428  0.00  0.00    -0.300 N 
ATOM     26  C   UNL     1      35.538 -21.302 -18.597  0.00  0.00    +0.201 C 
ATOM     27  H   UNL     1      36.487 -19.588 -19.206  0.00  0.00    +0.150 HD
BRANCH  26  28
ATOM     28  C   UNL     1      36.507 -21.340 -17.432  0.00  0.00    +0.001 C 
BRANCH  28  29
ATOM     29  N   UNL     1      36.876 -19.975 -17.087  0.00  0.00    +0.386 N 
ATOM     30  H   UNL     1      37.618 -19.990 -16.386  0.00  0.00    -0.089 HD
ATOM     31  H   UNL     1      36.063 -19.487 -16.711  0.00  0.00    -0.089 HD
ATOM     32  H   UNL     1      37.208 -19.490 -17.922  0.00  0.00    -0.089 HD
ENDBRANCH  28  29
ENDBRANCH  26  28
ENDBRANCH  22  25
ENDBRANCH   7  22
TORSDOF 6
ENDMDL
MODEL 2
REMARK VINA RESULT:     -12.1      5.851      8.717
REMARK  Name = 46937094
REMARK  6 active torsions:
REMARK  status: ('A' for Active; 'I' for Inactive)
REMARK    1  A    between atoms: C_3  and  C_10
REMARK    2  A    between atoms: C_7  and  C_22
REMARK    3  A    between atoms: N_9  and  C_12
REMARK    4  A    between atoms: C_22  and  N_25
REMARK    5  A    between atoms: C_26  and  C_28
REMARK    6  A    between atoms: C_28  and  N_29
REMARK                            x       y       z     vdW  Elec       q    Type
REMARK                         _______ _______ _______ _____ _____    ______ ____
ROOT
ATOM      1  O   UNL     1      34.835 -23.418 -16.424  0.00  0.00    -0.273 OA
ATOM      2  N   UNL     1      32.940 -23.029 -15.153  0.00  0.00    -0.272 N 
ATOM      3  C   UNL     1      31.975 -23.451 -16.160  0.00  0.00    +0.152 C 
ATOM      4  C   UNL     1      30.668 -23.624 -15.396  0.00  0.00    +0.031 C 
ATOM      5  C   UNL     1      30.795 -22.628 -14.246  0.00  0.00    +0.024 C 
ATOM      6  C   UNL     1      32.275 -22.679 -13.901  0.00  0.00    +0.094 C 
ATOM      7  C   UNL     1      34.309 -23.118 -15.350  0.00  0.00    +0.244 C 
ENDROOT
BRANCH   3  10
ATOM      8  O   UNL     1      30.855 -21.697 -17.303  0.00  0.00    -0.273 OA
ATOM      9  N   UNL     1      33.075 -22.219 -17.879  0.00  0.00    -0.283 N 
ATOM     10  C   UNL     1      31.885 -22.349 -17.174  0.00  0.00    +0.244 C 
ATOM     11  H   UNL     1      33.796 -22.842 -17.633  0.00  0.00    +0.155 HD
BRANCH   9  12
ATOM     12  C   UNL     1      33.370 -21.296 -18.910  0.00  0.00    +0.050 C 
ATOM     13  C   UNL     1      34.683 -20.877 -19.116  0.00  0.00    +0.015 C 
ATOM     14  C   UNL     1      32.346 -20.807 -19.718  0.00  0.00    +0.015 C 
ATOM     15  C   UNL     1      34.991 -19.961 -20.135  0.00  0.00    +0.001 C 
ATOM     16  C   UNL     1      33.952 -19.464 -20.958  0.00  0.00    +0.000 C 
ATOM     17  C   UNL     1      32.634 -19.897 -20.735  0.00  0.00    +0.001 C 
ATOM     18  C   UNL     1      36.308 -19.528 -20.358  0.00  0.00    +0.000 C 
ATOM     19  C   UNL     1      34.260 -18.548 -21.976  0.00  0.00    +0.000 C 
ATOM     20  C   UNL     1      36.597 -18.618 -21.375  0.00  0.00    +0.000 C 
ATOM     21  C   UNL     1      35.574 -18.129 -22.183  0.00  0.00    +0.000 C 
ENDBRANCH   9  12
ENDBRANCH   3  10
BRANCH   7  22
ATOM     22  C   UNL     1      35.161 -22.808 -14.145  0.00  0.00    +0.149 C 
ATOM     23  C   UNL     1      36.234 -21.803 -14.493  0.00  0.00    +0.031 C 
BRANCH  22  25
ATOM     24  O   UNL     1      36.252 -23.529 -11.564  0.00  0.00    -0.277 OA
ATOM     25  N   UNL     1      35.705 -24.073 -13.757  0.00  0.00    -0.300 N 
ATOM     26  C   UNL     1      36.213 -24.341 -12.486  0.00  0.00    +0.201 C 
ATOM     27  H   UNL     1      35.721 -24.797 -14.425  0.00  0.00    +0.150 HD
BRANCH  26  28
ATOM     28  C   UNL     1      36.752 -25.753 -12.366  0.00  0.00    +0.001 C 
BRANCH  28  29
ATOM     29  N   UNL     1      36.411 -26.487 -13.576  0.00  0.00    +0.386 N 
ATOM     30  H   UNL     1      37.240 -26.575 -14.165  0.00  0.00    -0.089 HD
ATOM     31  H   UNL     1      35.684 -25.985 -14.086  0.00  0.00    -0.089 HD
ATOM     32  H   UNL     1      36.072 -27.416 -13.326  0.00  0.00    -0.089 HD
ENDBRANCH  28  29
ENDBRANCH  26  28
ENDBRANCH  22  25
ENDBRANCH   7  22
TORSDOF 6
ENDMDL
MODEL 3
REMARK VINA RESULT:     -11.8      5.726      8.976
REMARK  Name = 46937094
REMARK  6 active torsions:
REMARK  status: ('A' for Active; 'I' for Inactive)
REMARK    1  A    between atoms: C_3  and  C_10
REMARK    2  A    between atoms: C_7  and  C_22
REMARK    3  A    between atoms: N_9  and  C_12
REMARK    4  A    between atoms: C_22  and  N_25
REMARK    5  A    between atoms: C_26  and  C_28
REMARK    6  A    between atoms: C_28  and  N_29
REMARK                            x       y       z     vdW  Elec       q    Type
REMARK                         _______ _______ _______ _____ _____    ______ ____
ROOT
ATOM      1  O   UNL     1      36.588 -24.268 -15.442  0.00  0.00    -0.273 OA
ATOM      2  N   UNL     1      34.584 -23.598 -14.498  0.00  0.00    -0.272 N 
ATOM      3  C   UNL     1      33.803 -23.624 -15.727  0.00  0.00    +0.152 C 
ATOM      4  C   UNL     1      32.352 -23.570 -15.266  0.00  0.00    +0.031 C 
ATOM      5  C   UNL     1      32.427 -22.805 -13.947  0.00  0.00    +0.024 C 
ATOM      6  C   UNL     1      33.745 -23.269 -13.348  0.00  0.00    +0.094 C 
ATOM      7  C   UNL     1      35.910 -23.997 -14.449  0.00  0.00    +0.244 C 
ENDROOT
BRANCH   3  10
ATOM      8  O   UNL     1      34.927 -21.556 -16.040  0.00  0.00    -0.273 OA
ATOM      9  N   UNL     1      33.585 -22.416 -17.770  0.00  0.00    -0.283 N 
ATOM     10  C   UNL     1      34.182 -22.406 -16.516  0.00  0.00    +0.244 C 
ATOM     11  H   UNL     1      33.011 -23.190 -17.973  0.00  0.00    +0.155 HD
BRANCH   9  12
ATOM     12  C   UNL     1      33.704 -21.442 -18.789  0.00  0.00    +0.050 C 
ATOM     13  C   UNL     1      34.958 -20.929 -19.121  0.00  0.00    +0.015 C 
ATOM     14  C   UNL     1      32.568 -20.995 -19.460  0.00  0.00    +0.015 C 
ATOM     15  C   UNL     1      35.092 -19.961 -20.130  0.00  0.00    +0.001 C 
ATOM     16  C   UNL     1      33.939 -19.508 -20.813  0.00  0.00    +0.000 C 
ATOM     17  C   UNL     1      32.684 -20.035 -20.465  0.00  0.00    +0.001 C 
ATOM     18  C   UNL     1      36.347 -19.435 -20.478  0.00  0.00    +0.000 C 
ATOM     19  C   UNL     1      34.073 -18.540 -21.822  0.00  0.00    +0.000 C 
ATOM     20  C   UNL     1      36.463 -18.474 -21.483  0.00  0.00    +0.000 C 
ATOM     21  C   UNL     1      35.327 -18.028 -22.154  0.00  0.00    +0.000 C 
ENDBRANCH   9  12
ENDBRANCH   3  10
BRANCH   7  22
ATOM     22  C   UNL     1      36.515 -24.077 -13.070  0.00  0.00    +0.149 C 
ATOM     23  C   UNL     1      36.357 -22.764 -12.340  0.00  0.00    +0.031 C 
BRANCH  22  25
ATOM     24  O   UNL     1      37.622 -26.706 -13.558  0.00  0.00    -0.277 OA
ATOM     25  N   UNL     1      37.888 -24.410 -13.301  0.00  0.00    -0.300 N 
ATOM     26  C   UNL     1      38.341 -25.709 -13.530  0.00  0.00    +0.201 C 
ATOM     27  H   UNL     1      38.550 -23.681 -13.299  0.00  0.00    +0.150 HD
BRANCH  26  28
ATOM     28  C   UNL     1      39.845 -25.771 -13.712  0.00  0.00    +0.001 C 
BRANCH  28  29
ATOM     29  N   UNL     1      40.186 -25.156 -14.986  0.00  0.00    +0.386 N 
ATOM     30  H   UNL     1      39.774 -25.697 -15.747  0.00  0.00    -0.089 HD
ATOM     31  H   UNL     1      41.201 -25.138 -15.095  0.00  0.00    -0.089 HD
ATOM     32  H   UNL     1      39.824 -24.203 -15.013  0.00  0.00    -0.089 HD
ENDBRANCH  28  29
ENDBRANCH  26  28
ENDBRANCH  22  25
ENDBRANCH   7  22
TORSDOF 6
ENDMDL
MODEL 4
REMARK VINA RESULT:     -11.4      9.836     11.955
REMARK  Name = 46937094
REMARK  6 active torsions:
REMARK  status: ('A' for Active; 'I' for Inactive)
REMARK    1  A    between atoms: C_3  and  C_10
REMARK    2  A    between atoms: C_7  and  C_22
REMARK    3  A    between atoms: N_9  and  C_12
REMARK    4  A    between atoms: C_22  and  N_25
REMARK    5  A    between atoms: C_26  and  C_28
REMARK    6  A    between atoms: C_28  and  N_29
REMARK                            x       y       z     vdW  Elec       q    Type
REMARK                         _______ _______ _______ _____ _____    ______ ____
ROOT
ATOM      1  O   UNL     1      35.565 -24.419 -15.080  0.00  0.00    -0.273 OA
ATOM      2  N   UNL     1      36.076 -23.549 -12.997  0.00  0.00    -0.272 N 
ATOM      3  C   UNL     1      35.141 -24.371 -12.240  0.00  0.00    +0.152 C 
ATOM      4  C   UNL     1      35.579 -24.219 -10.788  0.00  0.00    +0.031 C 
ATOM      5  C   UNL     1      36.203 -22.826 -10.751  0.00  0.00    +0.024 C 
ATOM      6  C   UNL     1      36.874 -22.706 -12.110  0.00  0.00    +0.094 C 
ATOM      7  C   UNL     1      36.260 -23.697 -14.363  0.00  0.00    +0.244 C 
ENDROOT
BRANCH   3  10
ATOM      8  O   UNL     1      33.398 -22.800 -11.879  0.00  0.00    -0.273 OA
ATOM      9  N   UNL     1      33.064 -24.572 -13.390  0.00  0.00    -0.283 N 
ATOM     10  C   UNL     1      33.770 -23.808 -12.470  0.00  0.00    +0.244 C 
ATOM     11  H   UNL     1      33.533 -25.355 -13.758  0.00  0.00    +0.155 HD
BRANCH   9  12
ATOM     12  C   UNL     1      31.746 -24.356 -13.858  0.00  0.00    +0.050 C 
ATOM     13  C   UNL     1      31.508 -23.423 -14.867  0.00  0.00    +0.015 C 
ATOM     14  C   UNL     1      30.688 -25.076 -13.310  0.00  0.00    +0.015 C 
ATOM     15  C   UNL     1      30.205 -23.197 -15.341  0.00  0.00    +0.001 C 
ATOM     16  C   UNL     1      29.129 -23.930 -14.786  0.00  0.00    +0.000 C 
ATOM     17  C   UNL     1      29.387 -24.865 -13.770  0.00  0.00    +0.001 C 
ATOM     18  C   UNL     1      29.947 -22.263 -16.357  0.00  0.00    +0.000 C 
ATOM     19  C   UNL     1      27.827 -23.704 -15.260  0.00  0.00    +0.000 C 
ATOM     20  C   UNL     1      28.647 -22.051 -16.817  0.00  0.00    +0.000 C 
ATOM     21  C   UNL     1      27.589 -22.771 -16.269  0.00  0.00    +0.000 C 
ENDBRANCH   9  12
ENDBRANCH   3  10
BRANCH   7  22
ATOM     22  C   UNL     1      37.388 -22.892 -14.957  0.00  0.00    +0.149 C 
ATOM     23  C   UNL     1      36.903 -22.080 -16.135  0.00  0.00    +0.031 C 
BRANCH  22  25
ATOM     24  O   UNL     1      39.369 -24.136 -13.254  0.00  0.00    -0.277 OA
ATOM     25  N   UNL     1      38.364 -23.869 -15.334  0.00  0.00    -0.300 N 
ATOM     26  C   UNL     1      39.288 -24.422 -14.447  0.00  0.00    +0.201 C 
ATOM     27  H   UNL     1      38.384 -24.168 -16.272  0.00  0.00    +0.150 HD
BRANCH  26  28
ATOM     28  C   UNL     1      40.219 -25.407 -15.126  0.00  0.00    +0.001 C 
BRANCH  28  29
ATOM     29  N   UNL     1      40.628 -26.410 -14.153  0.00  0.00    +0.386 N 
ATOM     30  H   UNL     1      41.645 -26.407 -14.068  0.00  0.00    -0.089 HD
ATOM     31  H   UNL     1      40.315 -27.330 -14.462  0.00  0.00    -0.089 HD
ATOM     32  H   UNL     1      40.211 -26.195 -13.247  0.00  0.00    -0.089 HD
ENDBRANCH  28  29
ENDBRANCH  26  28
ENDBRANCH  22  25
ENDBRANCH   7  22
TORSDOF 6
ENDMDL
MODEL 5
REMARK VINA RESULT:     -10.8      7.151     10.583
REMARK  Name = 46937094
REMARK  6 active torsions:
REMARK  status: ('A' for Active; 'I' for Inactive)
REMARK    1  A    between atoms: C_3  and  C_10
REMARK    2  A    between atoms: C_7  and  C_22
REMARK    3  A    between atoms: N_9  and  C_12
REMARK    4  A    between atoms: C_22  and  N_25
REMARK    5  A    between atoms: C_26  and  C_28
REMARK    6  A    between atoms: C_28  and  N_29
REMARK                            x       y       z     vdW  Elec       q    Type
REMARK                         _______ _______ _______ _____ _____    ______ ____
ROOT
ATOM      1  O   UNL     1      36.321 -21.905 -12.379  0.00  0.00    -0.273 OA
ATOM      2  N   UNL     1      36.670 -24.071 -13.114  0.00  0.00    -0.272 N 
ATOM      3  C   UNL     1      37.873 -23.792 -13.887  0.00  0.00    +0.152 C 
ATOM      4  C   UNL     1      38.484 -25.161 -14.160  0.00  0.00    +0.031 C 
ATOM      5  C   UNL     1      37.275 -26.093 -14.178  0.00  0.00    +0.024 C 
ATOM      6  C   UNL     1      36.360 -25.498 -13.119  0.00  0.00    +0.094 C 
ATOM      7  C   UNL     1      36.030 -23.102 -12.357  0.00  0.00    +0.244 C 
ENDROOT
BRANCH   3  10
ATOM      8  O   UNL     1      38.261 -22.631 -15.921  0.00  0.00    -0.273 OA
ATOM      9  N   UNL     1      36.055 -23.133 -15.279  0.00  0.00    -0.283 N 
ATOM     10  C   UNL     1      37.438 -23.115 -15.152  0.00  0.00    +0.244 C 
ATOM     11  H   UNL     1      35.556 -23.569 -14.551  0.00  0.00    +0.155 HD
BRANCH   9  12
ATOM     12  C   UNL     1      35.279 -22.594 -16.332  0.00  0.00    +0.050 C 
ATOM     13  C   UNL     1      35.885 -21.816 -17.318  0.00  0.00    +0.015 C 
ATOM     14  C   UNL     1      33.909 -22.842 -16.383  0.00  0.00    +0.015 C 
ATOM     15  C   UNL     1      35.128 -21.274 -18.370  0.00  0.00    +0.001 C 
ATOM     16  C   UNL     1      33.736 -21.527 -18.423  0.00  0.00    +0.000 C 
ATOM     17  C   UNL     1      33.142 -22.312 -17.421  0.00  0.00    +0.001 C 
ATOM     18  C   UNL     1      35.721 -20.489 -19.371  0.00  0.00    +0.000 C 
ATOM     19  C   UNL     1      32.979 -20.985 -19.474  0.00  0.00    +0.000 C 
ATOM     20  C   UNL     1      34.955 -19.959 -20.409  0.00  0.00    +0.000 C 
ATOM     21  C   UNL     1      33.585 -20.207 -20.460  0.00  0.00    +0.000 C 
ENDBRANCH   9  12
ENDBRANCH   3  10
BRANCH   7  22
ATOM     22  C   UNL     1      34.908 -23.598 -11.481  0.00  0.00    +0.149 C 
ATOM     23  C   UNL     1      35.435 -24.517 -10.405  0.00  0.00    +0.031 C 
BRANCH  22  25
ATOM     24  O   UNL     1      32.322 -22.679 -12.402  0.00  0.00    -0.277 OA
ATOM     25  N   UNL     1      34.021 -24.267 -12.383  0.00  0.00    -0.300 N 
ATOM     26  C   UNL     1      32.785 -23.754 -12.778  0.00  0.00    +0.201 C 
ATOM     27  H   UNL     1      34.298 -25.140 -12.746  0.00  0.00    +0.150 HD
BRANCH  26  28
ATOM     28  C   UNL     1      32.045 -24.689 -13.714  0.00  0.00    +0.001 C 
BRANCH  28  29
ATOM     29  N   UNL     1      30.638 -24.703 -13.344  0.00  0.00    +0.386 N 
ATOM     30  H   UNL     1      30.150 -23.951 -13.831  0.00  0.00    -0.089 HD
ATOM     31  H   UNL     1      30.550 -24.568 -12.337  0.00  0.00    -0.089 HD
ATOM     32  H   UNL     1      30.226 -25.599 -13.604  0.00  0.00    -0.089 HD
ENDBRANCH  28  29
ENDBRANCH  26  28
ENDBRANCH  22  25
ENDBRANCH   7  22
TORSDOF 6
ENDMDL
MODEL 6
REMARK VINA RESULT:     -10.7      5.627     11.483
REMARK  Name = 46937094
REMARK  6 active torsions:
REMARK  status: ('A' for Active; 'I' for Inactive)
REMARK    1  A    between atoms: C_3  and  C_10
REMARK    2  A    between atoms: C_7  and  C_22
REMARK    3  A    between atoms: N_9  and  C_12
REMARK    4  A    between atoms: C_22  and  N_25
REMARK    5  A    between atoms: C_26  and  C_28
REMARK    6  A    between atoms: C_28  and  N_29
REMARK                            x       y       z     vdW  Elec       q    Type
REMARK                         _______ _______ _______ _____ _____    ______ ____
ROOT
ATOM      1  O   UNL     1      34.013  -6.420 -24.457  0.00  0.00    -0.273 OA
ATOM      2  N   UNL     1      32.066  -7.326 -23.595  0.00  0.00    -0.272 N 
ATOM      3  C   UNL     1      32.694  -8.078 -22.517  0.00  0.00    +0.152 C 
ATOM      4  C   UNL     1      31.547  -8.461 -21.590  0.00  0.00    +0.031 C 
ATOM      5  C   UNL     1      30.347  -8.551 -22.530  0.00  0.00    +0.024 C 
ATOM      6  C   UNL     1      30.611  -7.445 -23.541  0.00  0.00    +0.094 C 
ATOM      7  C   UNL     1      32.783  -6.494 -24.440  0.00  0.00    +0.244 C 
ENDROOT
BRANCH   3  10
ATOM      8  O   UNL     1      34.393  -9.188 -23.749  0.00  0.00    -0.273 OA
ATOM      9  N   UNL     1      32.579 -10.426 -22.908  0.00  0.00    -0.283 N 
ATOM     10  C   UNL     1      33.336  -9.284 -23.135  0.00  0.00    +0.244 C 
ATOM     11  H   UNL     1      31.750 -10.303 -22.392  0.00  0.00    +0.155 HD
BRANCH   9  12
ATOM     12  C   UNL     1      32.860 -11.746 -23.335  0.00  0.00    +0.050 C 
ATOM     13  C   UNL     1      33.400 -12.668 -22.440  0.00  0.00    +0.015 C 
ATOM     14  C   UNL     1      32.597 -12.121 -24.650  0.00  0.00    +0.015 C 
ATOM     15  C   UNL     1      33.684 -13.981 -22.849  0.00  0.00    +0.001 C 
ATOM     16  C   UNL     1      33.416 -14.364 -24.185  0.00  0.00    +0.000 C 
ATOM     17  C   UNL     1      32.873 -13.421 -25.073  0.00  0.00    +0.001 C 
ATOM     18  C   UNL     1      34.227 -14.924 -21.961  0.00  0.00    +0.000 C 
ATOM     19  C   UNL     1      33.701 -15.677 -24.594  0.00  0.00    +0.000 C 
ATOM     20  C   UNL     1      34.504 -16.225 -22.383  0.00  0.00    +0.000 C 
ATOM     21  C   UNL     1      34.241 -16.600 -23.698  0.00  0.00    +0.000 C 
ENDBRANCH   9  12
ENDBRANCH   3  10
BRANCH   7  22
ATOM     22  C   UNL     1      31.956  -5.657 -25.384  0.00  0.00    +0.149 C 
ATOM     23  C   UNL     1      32.440  -5.819 -26.805  0.00  0.00    +0.031 C 
BRANCH  22  25
ATOM     24  O   UNL     1      30.078  -4.133 -23.796  0.00  0.00    -0.277 OA
ATOM     25  N   UNL     1      32.114  -4.318 -24.904  0.00  0.00    -0.300 N 
ATOM     26  C   UNL     1      31.155  -3.651 -24.140  0.00  0.00    +0.201 C 
ATOM     27  H   UNL     1      32.946  -3.839 -25.125  0.00  0.00    +0.150 HD
BRANCH  26  28
ATOM     28  C   UNL     1      31.574  -2.235 -23.799  0.00  0.00    +0.001 C 
BRANCH  28  29
ATOM     29  N   UNL     1      31.223  -1.966 -22.412  0.00  0.00    +0.386 N 
ATOM     30  H   UNL     1      31.313  -2.824 -21.865  0.00  0.00    -0.089 HD
ATOM     31  H   UNL     1      30.260  -1.633 -22.363  0.00  0.00    -0.089 HD
ATOM     32  H   UNL     1      31.848  -1.255 -22.034  0.00  0.00    -0.089 HD
ENDBRANCH  28  29
ENDBRANCH  26  28
ENDBRANCH  22  25
ENDBRANCH   7  22
TORSDOF 6
ENDMDL
MODEL 7
REMARK VINA RESULT:     -10.6      4.585     10.534
REMARK  Name = 46937094
REMARK  6 active torsions:
REMARK  status: ('A' for Active; 'I' for Inactive)
REMARK    1  A    between atoms: C_3  and  C_10
REMARK    2  A    between atoms: C_7  and  C_22
REMARK    3  A    between atoms: N_9  and  C_12
REMARK    4  A    between atoms: C_22  and  N_25
REMARK    5  A    between atoms: C_26  and  C_28
REMARK    6  A    between atoms: C_28  and  N_29
REMARK                            x       y       z     vdW  Elec       q    Type
REMARK                         _______ _______ _______ _____ _____    ______ ____
ROOT
ATOM      1  O   UNL     1      34.390  -8.360 -23.250  0.00  0.00    -0.273 OA
ATOM      2  N   UNL     1      32.177  -8.786 -22.723  0.00  0.00    -0.272 N 
ATOM      3  C   UNL     1      32.431  -9.914 -21.836  0.00  0.00    +0.152 C 
ATOM      4  C   UNL     1      31.122 -10.117 -21.083  0.00  0.00    +0.031 C 
ATOM      5  C   UNL     1      30.066  -9.622 -22.068  0.00  0.00    +0.024 C 
ATOM      6  C   UNL     1      30.754  -8.458 -22.764  0.00  0.00    +0.094 C 
ATOM      7  C   UNL     1      33.198  -8.051 -23.306  0.00  0.00    +0.244 C 
ENDROOT
BRANCH   3  10
ATOM      8  O   UNL     1      32.792 -10.984 -23.924  0.00  0.00    -0.273 OA
ATOM      9  N   UNL     1      33.007 -12.224 -21.937  0.00  0.00    -0.283 N 
ATOM     10  C   UNL     1      32.763 -11.091 -22.703  0.00  0.00    +0.244 C 
ATOM     11  H   UNL     1      32.932 -12.114 -20.962  0.00  0.00    +0.155 HD
BRANCH   9  12
ATOM     12  C   UNL     1      33.347 -13.518 -22.396  0.00  0.00    +0.050 C 
ATOM     13  C   UNL     1      33.901 -14.447 -21.516  0.00  0.00    +0.015 C 
ATOM     14  C   UNL     1      33.129 -13.863 -23.728  0.00  0.00    +0.015 C 
ATOM     15  C   UNL     1      34.245 -15.735 -21.957  0.00  0.00    +0.001 C 
ATOM     16  C   UNL     1      34.022 -16.087 -23.310  0.00  0.00    +0.000 C 
ATOM     17  C   UNL     1      33.464 -15.138 -24.183  0.00  0.00    +0.001 C 
ATOM     18  C   UNL     1      34.804 -16.684 -21.086  0.00  0.00    +0.000 C 
ATOM     19  C   UNL     1      34.366 -17.375 -23.751  0.00  0.00    +0.000 C 
ATOM     20  C   UNL     1      35.139 -17.960 -21.540  0.00  0.00    +0.000 C 
ATOM     21  C   UNL     1      34.920 -18.304 -22.871  0.00  0.00    +0.000 C 
ENDBRANCH   9  12
ENDBRANCH   3  10
BRANCH   7  22
ATOM     22  C   UNL     1      32.765  -6.814 -24.050  0.00  0.00    +0.149 C 
ATOM     23  C   UNL     1      33.810  -6.405 -25.061  0.00  0.00    +0.031 C 
BRANCH  22  25
ATOM     24  O   UNL     1      30.573  -4.941 -23.795  0.00  0.00    -0.277 OA
ATOM     25  N   UNL     1      32.581  -5.829 -23.028  0.00  0.00    -0.300 N 
ATOM     26  C   UNL     1      31.491  -4.960 -22.977  0.00  0.00    +0.201 C 
ATOM     27  H   UNL     1      33.262  -5.760 -22.320  0.00  0.00    +0.150 HD
BRANCH  26  28
ATOM     28  C   UNL     1      31.570  -4.003 -21.804  0.00  0.00    +0.001 C 
BRANCH  28  29
ATOM     29  N   UNL     1      31.618  -4.777 -20.572  0.00  0.00    +0.386 N 
ATOM     30  H   UNL     1      30.785  -4.582 -20.016  0.00  0.00    -0.089 HD
ATOM     31  H   UNL     1      32.449  -4.519 -20.040  0.00  0.00    -0.089 HD
ATOM     32  H   UNL     1      31.652  -5.772 -20.796  0.00  0.00    -0.089 HD
ENDBRANCH  28  29
ENDBRANCH  26  28
ENDBRANCH  22  25
ENDBRANCH   7  22
TORSDOF 6
ENDMDL
MODEL 8
REMARK VINA RESULT:     -10.2      4.929      9.906
REMARK  Name = 46937094
REMARK  6 active torsions:
REMARK  status: ('A' for Active; 'I' for Inactive)
REMARK    1  A    between atoms: C_3  and  C_10
REMARK    2  A    between atoms: C_7  and  C_22
REMARK    3  A    between atoms: N_9  and  C_12
REMARK    4  A    between atoms: C_22  and  N_25
REMARK    5  A    between atoms: C_26  and  C_28
REMARK    6  A    between atoms: C_28  and  N_29
REMARK                            x       y       z     vdW  Elec       q    Type
REMARK                         _______ _______ _______ _____ _____    ______ ____
ROOT
ATOM      1  O   UNL     1      30.996 -10.546 -20.716  0.00  0.00    -0.273 OA
ATOM      2  N   UNL     1      32.005  -8.880 -21.965  0.00  0.00    -0.272 N 
ATOM      3  C   UNL     1      31.769  -9.484 -23.271  0.00  0.00    +0.152 C 
ATOM      4  C   UNL     1      32.031  -8.363 -24.269  0.00  0.00    +0.031 C 
ATOM      5  C   UNL     1      33.059  -7.487 -23.557  0.00  0.00    +0.024 C 
ATOM      6  C   UNL     1      32.640  -7.571 -22.098  0.00  0.00    +0.094 C 
ATOM      7  C   UNL     1      31.528  -9.437 -20.789  0.00  0.00    +0.244 C 
ENDROOT
BRANCH   3  10
ATOM      8  O   UNL     1      33.935 -10.377 -23.649  0.00  0.00    -0.273 OA
ATOM      9  N   UNL     1      32.131 -11.839 -23.274  0.00  0.00    -0.283 N 
ATOM     10  C   UNL     1      32.752 -10.606 -23.422  0.00  0.00    +0.244 C 
ATOM     11  H   UNL     1      31.163 -11.820 -23.097  0.00  0.00    +0.155 HD
BRANCH   9  12
ATOM     12  C   UNL     1      32.728 -13.120 -23.351  0.00  0.00    +0.050 C 
ATOM     13  C   UNL     1      33.217 -13.731 -22.198  0.00  0.00    +0.015 C 
ATOM     14  C   UNL     1      32.826 -13.768 -24.580  0.00  0.00    +0.015 C 
ATOM     15  C   UNL     1      33.813 -15.002 -22.258  0.00  0.00    +0.001 C 
ATOM     16  C   UNL     1      33.912 -15.662 -23.506  0.00  0.00    +0.000 C 
ATOM     17  C   UNL     1      33.414 -15.030 -24.658  0.00  0.00    +0.001 C 
ATOM     18  C   UNL     1      34.311 -15.633 -21.107  0.00  0.00    +0.000 C 
ATOM     19  C   UNL     1      34.508 -16.932 -23.567  0.00  0.00    +0.000 C 
ATOM     20  C   UNL     1      34.899 -16.896 -21.185  0.00  0.00    +0.000 C 
ATOM     21  C   UNL     1      34.997 -17.544 -22.413  0.00  0.00    +0.000 C 
ENDBRANCH   9  12
ENDBRANCH   3  10
BRANCH   7  22
ATOM     22  C   UNL     1      31.707  -8.595 -19.552  0.00  0.00    +0.149 C 
ATOM     23  C   UNL     1      31.086  -9.270 -18.351  0.00  0.00    +0.031 C 
BRANCH  22  25
ATOM     24  O   UNL     1      32.726  -5.929 -19.073  0.00  0.00    -0.277 OA
ATOM     25  N   UNL     1      31.070  -7.354 -19.869  0.00  0.00    -0.300 N 
ATOM     26  C   UNL     1      31.631  -6.105 -19.604  0.00  0.00    +0.201 C 
ATOM     27  H   UNL     1      30.184  -7.382 -20.300  0.00  0.00    +0.150 HD
BRANCH  26  28
ATOM     28  C   UNL     1      30.722  -4.964 -20.018  0.00  0.00    +0.001 C 
BRANCH  28  29
ATOM     29  N   UNL     1      31.413  -4.153 -21.010  0.00  0.00    +0.386 N 
ATOM     30  H   UNL     1      32.092  -3.551 -20.544  0.00  0.00    -0.089 HD
ATOM     31  H   UNL     1      30.735  -3.577 -21.509  0.00  0.00    -0.089 HD
ATOM     32  H   UNL     1      31.896  -4.761 -21.671  0.00  0.00    -0.089 HD
ENDBRANCH  28  29
ENDBRANCH  26  28
ENDBRANCH  22  25
ENDBRANCH   7  22
TORSDOF 6
ENDMDL
MODEL 9
REMARK VINA RESULT:     -10.2      3.618      6.995
REMARK  Name = 46937094
REMARK  6 active torsions:
REMARK  status: ('A' for Active; 'I' for Inactive)
REMARK    1  A    between atoms: C_3  and  C_10
REMARK    2  A    between atoms: C_7  and  C_22
REMARK    3  A    between atoms: N_9  and  C_12
REMARK    4  A    between atoms: C_22  and  N_25
REMARK    5  A    between atoms: C_26  and  C_28
REMARK    6  A    between atoms: C_28  and  N_29
REMARK                            x       y       z     vdW  Elec       q    Type
REMARK                         _______ _______ _______ _____ _____    ______ ____
ROOT
ATOM      1  O   UNL     1      32.515 -12.976 -23.463  0.00  0.00    -0.273 OA
ATOM      2  N   UNL     1      31.882 -11.761 -21.598  0.00  0.00    -0.272 N 
ATOM      3  C   UNL     1      31.118 -10.746 -22.312  0.00  0.00    +0.152 C 
ATOM      4  C   UNL     1      30.301 -10.046 -21.234  0.00  0.00    +0.031 C 
ATOM      5  C   UNL     1      31.164 -10.192 -19.983  0.00  0.00    +0.024 C 
ATOM      6  C   UNL     1      31.798 -11.564 -20.153  0.00  0.00    +0.094 C 
ATOM      7  C   UNL     1      32.463 -12.844 -22.239  0.00  0.00    +0.244 C 
ENDROOT
BRANCH   3  10
ATOM      8  O   UNL     1      33.195 -10.230 -23.341  0.00  0.00    -0.273 OA
ATOM      9  N   UNL     1      31.612  -8.521 -23.011  0.00  0.00    -0.283 N 
ATOM     10  C   UNL     1      32.108  -9.817 -22.951  0.00  0.00    +0.244 C 
ATOM     11  H   UNL     1      30.711  -8.383 -22.641  0.00  0.00    +0.155 HD
BRANCH   9  12
ATOM     12  C   UNL     1      32.253  -7.377 -23.542  0.00  0.00    +0.050 C 
ATOM     13  C   UNL     1      31.930  -6.927 -24.821  0.00  0.00    +0.015 C 
ATOM     14  C   UNL     1      33.207  -6.701 -22.785  0.00  0.00    +0.015 C 
ATOM     15  C   UNL     1      32.558  -5.792 -25.362  0.00  0.00    +0.001 C 
ATOM     16  C   UNL     1      33.526  -5.104 -24.592  0.00  0.00    +0.000 C 
ATOM     17  C   UNL     1      33.840  -5.573 -23.306  0.00  0.00    +0.001 C 
ATOM     18  C   UNL     1      32.245  -5.324 -26.648  0.00  0.00    +0.000 C 
ATOM     19  C   UNL     1      34.154  -3.970 -25.132  0.00  0.00    +0.000 C 
ATOM     20  C   UNL     1      32.877  -4.195 -27.169  0.00  0.00    +0.000 C 
ATOM     21  C   UNL     1      33.831  -3.520 -26.412  0.00  0.00    +0.000 C 
ENDBRANCH   9  12
ENDBRANCH   3  10
BRANCH   7  22
ATOM     22  C   UNL     1      33.063 -13.889 -21.333  0.00  0.00    +0.149 C 
ATOM     23  C   UNL     1      34.133 -13.285 -20.455  0.00  0.00    +0.031 C 
BRANCH  22  25
ATOM     24  O   UNL     1      34.597 -16.244 -20.640  0.00  0.00    -0.277 OA
ATOM     25  N   UNL     1      33.586 -14.878 -22.227  0.00  0.00    -0.300 N 
ATOM     26  C   UNL     1      34.319 -15.989 -21.810  0.00  0.00    +0.201 C 
ATOM     27  H   UNL     1      33.419 -14.767 -23.192  0.00  0.00    +0.150 HD
BRANCH  26  28
ATOM     28  C   UNL     1      34.773 -16.849 -22.973  0.00  0.00    +0.001 C 
BRANCH  28  29
ATOM     29  N   UNL     1      34.487 -16.146 -24.214  0.00  0.00    +0.386 N 
ATOM     30  H   UNL     1      34.911 -15.218 -24.185  0.00  0.00    -0.089 HD
ATOM     31  H   UNL     1      33.478 -16.054 -24.329  0.00  0.00    -0.089 HD
ATOM     32  H   UNL     1      34.873 -16.670 -25.000  0.00  0.00    -0.089 HD
ENDBRANCH  28  29
ENDBRANCH  26  28
ENDBRANCH  22  25
ENDBRANCH   7  22
TORSDOF 6
ENDMDL
