MODEL 1
REMARK VINA RESULT:     -13.4      0.000      0.000
REMARK  Name = 46937081
REMARK  6 active torsions:
REMARK  status: ('A' for Active; 'I' for Inactive)
REMARK    1  A    between atoms: N_1  and  C_10
REMARK    2  A    between atoms: C_4  and  C_16
REMARK    3  A    between atoms: C_9  and  C_31
REMARK    4  A    between atoms: C_16  and  C_17
REMARK    5  A    between atoms: C_18  and  N_23
REMARK    6  A    between atoms: C_31  and  N_32
REMARK                            x       y       z     vdW  Elec       q    Type
REMARK                         _______ _______ _______ _____ _____    ______ ____
ROOT
ATOM      1  N   UNL     1      33.769 -23.022 -15.231  0.00  0.00    -0.267 N 
ATOM      2  N   UNL     1      34.799 -23.115 -13.052  0.00  0.00    -0.341 NA
ATOM      3  N   UNL     1      37.155 -22.503 -13.089  0.00  0.00    -0.188 NA
ATOM      4  C   UNL     1      34.164 -22.709 -16.505  0.00  0.00    +0.035 C 
ATOM      5  C   UNL     1      34.832 -22.889 -14.377  0.00  0.00    +0.199 C 
ATOM      6  C   UNL     1      35.931 -22.482 -15.122  0.00  0.00    +0.066 C 
ATOM      7  C   UNL     1      35.500 -22.371 -16.469  0.00  0.00    +0.016 C 
ATOM      8  C   UNL     1      37.124 -22.291 -14.425  0.00  0.00    +0.114 C 
ATOM      9  C   UNL     1      36.008 -22.897 -12.493  0.00  0.00    +0.042 C 
ENDROOT
BRANCH   1  10
ATOM     10  C   UNL     1      32.372 -23.451 -14.821  0.00  0.00    +0.079 C 
ATOM     11  C   UNL     1      32.394 -24.388 -13.601  0.00  0.00    +0.020 C 
ATOM     12  C   UNL     1      31.452 -22.243 -14.571  0.00  0.00    +0.020 C 
ATOM     13  C   UNL     1      30.984 -24.821 -13.204  0.00  0.00    +0.002 C 
ATOM     14  C   UNL     1      30.046 -22.684 -14.169  0.00  0.00    +0.002 C 
ATOM     15  C   UNL     1      30.073 -23.621 -12.964  0.00  0.00    +0.000 C 
ENDBRANCH   1  10
BRANCH   4  16
ATOM     16  C   UNL     1      33.209 -22.760 -17.682  0.00  0.00    +0.068 C 
BRANCH  16  17
ATOM     17  C   UNL     1      33.429 -21.681 -18.687  0.00  0.00    -0.016 C 
ATOM     18  C   UNL     1      33.842 -19.663 -20.569  0.00  0.00    +0.048 C 
ATOM     19  C   UNL     1      34.719 -21.402 -19.140  0.00  0.00    -0.003 C 
ATOM     20  C   UNL     1      32.346 -20.951 -19.176  0.00  0.00    -0.003 C 
ATOM     21  C   UNL     1      34.926 -20.394 -20.081  0.00  0.00    +0.014 C 
ATOM     22  C   UNL     1      32.552 -19.942 -20.117  0.00  0.00    +0.014 C 
BRANCH  18  23
ATOM     23  N   UNL     1      34.049 -18.651 -21.513  0.00  0.00    -0.312 N 
ATOM     24  N   UNL     1      34.721 -16.650 -23.437  0.00  0.00    +0.388 N 
ATOM     25  C   UNL     1      34.061 -18.980 -22.942  0.00  0.00    +0.068 C 
ATOM     26  C   UNL     1      34.868 -17.499 -21.120  0.00  0.00    +0.068 C 
ATOM     27  C   UNL     1      34.571 -16.297 -22.020  0.00  0.00    -0.056 C 
ATOM     28  C   UNL     1      33.791 -17.731 -23.784  0.00  0.00    -0.056 C 
ATOM     29  C   UNL     1      34.489 -15.482 -24.285  0.00  0.00    -0.101 C 
ATOM     30  H   UNL     1      35.675 -16.974 -23.597  0.00  0.00    -0.080 HD
ENDBRANCH  18  23
ENDBRANCH  16  17
ENDBRANCH   4  16
BRANCH   9  31
ATOM     31  C   UNL     1      36.088 -23.119 -11.019  0.00  0.00    +0.030 C 
BRANCH  31  32
ATOM     32  N   UNL     1      35.309 -24.280 -10.589  0.00  0.00    +0.390 N 
ATOM     33  H   UNL     1      35.187 -24.251  -9.576  0.00  0.00    -0.088 HD
ATOM     34  H   UNL     1      35.801 -25.135 -10.848  0.00  0.00    -0.088 HD
ATOM     35  H   UNL     1      34.395 -24.264 -11.042  0.00  0.00    -0.088 HD
ENDBRANCH  31  32
ENDBRANCH   9  31
TORSDOF 6
ENDMDL
MODEL 2
REMARK VINA RESULT:     -12.8      1.726      3.924
REMARK  Name = 46937081
REMARK  6 active torsions:
REMARK  status: ('A' for Active; 'I' for Inactive)
REMARK    1  A    between atoms: N_1  and  C_10
REMARK    2  A    between atoms: C_4  and  C_16
REMARK    3  A    between atoms: C_9  and  C_31
REMARK    4  A    between atoms: C_16  and  C_17
REMARK    5  A    between atoms: C_18  and  N_23
REMARK    6  A    between atoms: C_31  and  N_32
REMARK                            x       y       z     vdW  Elec       q    Type
REMARK                         _______ _______ _______ _____ _____    ______ ____
ROOT
ATOM      1  N   UNL     1      34.009 -22.945 -16.083  0.00  0.00    -0.267 N 
ATOM      2  N   UNL     1      32.408 -23.734 -14.460  0.00  0.00    -0.341 NA
ATOM      3  N   UNL     1      30.101 -23.333 -15.129  0.00  0.00    -0.188 NA
ATOM      4  C   UNL     1      33.963 -22.323 -17.303  0.00  0.00    +0.035 C 
ATOM      5  C   UNL     1      32.733 -23.146 -15.625  0.00  0.00    +0.199 C 
ATOM      6  C   UNL     1      31.853 -22.641 -16.574  0.00  0.00    +0.066 C 
ATOM      7  C   UNL     1      32.640 -22.121 -17.633  0.00  0.00    +0.016 C 
ATOM      8  C   UNL     1      30.493 -22.752 -16.287  0.00  0.00    +0.114 C 
ATOM      9  C   UNL     1      31.069 -23.781 -14.299  0.00  0.00    +0.042 C 
ENDROOT
BRANCH   1  10
ATOM     10  C   UNL     1      35.272 -23.351 -15.346  0.00  0.00    +0.079 C 
ATOM     11  C   UNL     1      35.501 -22.497 -14.087  0.00  0.00    +0.020 C 
ATOM     12  C   UNL     1      35.278 -24.851 -15.003  0.00  0.00    +0.020 C 
ATOM     13  C   UNL     1      36.781 -22.907 -13.359  0.00  0.00    +0.002 C 
ATOM     14  C   UNL     1      36.557 -25.252 -14.271  0.00  0.00    +0.002 C 
ATOM     15  C   UNL     1      36.787 -24.397 -13.028  0.00  0.00    +0.000 C 
ENDBRANCH   1  10
BRANCH   4  16
ATOM     16  C   UNL     1      35.220 -21.963 -18.073  0.00  0.00    +0.068 C 
BRANCH  16  17
ATOM     17  C   UNL     1      35.008 -20.932 -19.129  0.00  0.00    -0.016 C 
ATOM     18  C   UNL     1      34.610 -19.002 -21.104  0.00  0.00    +0.048 C 
ATOM     19  C   UNL     1      33.728 -20.710 -19.640  0.00  0.00    -0.003 C 
ATOM     20  C   UNL     1      36.087 -20.189 -19.604  0.00  0.00    -0.003 C 
ATOM     21  C   UNL     1      33.530 -19.745 -20.627  0.00  0.00    +0.014 C 
ATOM     22  C   UNL     1      35.889 -19.224 -20.593  0.00  0.00    +0.014 C 
BRANCH  18  23
ATOM     23  N   UNL     1      34.411 -18.034 -22.094  0.00  0.00    -0.312 N 
ATOM     24  N   UNL     1      34.259 -16.070 -24.162  0.00  0.00    +0.388 N 
ATOM     25  C   UNL     1      34.215 -18.448 -23.487  0.00  0.00    +0.068 C 
ATOM     26  C   UNL     1      35.028 -16.716 -21.904  0.00  0.00    +0.068 C 
ATOM     27  C   UNL     1      34.315 -15.662 -22.754  0.00  0.00    -0.056 C 
ATOM     28  C   UNL     1      33.529 -17.338 -24.287  0.00  0.00    -0.056 C 
ATOM     29  C   UNL     1      33.625 -15.032 -24.973  0.00  0.00    -0.101 C 
ATOM     30  H   UNL     1      35.210 -16.203 -24.505  0.00  0.00    -0.080 HD
ENDBRANCH  18  23
ENDBRANCH  16  17
ENDBRANCH   4  16
BRANCH   9  31
ATOM     31  C   UNL     1      30.592 -24.414 -13.034  0.00  0.00    +0.030 C 
BRANCH  31  32
ATOM     32  N   UNL     1      29.266 -25.015 -13.179  0.00  0.00    +0.390 N 
ATOM     33  H   UNL     1      29.181 -25.809 -12.543  0.00  0.00    -0.088 HD
ATOM     34  H   UNL     1      29.140 -25.333 -14.139  0.00  0.00    -0.088 HD
ATOM     35  H   UNL     1      28.552 -24.321 -12.955  0.00  0.00    -0.088 HD
ENDBRANCH  31  32
ENDBRANCH   9  31
TORSDOF 6
ENDMDL
