MODEL 1
REMARK VINA RESULT:     -10.4      0.000      0.000
REMARK  Name = 16224058
REMARK  5 active torsions:
REMARK  status: ('A' for Active; 'I' for Inactive)
REMARK    1  A    between atoms: C_7  and  N_26
REMARK    2  A    between atoms: C_17  and  C_21
REMARK    3  A    between atoms: C_21  and  C_23
REMARK    4  A    between atoms: C_23  and  O_24
REMARK    5  A    between atoms: N_26  and  C_28
REMARK                            x       y       z     vdW  Elec       q    Type
REMARK                         _______ _______ _______ _____ _____    ______ ____
ROOT
ATOM      1  N   UNL     1      35.302 -22.804 -14.968  0.00  0.00    -0.164 N 
ATOM      2  N   UNL     1      36.550 -22.762 -14.471  0.00  0.00    -0.170 NA
ATOM      3  N   UNL     1      33.025 -23.374 -14.712  0.00  0.00    -0.370 NA
ATOM      4  N   UNL     1      33.597 -24.348 -12.144  0.00  0.00    -0.256 NA
ATOM      5  C   UNL     1      35.185 -22.291 -16.232  0.00  0.00    +0.079 C 
ATOM      6  C   UNL     1      36.468 -21.882 -16.582  0.00  0.00    +0.036 C 
ATOM      7  C   UNL     1      34.318 -21.575 -18.332  0.00  0.00    +0.046 C 
ATOM      8  C   UNL     1      34.085 -22.154 -17.081  0.00  0.00    +0.031 C 
ATOM      9  C   UNL     1      36.687 -21.304 -17.843  0.00  0.00    +0.004 C 
ATOM     10  C   UNL     1      35.596 -21.157 -18.710  0.00  0.00    +0.014 C 
ATOM     11  C   UNL     1      34.271 -23.339 -14.197  0.00  0.00    +0.209 C 
ATOM     12  C   UNL     1      37.256 -22.202 -15.455  0.00  0.00    +0.120 C 
ATOM     13  C   UNL     1      32.071 -23.904 -13.920  0.00  0.00    +0.211 C 
ATOM     14  C   UNL     1      34.551 -23.817 -12.936  0.00  0.00    +0.202 C 
ATOM     15  C   UNL     1      32.353 -24.382 -12.659  0.00  0.00    +0.142 C 
ATOM     16  N   UNL     1      30.772 -23.968 -14.392  0.00  0.00    -0.238 N 
ATOM     17  C   UNL     1      29.000 -23.761 -15.715  0.00  0.00    +0.005 C 
ATOM     18  C   UNL     1      30.354 -23.528 -15.620  0.00  0.00    +0.068 C 
ATOM     19  C   UNL     1      29.704 -24.478 -13.699  0.00  0.00    +0.072 C 
ATOM     20  C   UNL     1      28.589 -24.362 -14.499  0.00  0.00    +0.014 C 
ENDROOT
BRANCH   7  21
ATOM     21  N   UNL     1      33.239 -21.412 -19.231  0.00  0.00    -0.334 N 
ATOM     22  H   UNL     1      32.696 -22.199 -19.466  0.00  0.00    +0.147 HD
BRANCH  21  23
ATOM     23  C   UNL     1      32.903 -20.152 -19.815  0.00  0.00    +0.069 C 
ATOM     24  C   UNL     1      31.604 -20.292 -20.598  0.00  0.00    +0.021 C 
ATOM     25  C   UNL     1      34.043 -19.686 -20.711  0.00  0.00    +0.021 C 
ENDBRANCH  21  23
ENDBRANCH   7  21
BRANCH  17  26
ATOM     26  C   UNL     1      28.137 -23.441 -16.868  0.00  0.00    +0.137 C 
BRANCH  26  28
ATOM     27  O   UNL     1      27.445 -21.463 -15.656  0.00  0.00    -0.250 OA
ATOM     28  C   UNL     1      27.277 -22.224 -16.601  0.00  0.00    +0.318 C 
BRANCH  28  29
ATOM     29  O   UNL     1      26.265 -22.089 -17.494  0.00  0.00    -0.480 OA
ATOM     30  H   UNL     1      25.375 -22.094 -17.198  0.00  0.00    +0.295 HD
ENDBRANCH  28  29
ENDBRANCH  26  28
ENDBRANCH  17  26
TORSDOF 5
ENDMDL
MODEL 2
REMARK VINA RESULT:      -9.6      2.819      6.429
REMARK  Name = 16224058
REMARK  5 active torsions:
REMARK  status: ('A' for Active; 'I' for Inactive)
REMARK    1  A    between atoms: C_7  and  N_26
REMARK    2  A    between atoms: C_17  and  C_21
REMARK    3  A    between atoms: C_21  and  C_23
REMARK    4  A    between atoms: C_23  and  O_24
REMARK    5  A    between atoms: N_26  and  C_28
REMARK                            x       y       z     vdW  Elec       q    Type
REMARK                         _______ _______ _______ _____ _____    ______ ____
ROOT
ATOM      1  N   UNL     1      33.860 -23.406 -14.014  0.00  0.00    -0.164 N 
ATOM      2  N   UNL     1      34.131 -23.977 -12.828  0.00  0.00    -0.170 NA
ATOM      3  N   UNL     1      34.618 -22.372 -15.997  0.00  0.00    -0.370 NA
ATOM      4  N   UNL     1      37.257 -22.647 -15.087  0.00  0.00    -0.256 NA
ATOM      5  C   UNL     1      32.526 -23.346 -14.316  0.00  0.00    +0.079 C 
ATOM      6  C   UNL     1      31.879 -23.927 -13.231  0.00  0.00    +0.036 C 
ATOM      7  C   UNL     1      30.452 -22.938 -15.415  0.00  0.00    +0.046 C 
ATOM      8  C   UNL     1      31.847 -22.840 -15.426  0.00  0.00    +0.031 C 
ATOM      9  C   UNL     1      30.477 -24.018 -13.234  0.00  0.00    +0.004 C 
ATOM     10  C   UNL     1      29.776 -23.516 -14.338  0.00  0.00    +0.014 C 
ATOM     11  C   UNL     1      34.907 -22.942 -14.810  0.00  0.00    +0.209 C 
ATOM     12  C   UNL     1      32.923 -24.291 -12.355  0.00  0.00    +0.120 C 
ATOM     13  C   UNL     1      35.671 -21.941 -16.720  0.00  0.00    +0.211 C 
ATOM     14  C   UNL     1      36.203 -23.077 -14.364  0.00  0.00    +0.202 C 
ATOM     15  C   UNL     1      36.967 -22.077 -16.273  0.00  0.00    +0.142 C 
ATOM     16  N   UNL     1      35.439 -21.347 -17.948  0.00  0.00    -0.238 N 
ATOM     17  C   UNL     1      34.391 -20.536 -19.730  0.00  0.00    +0.005 C 
ATOM     18  C   UNL     1      34.206 -21.152 -18.512  0.00  0.00    +0.068 C 
ATOM     19  C   UNL     1      36.410 -20.865 -18.788  0.00  0.00    +0.072 C 
ATOM     20  C   UNL     1      35.786 -20.355 -19.905  0.00  0.00    +0.014 C 
ENDROOT
BRANCH   7  21
ATOM     21  N   UNL     1      29.714 -22.443 -16.513  0.00  0.00    -0.334 N 
ATOM     22  H   UNL     1      30.202 -22.031 -17.264  0.00  0.00    +0.147 HD
BRANCH  21  23
ATOM     23  C   UNL     1      28.288 -22.512 -16.582  0.00  0.00    +0.069 C 
ATOM     24  C   UNL     1      27.692 -21.785 -15.384  0.00  0.00    +0.021 C 
ATOM     25  C   UNL     1      27.851 -23.971 -16.619  0.00  0.00    +0.021 C 
ENDBRANCH  21  23
ENDBRANCH   7  21
BRANCH  17  26
ATOM     26  C   UNL     1      33.332 -20.141 -20.679  0.00  0.00    +0.137 C 
BRANCH  26  28
ATOM     27  O   UNL     1      33.772 -19.101 -22.820  0.00  0.00    -0.250 OA
ATOM     28  C   UNL     1      33.792 -19.029 -21.597  0.00  0.00    +0.318 C 
BRANCH  28  29
ATOM     29  O   UNL     1      34.275 -17.956 -20.924  0.00  0.00    -0.480 OA
ATOM     30  H   UNL     1      34.880 -17.374 -21.342  0.00  0.00    +0.295 HD
ENDBRANCH  28  29
ENDBRANCH  26  28
ENDBRANCH  17  26
TORSDOF 5
ENDMDL
MODEL 3
REMARK VINA RESULT:      -8.5     13.002     16.360
REMARK  Name = 16224058
REMARK  5 active torsions:
REMARK  status: ('A' for Active; 'I' for Inactive)
REMARK    1  A    between atoms: C_7  and  N_26
REMARK    2  A    between atoms: C_17  and  C_21
REMARK    3  A    between atoms: C_21  and  C_23
REMARK    4  A    between atoms: C_23  and  O_24
REMARK    5  A    between atoms: N_26  and  C_28
REMARK                            x       y       z     vdW  Elec       q    Type
REMARK                         _______ _______ _______ _____ _____    ______ ____
ROOT
ATOM      1  N   UNL     1      31.381  -6.502 -20.848  0.00  0.00    -0.164 N 
ATOM      2  N   UNL     1      30.981  -5.591 -19.945  0.00  0.00    -0.170 NA
ATOM      3  N   UNL     1      31.772  -8.757 -21.431  0.00  0.00    -0.370 NA
ATOM      4  N   UNL     1      30.912  -9.527 -18.875  0.00  0.00    -0.256 NA
ATOM      5  C   UNL     1      31.770  -5.969 -22.047  0.00  0.00    +0.079 C 
ATOM      6  C   UNL     1      31.609  -4.595 -21.907  0.00  0.00    +0.036 C 
ATOM      7  C   UNL     1      32.556  -5.711 -24.281  0.00  0.00    +0.046 C 
ATOM      8  C   UNL     1      32.242  -6.564 -23.219  0.00  0.00    +0.031 C 
ATOM      9  C   UNL     1      31.931  -3.750 -22.982  0.00  0.00    +0.004 C 
ATOM     10  C   UNL     1      32.405  -4.328 -24.167  0.00  0.00    +0.014 C 
ATOM     11  C   UNL     1      31.368  -7.856 -20.513  0.00  0.00    +0.209 C 
ATOM     12  C   UNL     1      31.122  -4.433 -20.592  0.00  0.00    +0.120 C 
ATOM     13  C   UNL     1      31.739 -10.049 -21.048  0.00  0.00    +0.211 C 
ATOM     14  C   UNL     1      30.945  -8.235 -19.258  0.00  0.00    +0.202 C 
ATOM     15  C   UNL     1      31.316 -10.427 -19.793  0.00  0.00    +0.142 C 
ATOM     16  N   UNL     1      32.142 -11.022 -21.947  0.00  0.00    -0.238 N 
ATOM     17  C   UNL     1      32.884 -12.001 -23.796  0.00  0.00    +0.005 C 
ATOM     18  C   UNL     1      32.581 -10.786 -23.223  0.00  0.00    +0.068 C 
ATOM     19  C   UNL     1      32.160 -12.369 -21.696  0.00  0.00    +0.072 C 
ATOM     20  C   UNL     1      32.618 -13.003 -22.830  0.00  0.00    +0.014 C 
ENDROOT
BRANCH   7  21
ATOM     21  N   UNL     1      33.037  -6.260 -25.492  0.00  0.00    -0.334 N 
ATOM     22  H   UNL     1      33.035  -7.239 -25.600  0.00  0.00    +0.147 HD
BRANCH  21  23
ATOM     23  C   UNL     1      33.527  -5.455 -26.566  0.00  0.00    +0.069 C 
ATOM     24  C   UNL     1      32.901  -5.926 -27.872  0.00  0.00    +0.021 C 
ATOM     25  C   UNL     1      35.047  -5.542 -26.616  0.00  0.00    +0.021 C 
ENDBRANCH  21  23
ENDBRANCH   7  21
BRANCH  17  26
ATOM     26  C   UNL     1      33.391 -12.219 -25.164  0.00  0.00    +0.137 C 
BRANCH  26  28
ATOM     27  O   UNL     1      33.191 -14.494 -25.970  0.00  0.00    -0.250 OA
ATOM     28  C   UNL     1      32.694 -13.382 -25.839  0.00  0.00    +0.318 C 
BRANCH  28  29
ATOM     29  O   UNL     1      31.474 -13.051 -26.331  0.00  0.00    -0.480 OA
ATOM     30  H   UNL     1      31.389 -12.336 -26.931  0.00  0.00    +0.295 HD
ENDBRANCH  28  29
ENDBRANCH  26  28
ENDBRANCH  17  26
TORSDOF 5
ENDMDL
MODEL 4
REMARK VINA RESULT:      -7.8     13.813     17.531
REMARK  Name = 16224058
REMARK  5 active torsions:
REMARK  status: ('A' for Active; 'I' for Inactive)
REMARK    1  A    between atoms: C_7  and  N_26
REMARK    2  A    between atoms: C_17  and  C_21
REMARK    3  A    between atoms: C_21  and  C_23
REMARK    4  A    between atoms: C_23  and  O_24
REMARK    5  A    between atoms: N_26  and  C_28
REMARK                            x       y       z     vdW  Elec       q    Type
REMARK                         _______ _______ _______ _____ _____    ______ ____
ROOT
ATOM      1  N   UNL     1      31.449  -8.192 -20.273  0.00  0.00    -0.164 N 
ATOM      2  N   UNL     1      31.212  -8.364 -18.961  0.00  0.00    -0.170 NA
ATOM      3  N   UNL     1      31.725  -6.748 -22.120  0.00  0.00    -0.370 NA
ATOM      4  N   UNL     1      31.299  -4.556 -20.422  0.00  0.00    -0.256 NA
ATOM      5  C   UNL     1      31.637  -9.357 -20.966  0.00  0.00    +0.079 C 
ATOM      6  C   UNL     1      31.509 -10.371 -20.021  0.00  0.00    +0.036 C 
ATOM      7  C   UNL     1      32.039 -10.940 -22.700  0.00  0.00    +0.046 C 
ATOM      8  C   UNL     1      31.902  -9.603 -22.315  0.00  0.00    +0.031 C 
ATOM      9  C   UNL     1      31.649 -11.709 -20.424  0.00  0.00    +0.004 C 
ATOM     10  C   UNL     1      31.915 -11.977 -21.773  0.00  0.00    +0.014 C 
ATOM     11  C   UNL     1      31.486  -6.902 -20.802  0.00  0.00    +0.209 C 
ATOM     12  C   UNL     1      31.248  -9.690 -18.813  0.00  0.00    +0.120 C 
ATOM     13  C   UNL     1      31.747  -5.478 -22.573  0.00  0.00    +0.211 C 
ATOM     14  C   UNL     1      31.277  -5.826 -19.969  0.00  0.00    +0.202 C 
ATOM     15  C   UNL     1      31.538  -4.402 -21.739  0.00  0.00    +0.142 C 
ATOM     16  N   UNL     1      31.988  -5.254 -23.918  0.00  0.00    -0.238 N 
ATOM     17  C   UNL     1      32.413  -5.609 -26.068  0.00  0.00    +0.005 C 
ATOM     18  C   UNL     1      32.214  -6.228 -24.854  0.00  0.00    +0.068 C 
ATOM     19  C   UNL     1      32.040  -4.021 -24.515  0.00  0.00    +0.072 C 
ATOM     20  C   UNL     1      32.302  -4.212 -25.854  0.00  0.00    +0.014 C 
ENDROOT
BRANCH   7  21
ATOM     21  N   UNL     1      32.309 -11.247 -24.054  0.00  0.00    -0.334 N 
ATOM     22  H   UNL     1      32.371 -10.508 -24.702  0.00  0.00    +0.147 HD
BRANCH  21  23
ATOM     23  C   UNL     1      32.494 -12.584 -24.522  0.00  0.00    +0.069 C 
ATOM     24  C   UNL     1      33.706 -13.194 -23.830  0.00  0.00    +0.021 C 
ATOM     25  C   UNL     1      32.666 -12.574 -26.036  0.00  0.00    +0.021 C 
ENDBRANCH  21  23
ENDBRANCH   7  21
BRANCH  17  26
ATOM     26  C   UNL     1      32.691  -6.277 -27.353  0.00  0.00    +0.137 C 
BRANCH  26  28
ATOM     27  O   UNL     1      33.152  -4.932 -29.313  0.00  0.00    -0.250 OA
ATOM     28  C   UNL     1      33.546  -5.413 -28.258  0.00  0.00    +0.318 C 
BRANCH  28  29
ATOM     29  O   UNL     1      34.814  -5.266 -27.801  0.00  0.00    -0.480 OA
ATOM     30  H   UNL     1      35.472  -5.890 -28.036  0.00  0.00    +0.295 HD
ENDBRANCH  28  29
ENDBRANCH  26  28
ENDBRANCH  17  26
TORSDOF 5
ENDMDL
MODEL 5
REMARK VINA RESULT:      -7.7      3.301      6.636
REMARK  Name = 16224058
REMARK  5 active torsions:
REMARK  status: ('A' for Active; 'I' for Inactive)
REMARK    1  A    between atoms: C_7  and  N_26
REMARK    2  A    between atoms: C_17  and  C_21
REMARK    3  A    between atoms: C_21  and  C_23
REMARK    4  A    between atoms: C_23  and  O_24
REMARK    5  A    between atoms: N_26  and  C_28
REMARK                            x       y       z     vdW  Elec       q    Type
REMARK                         _______ _______ _______ _____ _____    ______ ____
ROOT
ATOM      1  N   UNL     1      33.355 -23.669 -13.587  0.00  0.00    -0.164 N 
ATOM      2  N   UNL     1      32.746 -24.136 -12.484  0.00  0.00    -0.170 NA
ATOM      3  N   UNL     1      33.215 -22.709 -15.740  0.00  0.00    -0.370 NA
ATOM      4  N   UNL     1      30.419 -22.714 -15.519  0.00  0.00    -0.256 NA
ATOM      5  C   UNL     1      34.722 -23.734 -13.542  0.00  0.00    +0.079 C 
ATOM      6  C   UNL     1      35.022 -24.292 -12.304  0.00  0.00    +0.036 C 
ATOM      7  C   UNL     1      37.033 -23.566 -14.096  0.00  0.00    +0.046 C 
ATOM      8  C   UNL     1      35.701 -23.358 -14.465  0.00  0.00    +0.031 C 
ATOM      9  C   UNL     1      36.365 -24.497 -11.948  0.00  0.00    +0.004 C 
ATOM     10  C   UNL     1      37.362 -24.126 -12.860  0.00  0.00    +0.014 C 
ATOM     11  C   UNL     1      32.588 -23.175 -14.641  0.00  0.00    +0.209 C 
ATOM     12  C   UNL     1      33.762 -24.515 -11.707  0.00  0.00    +0.120 C 
ATOM     13  C   UNL     1      32.420 -22.247 -16.726  0.00  0.00    +0.211 C 
ATOM     14  C   UNL     1      31.214 -23.176 -14.533  0.00  0.00    +0.202 C 
ATOM     15  C   UNL     1      31.047 -22.249 -16.616  0.00  0.00    +0.142 C 
ATOM     16  N   UNL     1      33.005 -21.756 -17.880  0.00  0.00    -0.238 N 
ATOM     17  C   UNL     1      34.535 -21.144 -19.368  0.00  0.00    +0.005 C 
ATOM     18  C   UNL     1      34.352 -21.693 -18.118  0.00  0.00    +0.068 C 
ATOM     19  C   UNL     1      32.323 -21.255 -18.959  0.00  0.00    +0.072 C 
ATOM     20  C   UNL     1      33.251 -20.867 -19.900  0.00  0.00    +0.014 C 
ENDROOT
BRANCH   7  21
ATOM     21  N   UNL     1      38.064 -23.204 -14.992  0.00  0.00    -0.334 N 
ATOM     22  H   UNL     1      38.024 -22.321 -15.427  0.00  0.00    +0.147 HD
BRANCH  21  23
ATOM     23  C   UNL     1      39.165 -24.065 -15.294  0.00  0.00    +0.069 C 
ATOM     24  C   UNL     1      38.678 -25.507 -15.329  0.00  0.00    +0.021 C 
ATOM     25  C   UNL     1      40.261 -23.873 -14.254  0.00  0.00    +0.021 C 
ENDBRANCH  21  23
ENDBRANCH   7  21
BRANCH  17  26
ATOM     26  C   UNL     1      35.829 -20.889 -20.030  0.00  0.00    +0.137 C 
BRANCH  26  28
ATOM     27  O   UNL     1      35.256 -19.144 -21.607  0.00  0.00    -0.250 OA
ATOM     28  C   UNL     1      35.890 -19.496 -20.619  0.00  0.00    +0.318 C 
BRANCH  28  29
ATOM     29  O   UNL     1      36.760 -18.686 -19.967  0.00  0.00    -0.480 OA
ATOM     30  H   UNL     1      36.595 -18.440 -19.077  0.00  0.00    +0.295 HD
ENDBRANCH  28  29
ENDBRANCH  26  28
ENDBRANCH  17  26
TORSDOF 5
ENDMDL
MODEL 6
REMARK VINA RESULT:      -7.6      3.599      8.074
REMARK  Name = 16224058
REMARK  5 active torsions:
REMARK  status: ('A' for Active; 'I' for Inactive)
REMARK    1  A    between atoms: C_7  and  N_26
REMARK    2  A    between atoms: C_17  and  C_21
REMARK    3  A    between atoms: C_21  and  C_23
REMARK    4  A    between atoms: C_23  and  O_24
REMARK    5  A    between atoms: N_26  and  C_28
REMARK                            x       y       z     vdW  Elec       q    Type
REMARK                         _______ _______ _______ _____ _____    ______ ____
ROOT
ATOM      1  N   UNL     1      30.981 -22.657 -16.515  0.00  0.00    -0.164 N 
ATOM      2  N   UNL     1      29.763 -22.492 -17.059  0.00  0.00    -0.170 NA
ATOM      3  N   UNL     1      33.320 -22.357 -16.628  0.00  0.00    -0.370 NA
ATOM      4  N   UNL     1      32.998 -21.079 -19.104  0.00  0.00    -0.256 NA
ATOM      5  C   UNL     1      30.972 -23.298 -15.306  0.00  0.00    +0.079 C 
ATOM      6  C   UNL     1      29.633 -23.572 -15.046  0.00  0.00    +0.036 C 
ATOM      7  C   UNL     1      31.641 -24.315 -13.258  0.00  0.00    +0.046 C 
ATOM      8  C   UNL     1      32.004 -23.654 -14.435  0.00  0.00    +0.031 C 
ATOM      9  C   UNL     1      29.284 -24.238 -13.860  0.00  0.00    +0.004 C 
ATOM     10  C   UNL     1      30.305 -24.604 -12.973  0.00  0.00    +0.014 C 
ATOM     11  C   UNL     1      32.106 -22.184 -17.189  0.00  0.00    +0.209 C 
ATOM     12  C   UNL     1      28.947 -23.051 -16.164  0.00  0.00    +0.120 C 
ATOM     13  C   UNL     1      34.369 -21.880 -17.328  0.00  0.00    +0.211 C 
ATOM     14  C   UNL     1      31.948 -21.555 -18.405  0.00  0.00    +0.202 C 
ATOM     15  C   UNL     1      34.211 -21.252 -18.543  0.00  0.00    +0.142 C 
ATOM     16  N   UNL     1      35.642 -22.028 -16.805  0.00  0.00    -0.238 N 
ATOM     17  C   UNL     1      37.308 -22.575 -15.442  0.00  0.00    +0.005 C 
ATOM     18  C   UNL     1      35.942 -22.627 -15.610  0.00  0.00    +0.068 C 
ATOM     19  C   UNL     1      36.797 -21.593 -17.403  0.00  0.00    +0.072 C 
ATOM     20  C   UNL     1      37.849 -21.920 -16.577  0.00  0.00    +0.014 C 
ENDROOT
BRANCH   7  21
ATOM     21  N   UNL     1      32.646 -24.698 -12.340  0.00  0.00    -0.334 N 
ATOM     22  H   UNL     1      32.431 -25.375 -11.659  0.00  0.00    +0.147 HD
BRANCH  21  23
ATOM     23  C   UNL     1      33.963 -24.143 -12.360  0.00  0.00    +0.069 C 
ATOM     24  C   UNL     1      34.803 -24.881 -13.393  0.00  0.00    +0.021 C 
ATOM     25  C   UNL     1      34.578 -24.245 -10.970  0.00  0.00    +0.021 C 
ENDBRANCH  21  23
ENDBRANCH   7  21
BRANCH  17  26
ATOM     26  C   UNL     1      38.067 -23.101 -14.292  0.00  0.00    +0.137 C 
BRANCH  26  28
ATOM     27  O   UNL     1      40.166 -24.278 -14.562  0.00  0.00    -0.250 OA
ATOM     28  C   UNL     1      38.947 -24.267 -14.690  0.00  0.00    +0.318 C 
BRANCH  28  29
ATOM     29  O   UNL     1      38.250 -25.287 -15.250  0.00  0.00    -0.480 OA
ATOM     30  H   UNL     1      37.413 -25.123 -15.641  0.00  0.00    +0.295 HD
ENDBRANCH  28  29
ENDBRANCH  26  28
ENDBRANCH  17  26
TORSDOF 5
ENDMDL
MODEL 7
REMARK VINA RESULT:      -7.4      2.272      5.442
REMARK  Name = 16224058
REMARK  5 active torsions:
REMARK  status: ('A' for Active; 'I' for Inactive)
REMARK    1  A    between atoms: C_7  and  N_26
REMARK    2  A    between atoms: C_17  and  C_21
REMARK    3  A    between atoms: C_21  and  C_23
REMARK    4  A    between atoms: C_23  and  O_24
REMARK    5  A    between atoms: N_26  and  C_28
REMARK                            x       y       z     vdW  Elec       q    Type
REMARK                         _______ _______ _______ _____ _____    ______ ____
ROOT
ATOM      1  N   UNL     1      35.353 -21.965 -16.911  0.00  0.00    -0.164 N 
ATOM      2  N   UNL     1      36.358 -21.413 -17.612  0.00  0.00    -0.170 NA
ATOM      3  N   UNL     1      33.047 -22.406 -16.661  0.00  0.00    -0.370 NA
ATOM      4  N   UNL     1      32.561 -21.013 -19.046  0.00  0.00    -0.256 NA
ATOM      5  C   UNL     1      35.752 -22.610 -15.772  0.00  0.00    +0.079 C 
ATOM      6  C   UNL     1      37.134 -22.462 -15.731  0.00  0.00    +0.036 C 
ATOM      7  C   UNL     1      35.763 -23.848 -13.736  0.00  0.00    +0.046 C 
ATOM      8  C   UNL     1      35.031 -23.297 -14.792  0.00  0.00    +0.031 C 
ATOM      9  C   UNL     1      37.856 -23.021 -14.664  0.00  0.00    +0.004 C 
ATOM     10  C   UNL     1      37.152 -23.714 -13.671  0.00  0.00    +0.014 C 
ATOM     11  C   UNL     1      34.043 -21.846 -17.376  0.00  0.00    +0.209 C 
ATOM     12  C   UNL     1      37.440 -21.717 -16.890  0.00  0.00    +0.120 C 
ATOM     13  C   UNL     1      31.803 -22.256 -17.159  0.00  0.00    +0.211 C 
ATOM     14  C   UNL     1      33.804 -21.163 -18.548  0.00  0.00    +0.202 C 
ATOM     15  C   UNL     1      31.565 -21.572 -18.331  0.00  0.00    +0.142 C 
ATOM     16  N   UNL     1      30.737 -22.808 -16.471  0.00  0.00    -0.238 N 
ATOM     17  C   UNL     1      29.561 -23.896 -14.933  0.00  0.00    +0.005 C 
ATOM     18  C   UNL     1      30.832 -23.513 -15.300  0.00  0.00    +0.068 C 
ATOM     19  C   UNL     1      29.424 -22.735 -16.859  0.00  0.00    +0.072 C 
ATOM     20  C   UNL     1      28.670 -23.404 -15.920  0.00  0.00    +0.014 C 
ENDROOT
BRANCH   7  21
ATOM     21  N   UNL     1      35.084 -24.554 -12.717  0.00  0.00    -0.334 N 
ATOM     22  H   UNL     1      34.205 -24.948 -12.921  0.00  0.00    +0.147 HD
BRANCH  21  23
ATOM     23  C   UNL     1      35.620 -24.720 -11.403  0.00  0.00    +0.069 C 
ATOM     24  C   UNL     1      35.802 -23.353 -10.759  0.00  0.00    +0.021 C 
ATOM     25  C   UNL     1      36.940 -25.476 -11.482  0.00  0.00    +0.021 C 
ENDBRANCH  21  23
ENDBRANCH   7  21
BRANCH  17  26
ATOM     26  C   UNL     1      29.195 -24.676 -13.737  0.00  0.00    +0.137 C 
BRANCH  26  28
ATOM     27  O   UNL     1      29.872 -23.591 -11.681  0.00  0.00    -0.250 OA
ATOM     28  C   UNL     1      30.124 -24.388 -12.576  0.00  0.00    +0.318 C 
BRANCH  28  29
ATOM     29  O   UNL     1      31.293 -25.072 -12.655  0.00  0.00    -0.480 OA
ATOM     30  H   UNL     1      31.601 -25.559 -11.916  0.00  0.00    +0.295 HD
ENDBRANCH  28  29
ENDBRANCH  26  28
ENDBRANCH  17  26
TORSDOF 5
ENDMDL
MODEL 8
REMARK VINA RESULT:      -7.4     14.119     17.547
REMARK  Name = 16224058
REMARK  5 active torsions:
REMARK  status: ('A' for Active; 'I' for Inactive)
REMARK    1  A    between atoms: C_7  and  N_26
REMARK    2  A    between atoms: C_17  and  C_21
REMARK    3  A    between atoms: C_21  and  C_23
REMARK    4  A    between atoms: C_23  and  O_24
REMARK    5  A    between atoms: N_26  and  C_28
REMARK                            x       y       z     vdW  Elec       q    Type
REMARK                         _______ _______ _______ _____ _____    ______ ____
ROOT
ATOM      1  N   UNL     1      31.390  -4.811 -22.095  0.00  0.00    -0.164 N 
ATOM      2  N   UNL     1      31.137  -3.649 -21.470  0.00  0.00    -0.170 NA
ATOM      3  N   UNL     1      31.658  -7.155 -22.008  0.00  0.00    -0.370 NA
ATOM      4  N   UNL     1      31.156  -7.071 -19.249  0.00  0.00    -0.256 NA
ATOM      5  C   UNL     1      31.614  -4.686 -23.440  0.00  0.00    +0.079 C 
ATOM      6  C   UNL     1      31.497  -3.326 -23.706  0.00  0.00    +0.036 C 
ATOM      7  C   UNL     1      32.080  -5.157 -25.728  0.00  0.00    +0.046 C 
ATOM      8  C   UNL     1      31.905  -5.632 -24.425  0.00  0.00    +0.031 C 
ATOM      9  C   UNL     1      31.677  -2.863 -25.020  0.00  0.00    +0.004 C 
ATOM     10  C   UNL     1      31.969  -3.797 -26.024  0.00  0.00    +0.014 C 
ATOM     11  C   UNL     1      31.402  -5.998 -21.364  0.00  0.00    +0.209 C 
ATOM     12  C   UNL     1      31.204  -2.748 -22.452  0.00  0.00    +0.120 C 
ATOM     13  C   UNL     1      31.658  -8.268 -21.248  0.00  0.00    +0.211 C 
ATOM     14  C   UNL     1      31.155  -5.957 -20.010  0.00  0.00    +0.202 C 
ATOM     15  C   UNL     1      31.411  -8.227 -19.893  0.00  0.00    +0.142 C 
ATOM     16  N   UNL     1      31.913  -9.488 -21.850  0.00  0.00    -0.238 N 
ATOM     17  C   UNL     1      32.370 -11.019 -23.392  0.00  0.00    +0.005 C 
ATOM     18  C   UNL     1      32.171  -9.672 -23.183  0.00  0.00    +0.068 C 
ATOM     19  C   UNL     1      31.944 -10.696 -21.204  0.00  0.00    +0.072 C 
ATOM     20  C   UNL     1      32.227 -11.667 -22.140  0.00  0.00    +0.014 C 
ENDROOT
BRANCH   7  21
ATOM     21  N   UNL     1      32.375  -6.071 -26.765  0.00  0.00    -0.334 N 
ATOM     22  H   UNL     1      31.724  -6.781 -26.969  0.00  0.00    +0.147 HD
BRANCH  21  23
ATOM     23  C   UNL     1      33.581  -6.011 -27.529  0.00  0.00    +0.069 C 
ATOM     24  C   UNL     1      34.716  -5.523 -26.639  0.00  0.00    +0.021 C 
ATOM     25  C   UNL     1      33.380  -5.090 -28.726  0.00  0.00    +0.021 C 
ENDBRANCH  21  23
ENDBRANCH   7  21
BRANCH  17  26
ATOM     26  C   UNL     1      32.674 -11.667 -24.682  0.00  0.00    +0.137 C 
BRANCH  26  28
ATOM     27  O   UNL     1      33.552 -13.661 -23.627  0.00  0.00    -0.250 OA
ATOM     28  C   UNL     1      32.885 -13.158 -24.522  0.00  0.00    +0.318 C 
BRANCH  28  29
ATOM     29  O   UNL     1      32.295 -13.881 -25.506  0.00  0.00    -0.480 OA
ATOM     30  H   UNL     1      31.565 -13.526 -25.976  0.00  0.00    +0.295 HD
ENDBRANCH  28  29
ENDBRANCH  26  28
ENDBRANCH  17  26
TORSDOF 5
ENDMDL
