MODEL 1
REMARK VINA RESULT:     -11.5      0.000      0.000
REMARK  Name = 46848915
REMARK  5 active torsions:
REMARK  status: ('A' for Active; 'I' for Inactive)
REMARK    1  A    between atoms: N_2  and  C_9
REMARK    2  A    between atoms: C_4  and  C_22
REMARK    3  A    between atoms: C_7  and  O_31
REMARK    4  A    between atoms: C_10  and  N_15
REMARK    5  A    between atoms: N_20  and  C_25
REMARK                            x       y       z     vdW  Elec       q    Type
REMARK                         _______ _______ _______ _____ _____    ______ ____
ROOT
ATOM      1  O   UNL     1      33.282 -24.787 -13.066  0.00  0.00    -0.282 OA
ATOM      2  N   UNL     1      33.761 -22.766 -16.454  0.00  0.00    -0.183 N 
ATOM      3  N   UNL     1      34.744 -23.652 -16.086  0.00  0.00    -0.169 NA
ATOM      4  C   UNL     1      34.572 -24.389 -15.029  0.00  0.00    +0.156 C 
ATOM      5  C   UNL     1      33.337 -24.249 -14.160  0.00  0.00    +0.251 C 
ATOM      6  C   UNL     1      32.547 -22.721 -15.792  0.00  0.00    +0.129 C 
ATOM      7  C   UNL     1      32.253 -23.411 -14.687  0.00  0.00    +0.196 C 
ENDROOT
BRANCH   2   9
ATOM      8  F   UNL     1      36.372 -21.879 -16.918  0.00  0.00    -0.203 F 
ATOM      9  C   UNL     1      34.092 -21.936 -17.578  0.00  0.00    +0.101 C 
ATOM     10  C   UNL     1      34.730 -20.329 -19.767  0.00  0.00    +0.076 C 
ATOM     11  C   UNL     1      35.407 -21.516 -17.775  0.00  0.00    +0.157 C 
ATOM     12  C   UNL     1      33.096 -21.553 -18.476  0.00  0.00    +0.020 C 
ATOM     13  C   UNL     1      35.726 -20.712 -18.869  0.00  0.00    +0.048 C 
ATOM     14  C   UNL     1      33.414 -20.750 -19.570  0.00  0.00    +0.018 C 
BRANCH  10  15
ATOM     15  N   UNL     1      35.046 -19.531 -20.851  0.00  0.00    -0.189 N 
ATOM     16  N   UNL     1      36.177 -18.803 -20.856  0.00  0.00    -0.172 NA
ATOM     17  C   UNL     1      34.297 -19.391 -21.981  0.00  0.00    +0.091 C 
ATOM     18  C   UNL     1      34.983 -18.511 -22.781  0.00  0.00    +0.040 C 
ATOM     19  C   UNL     1      36.132 -18.183 -22.038  0.00  0.00    +0.120 C 
ENDBRANCH  10  15
ENDBRANCH   2   9
BRANCH   4  22
ATOM     20  N   UNL     1      36.406 -25.336 -13.558  0.00  0.00    -0.188 N 
ATOM     21  N   UNL     1      37.274 -26.358 -13.471  0.00  0.00    -0.172 NA
ATOM     22  C   UNL     1      35.615 -25.376 -14.668  0.00  0.00    +0.098 C 
ATOM     23  C   UNL     1      35.993 -26.502 -15.357  0.00  0.00    +0.041 C 
ATOM     24  C   UNL     1      37.017 -27.068 -14.574  0.00  0.00    +0.120 C 
BRANCH  20  25
ATOM     25  C   UNL     1      36.379 -24.371 -12.567  0.00  0.00    +0.074 C 
ATOM     26  C   UNL     1      35.774 -24.647 -11.341  0.00  0.00    +0.017 C 
ATOM     27  C   UNL     1      36.959 -23.124 -12.794  0.00  0.00    +0.017 C 
ATOM     28  C   UNL     1      35.749 -23.675 -10.341  0.00  0.00    +0.001 C 
ATOM     29  C   UNL     1      36.933 -22.151 -11.794  0.00  0.00    +0.001 C 
ATOM     30  C   UNL     1      36.329 -22.426 -10.568  0.00  0.00    +0.000 C 
ENDBRANCH  20  25
ENDBRANCH   4  22
BRANCH   7  31
ATOM     31  O   UNL     1      31.056 -23.364 -14.021  0.00  0.00    -0.467 OA
ATOM     32  C   UNL     1      30.151 -22.477 -14.656  0.00  0.00    +0.253 C 
ENDBRANCH   7  31
TORSDOF 5
ENDMDL
MODEL 2
REMARK VINA RESULT:      -9.0      3.159      5.308
REMARK  Name = 46848915
REMARK  5 active torsions:
REMARK  status: ('A' for Active; 'I' for Inactive)
REMARK    1  A    between atoms: N_2  and  C_9
REMARK    2  A    between atoms: C_4  and  C_22
REMARK    3  A    between atoms: C_7  and  O_31
REMARK    4  A    between atoms: C_10  and  N_15
REMARK    5  A    between atoms: N_20  and  C_25
REMARK                            x       y       z     vdW  Elec       q    Type
REMARK                         _______ _______ _______ _____ _____    ______ ____
ROOT
ATOM      1  O   UNL     1      38.121 -23.242 -15.644  0.00  0.00    -0.282 OA
ATOM      2  N   UNL     1      34.204 -22.576 -15.590  0.00  0.00    -0.183 N 
ATOM      3  N   UNL     1      34.664 -23.769 -15.086  0.00  0.00    -0.169 NA
ATOM      4  C   UNL     1      35.945 -23.976 -15.012  0.00  0.00    +0.156 C 
ATOM      5  C   UNL     1      36.941 -22.954 -15.523  0.00  0.00    +0.251 C 
ATOM      6  C   UNL     1      35.072 -21.548 -15.912  0.00  0.00    +0.129 C 
ATOM      7  C   UNL     1      36.404 -21.639 -15.896  0.00  0.00    +0.196 C 
ENDROOT
BRANCH   2   9
ATOM      8  F   UNL     1      32.955 -22.272 -18.073  0.00  0.00    -0.203 F 
ATOM      9  C   UNL     1      32.777 -22.489 -15.715  0.00  0.00    +0.101 C 
ATOM     10  C   UNL     1      30.002 -22.326 -15.954  0.00  0.00    +0.076 C 
ATOM     11  C   UNL     1      32.192 -22.339 -16.973  0.00  0.00    +0.157 C 
ATOM     12  C   UNL     1      31.973 -22.558 -14.577  0.00  0.00    +0.020 C 
ATOM     13  C   UNL     1      30.805 -22.257 -17.093  0.00  0.00    +0.048 C 
ATOM     14  C   UNL     1      30.586 -22.476 -14.696  0.00  0.00    +0.018 C 
BRANCH  10  15
ATOM     15  N   UNL     1      28.626 -22.243 -16.073  0.00  0.00    -0.189 N 
ATOM     16  N   UNL     1      28.023 -22.534 -17.238  0.00  0.00    -0.172 NA
ATOM     17  C   UNL     1      27.763 -21.879 -15.082  0.00  0.00    +0.091 C 
ATOM     18  C   UNL     1      26.509 -21.934 -15.637  0.00  0.00    +0.040 C 
ATOM     19  C   UNL     1      26.730 -22.344 -16.965  0.00  0.00    +0.120 C 
ENDBRANCH  10  15
ENDBRANCH   2   9
BRANCH   4  22
ATOM     20  N   UNL     1      36.621 -25.490 -13.095  0.00  0.00    -0.188 N 
ATOM     21  N   UNL     1      37.070 -26.728 -12.830  0.00  0.00    -0.172 NA
ATOM     22  C   UNL     1      36.431 -25.245 -14.423  0.00  0.00    +0.098 C 
ATOM     23  C   UNL     1      36.782 -26.403 -15.073  0.00  0.00    +0.041 C 
ATOM     24  C   UNL     1      37.167 -27.282 -14.042  0.00  0.00    +0.120 C 
BRANCH  20  25
ATOM     25  C   UNL     1      36.395 -24.603 -12.058  0.00  0.00    +0.074 C 
ATOM     26  C   UNL     1      37.102 -23.402 -12.002  0.00  0.00    +0.017 C 
ATOM     27  C   UNL     1      35.459 -24.908 -11.071  0.00  0.00    +0.017 C 
ATOM     28  C   UNL     1      36.873 -22.506 -10.957  0.00  0.00    +0.001 C 
ATOM     29  C   UNL     1      35.231 -24.013 -10.026  0.00  0.00    +0.001 C 
ATOM     30  C   UNL     1      35.937 -22.812  -9.969  0.00  0.00    +0.000 C 
ENDBRANCH  20  25
ENDBRANCH   4  22
BRANCH   7  31
ATOM     31  O   UNL     1      37.270 -20.628 -16.223  0.00  0.00    -0.467 OA
ATOM     32  C   UNL     1      36.871 -19.981 -17.420  0.00  0.00    +0.253 C 
ENDBRANCH   7  31
TORSDOF 5
ENDMDL
