MODEL 1
REMARK VINA RESULT:     -11.7      0.000      0.000
REMARK  Name = 16750059
REMARK  4 active torsions:
REMARK  status: ('A' for Active; 'I' for Inactive)
REMARK    1  A    between atoms: C_4  and  C_15
REMARK    2  A    between atoms: C_5  and  N_31
REMARK    3  A    between atoms: C_10  and  C_21
REMARK    4  A    between atoms: C_24  and  S_27
REMARK                            x       y       z     vdW  Elec       q    Type
REMARK                         _______ _______ _______ _____ _____    ______ ____
ROOT
ATOM      1  N   UNL     1      33.710 -16.575 -23.787  0.00  0.00    -0.298 N 
ATOM      2  N   UNL     1      33.318 -14.964 -25.449  0.00  0.00    -0.234 NA
ATOM      3  N   UNL     1      32.604 -12.753 -24.808  0.00  0.00    -0.248 NA
ATOM      4  C   UNL     1      33.909 -18.584 -22.555  0.00  0.00    +0.026 C 
ATOM      5  C   UNL     1      34.692 -18.715 -23.872  0.00  0.00    -0.040 C 
ATOM      6  C   UNL     1      33.774 -17.056 -22.406  0.00  0.00    +0.094 C 
ATOM      7  C   UNL     1      34.063 -17.623 -24.745  0.00  0.00    +0.070 C 
ATOM      8  C   UNL     1      33.340 -15.295 -24.142  0.00  0.00    +0.111 C 
ATOM      9  C   UNL     1      33.012 -14.424 -23.123  0.00  0.00    +0.106 C 
ATOM     10  C   UNL     1      32.649 -13.153 -23.520  0.00  0.00    +0.063 C 
ATOM     11  C   UNL     1      32.947 -13.695 -25.707  0.00  0.00    +0.251 C 
ENDROOT
BRANCH   4  15
ATOM     12  F   UNL     1      36.581 -18.117 -21.727  0.00  0.00    -0.204 F 
ATOM     13  F   UNL     1      33.641 -21.655 -18.768  0.00  0.00    -0.202 F 
ATOM     14  F   UNL     1      36.232 -21.111 -18.080  0.00  0.00    -0.202 F 
ATOM     15  C   UNL     1      34.533 -19.260 -21.357  0.00  0.00    +0.007 C 
ATOM     16  C   UNL     1      35.854 -18.983 -21.007  0.00  0.00    +0.138 C 
ATOM     17  C   UNL     1      33.786 -20.162 -20.601  0.00  0.00    +0.030 C 
ATOM     18  C   UNL     1      34.359 -20.787 -19.494  0.00  0.00    +0.167 C 
ATOM     19  C   UNL     1      36.428 -19.607 -19.899  0.00  0.00    +0.061 C 
ATOM     20  C   UNL     1      35.681 -20.510 -19.143  0.00  0.00    +0.170 C 
ENDBRANCH   4  15
BRANCH  10  21
ATOM     21  C   UNL     1      32.282 -12.145 -22.553  0.00  0.00    +0.015 C 
ATOM     22  C   UNL     1      32.239 -10.802 -22.927  0.00  0.00    +0.020 C 
ATOM     23  C   UNL     1      31.971 -12.514 -21.246  0.00  0.00    +0.001 C 
ATOM     24  C   UNL     1      31.887  -9.828 -21.993  0.00  0.00    +0.106 C 
ATOM     25  C   UNL     1      31.576 -10.198 -20.684  0.00  0.00    +0.018 C 
ATOM     26  C   UNL     1      31.619 -11.542 -20.310  0.00  0.00    +0.001 C 
BRANCH  24  27
ATOM     27  S   UNL     1      31.836  -8.147 -22.458  0.00  0.00    +0.010 S 
ATOM     28  O   UNL     1      33.074  -7.838 -23.162  0.00  0.00    -0.169 OA
ATOM     29  O   UNL     1      30.556  -7.871 -23.095  0.00  0.00    -0.169 OA
ATOM     30  C   UNL     1      31.849  -7.261 -20.916  0.00  0.00    +0.182 C 
ENDBRANCH  24  27
ENDBRANCH  10  21
BRANCH   5  31
ATOM     31  N   UNL     1      34.574 -20.033 -24.478  0.00  0.00    +0.383 N 
ATOM     32  H   UNL     1      33.588 -20.255 -24.620  0.00  0.00    -0.089 HD
ATOM     33  H   UNL     1      34.995 -20.729 -23.862  0.00  0.00    -0.089 HD
ATOM     34  H   UNL     1      35.057 -20.038 -25.377  0.00  0.00    -0.089 HD
ENDBRANCH   5  31
TORSDOF 4
ENDMDL
MODEL 2
REMARK VINA RESULT:     -11.5      6.331     11.092
REMARK  Name = 16750059
REMARK  4 active torsions:
REMARK  status: ('A' for Active; 'I' for Inactive)
REMARK    1  A    between atoms: C_4  and  C_15
REMARK    2  A    between atoms: C_5  and  N_31
REMARK    3  A    between atoms: C_10  and  C_21
REMARK    4  A    between atoms: C_24  and  S_27
REMARK                            x       y       z     vdW  Elec       q    Type
REMARK                         _______ _______ _______ _____ _____    ______ ____
ROOT
ATOM      1  N   UNL     1      31.693  -9.274 -22.160  0.00  0.00    -0.298 N 
ATOM      2  N   UNL     1      31.371 -10.799 -20.404  0.00  0.00    -0.234 NA
ATOM      3  N   UNL     1      32.086 -13.084 -20.676  0.00  0.00    -0.248 NA
ATOM      4  C   UNL     1      31.497  -7.492 -23.703  0.00  0.00    +0.026 C 
ATOM      5  C   UNL     1      31.464  -6.931 -22.271  0.00  0.00    -0.040 C 
ATOM      6  C   UNL     1      32.140  -8.878 -23.497  0.00  0.00    +0.094 C 
ATOM      7  C   UNL     1      31.076  -8.161 -21.440  0.00  0.00    +0.070 C 
ATOM      8  C   UNL     1      31.819 -10.550 -21.652  0.00  0.00    +0.111 C 
ATOM      9  C   UNL     1      32.405 -11.501 -22.462  0.00  0.00    +0.106 C 
ATOM     10  C   UNL     1      32.513 -12.764 -21.915  0.00  0.00    +0.063 C 
ATOM     11  C   UNL     1      31.534 -12.069 -19.985  0.00  0.00    +0.251 C 
ENDROOT
BRANCH   4  15
ATOM     12  F   UNL     1      30.703  -7.323 -26.420  0.00  0.00    -0.204 F 
ATOM     13  F   UNL     1      35.045  -4.360 -24.907  0.00  0.00    -0.202 F 
ATOM     14  F   UNL     1      34.171  -4.290 -27.497  0.00  0.00    -0.202 F 
ATOM     15  C   UNL     1      32.212  -6.635 -24.721  0.00  0.00    +0.007 C 
ATOM     16  C   UNL     1      31.767  -6.600 -26.042  0.00  0.00    +0.138 C 
ATOM     17  C   UNL     1      33.319  -5.879 -24.338  0.00  0.00    +0.030 C 
ATOM     18  C   UNL     1      33.981  -5.087 -25.275  0.00  0.00    +0.167 C 
ATOM     19  C   UNL     1      32.428  -5.807 -26.980  0.00  0.00    +0.061 C 
ATOM     20  C   UNL     1      33.536  -5.051 -26.597  0.00  0.00    +0.170 C 
ENDBRANCH   4  15
BRANCH  10  21
ATOM     21  C   UNL     1      33.106 -13.850 -22.658  0.00  0.00    +0.015 C 
ATOM     22  C   UNL     1      33.734 -14.897 -21.983  0.00  0.00    +0.020 C 
ATOM     23  C   UNL     1      33.052 -13.853 -24.051  0.00  0.00    +0.001 C 
ATOM     24  C   UNL     1      34.308 -15.946 -22.701  0.00  0.00    +0.106 C 
ATOM     25  C   UNL     1      34.253 -15.948 -24.095  0.00  0.00    +0.018 C 
ATOM     26  C   UNL     1      33.625 -14.901 -24.770  0.00  0.00    +0.001 C 
BRANCH  24  27
ATOM     27  S   UNL     1      35.097 -17.255 -21.858  0.00  0.00    +0.010 S 
ATOM     28  O   UNL     1      36.380 -17.497 -22.502  0.00  0.00    -0.169 OA
ATOM     29  O   UNL     1      35.046 -16.992 -20.426  0.00  0.00    -0.169 OA
ATOM     30  C   UNL     1      34.058 -18.666 -22.162  0.00  0.00    +0.182 C 
ENDBRANCH  24  27
ENDBRANCH  10  21
BRANCH   5  31
ATOM     31  N   UNL     1      30.516  -5.840 -22.106  0.00  0.00    +0.383 N 
ATOM     32  H   UNL     1      30.293  -5.443 -23.019  0.00  0.00    -0.089 HD
ATOM     33  H   UNL     1      30.927  -5.119 -21.513  0.00  0.00    -0.089 HD
ATOM     34  H   UNL     1      29.664  -6.193 -21.671  0.00  0.00    -0.089 HD
ENDBRANCH   5  31
TORSDOF 4
ENDMDL
MODEL 3
REMARK VINA RESULT:     -11.5      5.537      9.329
REMARK  Name = 16750059
REMARK  4 active torsions:
REMARK  status: ('A' for Active; 'I' for Inactive)
REMARK    1  A    between atoms: C_4  and  C_15
REMARK    2  A    between atoms: C_5  and  N_31
REMARK    3  A    between atoms: C_10  and  C_21
REMARK    4  A    between atoms: C_24  and  S_27
REMARK                            x       y       z     vdW  Elec       q    Type
REMARK                         _______ _______ _______ _____ _____    ______ ____
ROOT
ATOM      1  N   UNL     1      33.484 -15.589 -23.840  0.00  0.00    -0.298 N 
ATOM      2  N   UNL     1      33.882 -17.648 -24.895  0.00  0.00    -0.234 NA
ATOM      3  N   UNL     1      34.579 -19.539 -23.573  0.00  0.00    -0.248 NA
ATOM      4  C   UNL     1      33.285 -13.291 -23.318  0.00  0.00    +0.026 C 
ATOM      5  C   UNL     1      32.514 -13.586 -24.615  0.00  0.00    -0.040 C 
ATOM      6  C   UNL     1      33.411 -14.691 -22.686  0.00  0.00    +0.094 C 
ATOM      7  C   UNL     1      33.146 -14.902 -25.086  0.00  0.00    +0.070 C 
ATOM      8  C   UNL     1      33.851 -16.916 -23.763  0.00  0.00    +0.111 C 
ATOM      9  C   UNL     1      34.164 -17.416 -22.516  0.00  0.00    +0.106 C 
ATOM     10  C   UNL     1      34.525 -18.748 -22.482  0.00  0.00    +0.063 C 
ATOM     11  C   UNL     1      34.249 -18.934 -24.730  0.00  0.00    +0.251 C 
ENDROOT
BRANCH   4  15
ATOM     12  F   UNL     1      32.464 -13.871 -20.666  0.00  0.00    -0.204 F 
ATOM     13  F   UNL     1      31.674  -8.763 -22.455  0.00  0.00    -0.202 F 
ATOM     14  F   UNL     1      30.929  -9.459 -19.917  0.00  0.00    -0.202 F 
ATOM     15  C   UNL     1      32.654 -12.266 -22.405  0.00  0.00    +0.007 C 
ATOM     16  C   UNL     1      32.274 -12.621 -21.111  0.00  0.00    +0.138 C 
ATOM     17  C   UNL     1      32.452 -10.963 -22.859  0.00  0.00    +0.030 C 
ATOM     18  C   UNL     1      31.869 -10.015 -22.019  0.00  0.00    +0.167 C 
ATOM     19  C   UNL     1      31.692 -11.673 -20.270  0.00  0.00    +0.061 C 
ATOM     20  C   UNL     1      31.489 -10.369 -20.724  0.00  0.00    +0.170 C 
ENDBRANCH   4  15
BRANCH  10  21
ATOM     21  C   UNL     1      34.877 -19.394 -21.240  0.00  0.00    +0.015 C 
ATOM     22  C   UNL     1      34.001 -20.310 -20.656  0.00  0.00    +0.020 C 
ATOM     23  C   UNL     1      36.093 -19.103 -20.623  0.00  0.00    +0.001 C 
ATOM     24  C   UNL     1      34.341 -20.933 -19.455  0.00  0.00    +0.106 C 
ATOM     25  C   UNL     1      35.558 -20.641 -18.839  0.00  0.00    +0.018 C 
ATOM     26  C   UNL     1      36.434 -19.725 -19.422  0.00  0.00    +0.001 C 
BRANCH  24  27
ATOM     27  S   UNL     1      33.245 -22.076 -18.722  0.00  0.00    +0.010 S 
ATOM     28  O   UNL     1      31.947 -21.430 -18.585  0.00  0.00    -0.169 OA
ATOM     29  O   UNL     1      33.348 -23.347 -19.426  0.00  0.00    -0.169 OA
ATOM     30  C   UNL     1      33.901 -22.334 -17.089  0.00  0.00    +0.182 C 
ENDBRANCH  24  27
ENDBRANCH  10  21
BRANCH   5  31
ATOM     31  N   UNL     1      32.645 -12.532 -25.610  0.00  0.00    +0.383 N 
ATOM     32  H   UNL     1      31.912 -12.634 -26.312  0.00  0.00    -0.089 HD
ATOM     33  H   UNL     1      33.559 -12.600 -26.059  0.00  0.00    -0.089 HD
ATOM     34  H   UNL     1      32.557 -11.623 -25.156  0.00  0.00    -0.089 HD
ENDBRANCH   5  31
TORSDOF 4
ENDMDL
MODEL 4
REMARK VINA RESULT:     -11.5      8.370     12.540
REMARK  Name = 16750059
REMARK  4 active torsions:
REMARK  status: ('A' for Active; 'I' for Inactive)
REMARK    1  A    between atoms: C_4  and  C_15
REMARK    2  A    between atoms: C_5  and  N_31
REMARK    3  A    between atoms: C_10  and  C_21
REMARK    4  A    between atoms: C_24  and  S_27
REMARK                            x       y       z     vdW  Elec       q    Type
REMARK                         _______ _______ _______ _____ _____    ______ ____
ROOT
ATOM      1  N   UNL     1      33.332 -22.231 -17.172  0.00  0.00    -0.298 N 
ATOM      2  N   UNL     1      32.298 -23.329 -15.372  0.00  0.00    -0.234 NA
ATOM      3  N   UNL     1      33.649 -24.154 -13.556  0.00  0.00    -0.248 NA
ATOM      4  C   UNL     1      33.908 -21.379 -19.301  0.00  0.00    +0.026 C 
ATOM      5  C   UNL     1      32.453 -21.002 -18.980  0.00  0.00    -0.040 C 
ATOM      6  C   UNL     1      34.480 -21.696 -17.905  0.00  0.00    +0.094 C 
ATOM      7  C   UNL     1      32.078 -22.016 -17.892  0.00  0.00    +0.070 C 
ATOM      8  C   UNL     1      33.426 -22.878 -15.958  0.00  0.00    +0.111 C 
ATOM      9  C   UNL     1      34.685 -23.024 -15.412  0.00  0.00    +0.106 C 
ATOM     10  C   UNL     1      34.735 -23.676 -14.196  0.00  0.00    +0.063 C 
ATOM     11  C   UNL     1      32.479 -23.948 -14.190  0.00  0.00    +0.251 C 
ENDROOT
BRANCH   4  15
ATOM     12  F   UNL     1      36.506 -20.537 -18.534  0.00  0.00    -0.204 F 
ATOM     13  F   UNL     1      34.351 -18.213 -22.992  0.00  0.00    -0.202 F 
ATOM     14  F   UNL     1      36.848 -17.494 -22.140  0.00  0.00    -0.202 F 
ATOM     15  C   UNL     1      34.698 -20.339 -20.060  0.00  0.00    +0.007 C 
ATOM     16  C   UNL     1      35.971 -19.971 -19.626  0.00  0.00    +0.138 C 
ATOM     17  C   UNL     1      34.151 -19.745 -21.197  0.00  0.00    +0.030 C 
ATOM     18  C   UNL     1      34.877 -18.784 -21.900  0.00  0.00    +0.167 C 
ATOM     19  C   UNL     1      36.698 -19.011 -20.329  0.00  0.00    +0.061 C 
ATOM     20  C   UNL     1      36.151 -18.417 -21.466  0.00  0.00    +0.170 C 
ENDBRANCH   4  15
BRANCH  10  21
ATOM     21  C   UNL     1      35.991 -23.895 -13.519  0.00  0.00    +0.015 C 
ATOM     22  C   UNL     1      37.133 -24.221 -14.251  0.00  0.00    +0.020 C 
ATOM     23  C   UNL     1      36.063 -23.781 -12.131  0.00  0.00    +0.001 C 
ATOM     24  C   UNL     1      38.346 -24.434 -13.596  0.00  0.00    +0.106 C 
ATOM     25  C   UNL     1      38.417 -24.320 -12.208  0.00  0.00    +0.018 C 
ATOM     26  C   UNL     1      37.275 -23.994 -11.475  0.00  0.00    +0.001 C 
BRANCH  24  27
ATOM     27  S   UNL     1      39.773 -24.846 -14.512  0.00  0.00    +0.010 S 
ATOM     28  O   UNL     1      39.354 -25.214 -15.857  0.00  0.00    -0.169 OA
ATOM     29  O   UNL     1      40.771 -23.801 -14.326  0.00  0.00    -0.169 OA
ATOM     30  C   UNL     1      40.401 -26.308 -13.717  0.00  0.00    +0.182 C 
ENDBRANCH  24  27
ENDBRANCH  10  21
BRANCH   5  31
ATOM     31  N   UNL     1      31.571 -21.089 -20.134  0.00  0.00    +0.383 N 
ATOM     32  H   UNL     1      31.747 -20.299 -20.756  0.00  0.00    -0.089 HD
ATOM     33  H   UNL     1      30.600 -21.068 -19.823  0.00  0.00    -0.089 HD
ATOM     34  H   UNL     1      31.750 -21.961 -20.633  0.00  0.00    -0.089 HD
ENDBRANCH   5  31
TORSDOF 4
ENDMDL
MODEL 5
REMARK VINA RESULT:     -10.4      6.149      9.352
REMARK  Name = 16750059
REMARK  4 active torsions:
REMARK  status: ('A' for Active; 'I' for Inactive)
REMARK    1  A    between atoms: C_4  and  C_15
REMARK    2  A    between atoms: C_5  and  N_31
REMARK    3  A    between atoms: C_10  and  C_21
REMARK    4  A    between atoms: C_24  and  S_27
REMARK                            x       y       z     vdW  Elec       q    Type
REMARK                         _______ _______ _______ _____ _____    ______ ____
ROOT
ATOM      1  N   UNL     1      33.916 -22.565 -16.469  0.00  0.00    -0.298 N 
ATOM      2  N   UNL     1      32.044 -22.098 -17.807  0.00  0.00    -0.234 NA
ATOM      3  N   UNL     1      32.311 -20.749 -19.786  0.00  0.00    -0.248 NA
ATOM      4  C   UNL     1      35.379 -23.027 -14.670  0.00  0.00    +0.026 C 
ATOM      5  C   UNL     1      34.230 -24.048 -14.666  0.00  0.00    -0.040 C 
ATOM      6  C   UNL     1      35.334 -22.490 -16.114  0.00  0.00    +0.094 C 
ATOM      7  C   UNL     1      33.151 -23.339 -15.493  0.00  0.00    +0.070 C 
ATOM      8  C   UNL     1      33.366 -21.960 -17.580  0.00  0.00    +0.111 C 
ATOM      9  C   UNL     1      34.214 -21.242 -18.398  0.00  0.00    +0.106 C 
ATOM     10  C   UNL     1      33.625 -20.653 -19.498  0.00  0.00    +0.063 C 
ATOM     11  C   UNL     1      31.589 -21.477 -18.913  0.00  0.00    +0.251 C 
ENDROOT
BRANCH   4  15
ATOM     12  F   UNL     1      36.289 -23.072 -11.984  0.00  0.00    -0.204 F 
ATOM     13  F   UNL     1      39.675 -25.060 -15.792  0.00  0.00    -0.202 F 
ATOM     14  F   UNL     1      40.426 -25.043 -13.163  0.00  0.00    -0.202 F 
ATOM     15  C   UNL     1      36.731 -23.567 -14.264  0.00  0.00    +0.007 C 
ATOM     16  C   UNL     1      37.114 -23.557 -12.923  0.00  0.00    +0.138 C 
ATOM     17  C   UNL     1      37.595 -24.074 -15.233  0.00  0.00    +0.030 C 
ATOM     18  C   UNL     1      38.844 -24.573 -14.861  0.00  0.00    +0.167 C 
ATOM     19  C   UNL     1      38.362 -24.057 -12.551  0.00  0.00    +0.061 C 
ATOM     20  C   UNL     1      39.227 -24.564 -13.520  0.00  0.00    +0.170 C 
ENDBRANCH   4  15
BRANCH  10  21
ATOM     21  C   UNL     1      34.402 -19.875 -20.433  0.00  0.00    +0.015 C 
ATOM     22  C   UNL     1      33.817 -19.416 -21.614  0.00  0.00    +0.020 C 
ATOM     23  C   UNL     1      35.736 -19.581 -20.157  0.00  0.00    +0.001 C 
ATOM     24  C   UNL     1      34.568 -18.664 -22.519  0.00  0.00    +0.106 C 
ATOM     25  C   UNL     1      35.903 -18.372 -22.241  0.00  0.00    +0.018 C 
ATOM     26  C   UNL     1      36.488 -18.831 -21.061  0.00  0.00    +0.001 C 
BRANCH  24  27
ATOM     27  S   UNL     1      33.839 -18.093 -23.997  0.00  0.00    +0.010 S 
ATOM     28  O   UNL     1      34.545 -18.707 -25.114  0.00  0.00    -0.169 OA
ATOM     29  O   UNL     1      32.393 -18.230 -23.895  0.00  0.00    -0.169 OA
ATOM     30  C   UNL     1      34.193 -16.350 -24.020  0.00  0.00    +0.182 C 
ENDBRANCH  24  27
ENDBRANCH  10  21
BRANCH   5  31
ATOM     31  N   UNL     1      33.763 -24.377 -13.327  0.00  0.00    +0.383 N 
ATOM     32  H   UNL     1      34.010 -25.342 -13.109  0.00  0.00    -0.089 HD
ATOM     33  H   UNL     1      32.750 -24.265 -13.284  0.00  0.00    -0.089 HD
ATOM     34  H   UNL     1      34.202 -23.752 -12.651  0.00  0.00    -0.089 HD
ENDBRANCH   5  31
TORSDOF 4
ENDMDL
MODEL 6
REMARK VINA RESULT:     -10.3      6.732     11.168
REMARK  Name = 16750059
REMARK  4 active torsions:
REMARK  status: ('A' for Active; 'I' for Inactive)
REMARK    1  A    between atoms: C_4  and  C_15
REMARK    2  A    between atoms: C_5  and  N_31
REMARK    3  A    between atoms: C_10  and  C_21
REMARK    4  A    between atoms: C_24  and  S_27
REMARK                            x       y       z     vdW  Elec       q    Type
REMARK                         _______ _______ _______ _____ _____    ______ ____
ROOT
ATOM      1  N   UNL     1      31.535  -7.920 -22.556  0.00  0.00    -0.298 N 
ATOM      2  N   UNL     1      30.758  -8.964 -20.602  0.00  0.00    -0.234 NA
ATOM      3  N   UNL     1      31.351 -11.259 -20.172  0.00  0.00    -0.248 NA
ATOM      4  C   UNL     1      31.780  -6.565 -24.479  0.00  0.00    +0.026 C 
ATOM      5  C   UNL     1      31.499  -5.671 -23.259  0.00  0.00    -0.040 C 
ATOM      6  C   UNL     1      32.269  -7.870 -23.821  0.00  0.00    +0.094 C 
ATOM      7  C   UNL     1      30.864  -6.653 -22.266  0.00  0.00    +0.070 C 
ATOM      8  C   UNL     1      31.465  -9.035 -21.748  0.00  0.00    +0.111 C 
ATOM      9  C   UNL     1      32.134 -10.166 -22.168  0.00  0.00    +0.106 C 
ATOM     10  C   UNL     1      32.041 -11.259 -21.330  0.00  0.00    +0.063 C 
ATOM     11  C   UNL     1      30.743 -10.096 -19.872  0.00  0.00    +0.251 C 
ENDROOT
BRANCH   4  15
ATOM     12  F   UNL     1      34.236  -5.337 -23.766  0.00  0.00    -0.204 F 
ATOM     13  F   UNL     1      33.039  -5.600 -29.097  0.00  0.00    -0.202 F 
ATOM     14  F   UNL     1      35.375  -4.442 -28.271  0.00  0.00    -0.202 F 
ATOM     15  C   UNL     1      32.745  -5.996 -25.493  0.00  0.00    +0.007 C 
ATOM     16  C   UNL     1      33.936  -5.404 -25.071  0.00  0.00    +0.138 C 
ATOM     17  C   UNL     1      32.442  -6.061 -26.852  0.00  0.00    +0.030 C 
ATOM     18  C   UNL     1      33.330  -5.537 -27.791  0.00  0.00    +0.167 C 
ATOM     19  C   UNL     1      34.825  -4.881 -26.009  0.00  0.00    +0.061 C 
ATOM     20  C   UNL     1      34.522  -4.946 -27.370  0.00  0.00    +0.170 C 
ENDBRANCH   4  15
BRANCH  10  21
ATOM     21  C   UNL     1      32.694 -12.505 -21.654  0.00  0.00    +0.015 C 
ATOM     22  C   UNL     1      32.735 -12.949 -22.976  0.00  0.00    +0.020 C 
ATOM     23  C   UNL     1      33.283 -13.266 -20.645  0.00  0.00    +0.001 C 
ATOM     24  C   UNL     1      33.365 -14.154 -23.289  0.00  0.00    +0.106 C 
ATOM     25  C   UNL     1      33.954 -14.915 -22.279  0.00  0.00    +0.018 C 
ATOM     26  C   UNL     1      33.913 -14.471 -20.957  0.00  0.00    +0.001 C 
BRANCH  24  27
ATOM     27  S   UNL     1      33.414 -14.712 -24.942  0.00  0.00    +0.010 S 
ATOM     28  O   UNL     1      34.811 -14.857 -25.326  0.00  0.00    -0.169 OA
ATOM     29  O   UNL     1      32.504 -15.840 -25.087  0.00  0.00    -0.169 OA
ATOM     30  C   UNL     1      32.726 -13.368 -25.882  0.00  0.00    +0.182 C 
ENDBRANCH  24  27
ENDBRANCH  10  21
BRANCH   5  31
ATOM     31  N   UNL     1      30.615  -4.554 -23.561  0.00  0.00    +0.383 N 
ATOM     32  H   UNL     1      30.160  -4.240 -22.704  0.00  0.00    -0.089 HD
ATOM     33  H   UNL     1      29.908  -4.853 -24.234  0.00  0.00    -0.089 HD
ATOM     34  H   UNL     1      31.160  -3.788 -23.958  0.00  0.00    -0.089 HD
ENDBRANCH   5  31
TORSDOF 4
ENDMDL
MODEL 7
REMARK VINA RESULT:     -10.2      5.108      8.047
REMARK  Name = 16750059
REMARK  4 active torsions:
REMARK  status: ('A' for Active; 'I' for Inactive)
REMARK    1  A    between atoms: C_4  and  C_15
REMARK    2  A    between atoms: C_5  and  N_31
REMARK    3  A    between atoms: C_10  and  C_21
REMARK    4  A    between atoms: C_24  and  S_27
REMARK                            x       y       z     vdW  Elec       q    Type
REMARK                         _______ _______ _______ _____ _____    ______ ____
ROOT
ATOM      1  N   UNL     1      31.807  -9.129 -22.694  0.00  0.00    -0.298 N 
ATOM      2  N   UNL     1      30.797  -7.017 -22.511  0.00  0.00    -0.234 NA
ATOM      3  N   UNL     1      31.263  -5.335 -24.172  0.00  0.00    -0.248 NA
ATOM      4  C   UNL     1      32.799 -11.231 -22.262  0.00  0.00    +0.026 C 
ATOM      5  C   UNL     1      31.442 -11.152 -21.542  0.00  0.00    -0.040 C 
ATOM      6  C   UNL     1      32.668 -10.127 -23.329  0.00  0.00    +0.094 C 
ATOM      7  C   UNL     1      31.191  -9.640 -21.470  0.00  0.00    +0.070 C 
ATOM      8  C   UNL     1      31.617  -7.852 -23.181  0.00  0.00    +0.111 C 
ATOM      9  C   UNL     1      32.285  -7.508 -24.338  0.00  0.00    +0.106 C 
ATOM     10  C   UNL     1      32.068  -6.223 -24.792  0.00  0.00    +0.063 C 
ATOM     11  C   UNL     1      30.667  -5.791 -23.054  0.00  0.00    +0.251 C 
ENDROOT
BRANCH   4  15
ATOM     12  F   UNL     1      34.113 -13.244 -20.757  0.00  0.00    -0.204 F 
ATOM     13  F   UNL     1      32.864 -14.434 -25.947  0.00  0.00    -0.202 F 
ATOM     14  F   UNL     1      34.132 -16.284 -24.382  0.00  0.00    -0.202 F 
ATOM     15  C   UNL     1      33.157 -12.585 -22.828  0.00  0.00    +0.007 C 
ATOM     16  C   UNL     1      33.804 -13.528 -22.030  0.00  0.00    +0.138 C 
ATOM     17  C   UNL     1      32.840 -12.891 -24.150  0.00  0.00    +0.030 C 
ATOM     18  C   UNL     1      33.168 -14.140 -24.676  0.00  0.00    +0.167 C 
ATOM     19  C   UNL     1      34.133 -14.779 -22.554  0.00  0.00    +0.061 C 
ATOM     20  C   UNL     1      33.815 -15.084 -23.878  0.00  0.00    +0.170 C 
ENDBRANCH   4  15
BRANCH  10  21
ATOM     21  C   UNL     1      32.708  -5.737 -25.991  0.00  0.00    +0.015 C 
ATOM     22  C   UNL     1      33.729  -4.791 -25.903  0.00  0.00    +0.020 C 
ATOM     23  C   UNL     1      32.304  -6.212 -27.238  0.00  0.00    +0.001 C 
ATOM     24  C   UNL     1      34.347  -4.320 -27.062  0.00  0.00    +0.106 C 
ATOM     25  C   UNL     1      33.942  -4.796 -28.309  0.00  0.00    +0.018 C 
ATOM     26  C   UNL     1      32.921  -5.742 -28.397  0.00  0.00    +0.001 C 
BRANCH  24  27
ATOM     27  S   UNL     1      35.622  -3.134 -26.953  0.00  0.00    +0.010 S 
ATOM     28  O   UNL     1      35.046  -1.899 -26.438  0.00  0.00    -0.169 OA
ATOM     29  O   UNL     1      36.767  -3.732 -26.280  0.00  0.00    -0.169 OA
ATOM     30  C   UNL     1      36.106  -2.848 -28.641  0.00  0.00    +0.182 C 
ENDBRANCH  24  27
ENDBRANCH  10  21
BRANCH   5  31
ATOM     31  N   UNL     1      31.459 -11.765 -20.223  0.00  0.00    +0.383 N 
ATOM     32  H   UNL     1      30.985 -12.668 -20.262  0.00  0.00    -0.089 HD
ATOM     33  H   UNL     1      30.978 -11.157 -19.560  0.00  0.00    -0.089 HD
ATOM     34  H   UNL     1      32.424 -11.900 -19.922  0.00  0.00    -0.089 HD
ENDBRANCH   5  31
TORSDOF 4
ENDMDL
MODEL 8
REMARK VINA RESULT:     -10.1      8.032     12.195
REMARK  Name = 16750059
REMARK  4 active torsions:
REMARK  status: ('A' for Active; 'I' for Inactive)
REMARK    1  A    between atoms: C_4  and  C_15
REMARK    2  A    between atoms: C_5  and  N_31
REMARK    3  A    between atoms: C_10  and  C_21
REMARK    4  A    between atoms: C_24  and  S_27
REMARK                            x       y       z     vdW  Elec       q    Type
REMARK                         _______ _______ _______ _____ _____    ______ ____
ROOT
ATOM      1  N   UNL     1      32.729 -21.835 -17.929  0.00  0.00    -0.298 N 
ATOM      2  N   UNL     1      31.436 -22.876 -16.268  0.00  0.00    -0.234 NA
ATOM      3  N   UNL     1      32.529 -24.190 -14.569  0.00  0.00    -0.248 NA
ATOM      4  C   UNL     1      33.528 -20.891 -19.945  0.00  0.00    +0.026 C 
ATOM      5  C   UNL     1      32.186 -20.237 -19.574  0.00  0.00    -0.040 C 
ATOM      6  C   UNL     1      33.983 -21.489 -18.599  0.00  0.00    +0.094 C 
ATOM      7  C   UNL     1      31.570 -21.262 -18.613  0.00  0.00    +0.070 C 
ATOM      8  C   UNL     1      32.649 -22.625 -16.801  0.00  0.00    +0.111 C 
ATOM      9  C   UNL     1      33.831 -23.112 -16.282  0.00  0.00    +0.106 C 
ATOM     10  C   UNL     1      33.709 -23.897 -15.154  0.00  0.00    +0.063 C 
ATOM     11  C   UNL     1      31.448 -23.654 -15.169  0.00  0.00    +0.251 C 
ENDROOT
BRANCH   4  15
ATOM     12  F   UNL     1      36.156 -20.556 -18.934  0.00  0.00    -0.204 F 
ATOM     13  F   UNL     1      34.820 -17.686 -23.394  0.00  0.00    -0.202 F 
ATOM     14  F   UNL     1      37.322 -17.458 -22.315  0.00  0.00    -0.202 F 
ATOM     15  C   UNL     1      34.546 -19.972 -20.578  0.00  0.00    +0.007 C 
ATOM     16  C   UNL     1      35.822 -19.855 -20.027  0.00  0.00    +0.138 C 
ATOM     17  C   UNL     1      34.208 -19.239 -21.715  0.00  0.00    +0.030 C 
ATOM     18  C   UNL     1      35.145 -18.390 -22.302  0.00  0.00    +0.167 C 
ATOM     19  C   UNL     1      36.760 -19.007 -20.614  0.00  0.00    +0.061 C 
ATOM     20  C   UNL     1      36.422 -18.274 -21.752  0.00  0.00    +0.170 C 
ENDBRANCH   4  15
BRANCH  10  21
ATOM     21  C   UNL     1      34.869 -24.469 -14.513  0.00  0.00    +0.015 C 
ATOM     22  C   UNL     1      35.430 -23.844 -13.399  0.00  0.00    +0.020 C 
ATOM     23  C   UNL     1      35.428 -25.646 -15.006  0.00  0.00    +0.001 C 
ATOM     24  C   UNL     1      36.552 -24.396 -12.780  0.00  0.00    +0.106 C 
ATOM     25  C   UNL     1      37.111 -25.574 -13.275  0.00  0.00    +0.018 C 
ATOM     26  C   UNL     1      36.550 -26.199 -14.389  0.00  0.00    +0.001 C 
BRANCH  24  27
ATOM     27  S   UNL     1      37.257 -23.613 -11.389  0.00  0.00    +0.010 S 
ATOM     28  O   UNL     1      38.101 -24.584 -10.706  0.00  0.00    -0.169 OA
ATOM     29  O   UNL     1      37.818 -22.333 -11.801  0.00  0.00    -0.169 OA
ATOM     30  C   UNL     1      35.871 -23.255 -10.333  0.00  0.00    +0.182 C 
ENDBRANCH  24  27
ENDBRANCH  10  21
BRANCH   5  31
ATOM     31  N   UNL     1      31.333 -19.989 -20.726  0.00  0.00    +0.383 N 
ATOM     32  H   UNL     1      31.256 -18.984 -20.881  0.00  0.00    -0.089 HD
ATOM     33  H   UNL     1      30.407 -20.380 -20.554  0.00  0.00    -0.089 HD
ATOM     34  H   UNL     1      31.740 -20.430 -21.551  0.00  0.00    -0.089 HD
ENDBRANCH   5  31
TORSDOF 4
ENDMDL
MODEL 9
REMARK VINA RESULT:      -9.8      4.387      7.111
REMARK  Name = 16750059
REMARK  4 active torsions:
REMARK  status: ('A' for Active; 'I' for Inactive)
REMARK    1  A    between atoms: C_4  and  C_15
REMARK    2  A    between atoms: C_5  and  N_31
REMARK    3  A    between atoms: C_10  and  C_21
REMARK    4  A    between atoms: C_24  and  S_27
REMARK                            x       y       z     vdW  Elec       q    Type
REMARK                         _______ _______ _______ _____ _____    ______ ____
ROOT
ATOM      1  N   UNL     1      32.286 -10.249 -21.749  0.00  0.00    -0.298 N 
ATOM      2  N   UNL     1      31.399  -8.204 -21.012  0.00  0.00    -0.234 NA
ATOM      3  N   UNL     1      31.780  -6.212 -22.313  0.00  0.00    -0.248 NA
ATOM      4  C   UNL     1      33.216 -12.419 -21.883  0.00  0.00    +0.026 C 
ATOM      5  C   UNL     1      31.940 -12.465 -21.026  0.00  0.00    -0.040 C 
ATOM      6  C   UNL     1      33.034 -11.106 -22.670  0.00  0.00    +0.094 C 
ATOM      7  C   UNL     1      31.769 -11.000 -20.605  0.00  0.00    +0.070 C 
ATOM      8  C   UNL     1      32.110  -8.893 -21.927  0.00  0.00    +0.111 C 
ATOM      9  C   UNL     1      32.678  -8.321 -23.047  0.00  0.00    +0.106 C 
ATOM     10  C   UNL     1      32.478  -6.963 -23.189  0.00  0.00    +0.063 C 
ATOM     11  C   UNL     1      31.274  -6.887 -21.263  0.00  0.00    +0.251 C 
ENDROOT
BRANCH   4  15
ATOM     12  F   UNL     1      34.506 -14.774 -20.968  0.00  0.00    -0.204 F 
ATOM     13  F   UNL     1      32.842 -14.712 -26.179  0.00  0.00    -0.202 F 
ATOM     14  F   UNL     1      34.100 -16.919 -25.166  0.00  0.00    -0.202 F 
ATOM     15  C   UNL     1      33.454 -13.626 -22.761  0.00  0.00    +0.007 C 
ATOM     16  C   UNL     1      34.096 -14.751 -22.245  0.00  0.00    +0.138 C 
ATOM     17  C   UNL     1      33.031 -13.612 -24.089  0.00  0.00    +0.030 C 
ATOM     18  C   UNL     1      33.248 -14.725 -24.902  0.00  0.00    +0.167 C 
ATOM     19  C   UNL     1      34.313 -15.864 -23.057  0.00  0.00    +0.061 C 
ATOM     20  C   UNL     1      33.890 -15.851 -24.386  0.00  0.00    +0.170 C 
ENDBRANCH   4  15
BRANCH  10  21
ATOM     21  C   UNL     1      33.021  -6.243 -24.317  0.00  0.00    +0.015 C 
ATOM     22  C   UNL     1      32.426  -5.053 -24.737  0.00  0.00    +0.020 C 
ATOM     23  C   UNL     1      34.140  -6.737 -24.986  0.00  0.00    +0.001 C 
ATOM     24  C   UNL     1      32.950  -4.358 -25.827  0.00  0.00    +0.106 C 
ATOM     25  C   UNL     1      34.069  -4.853 -26.496  0.00  0.00    +0.018 C 
ATOM     26  C   UNL     1      34.664  -6.043 -26.076  0.00  0.00    +0.001 C 
BRANCH  24  27
ATOM     27  S   UNL     1      32.204  -2.871 -26.356  0.00  0.00    +0.010 S 
ATOM     28  O   UNL     1      33.146  -1.786 -26.119  0.00  0.00    -0.169 OA
ATOM     29  O   UNL     1      31.650  -3.069 -27.688  0.00  0.00    -0.169 OA
ATOM     30  C   UNL     1      30.827  -2.650 -25.251  0.00  0.00    +0.182 C 
ENDBRANCH  24  27
ENDBRANCH  10  21
BRANCH   5  31
ATOM     31  N   UNL     1      32.056 -13.352 -19.878  0.00  0.00    +0.383 N 
ATOM     32  H   UNL     1      32.919 -13.891 -19.950  0.00  0.00    -0.089 HD
ATOM     33  H   UNL     1      31.258 -13.987 -19.858  0.00  0.00    -0.089 HD
ATOM     34  H   UNL     1      32.071 -12.799 -19.021  0.00  0.00    -0.089 HD
ENDBRANCH   5  31
TORSDOF 4
ENDMDL
