MODEL 1
REMARK VINA RESULT:      -7.9      0.000      0.000
REMARK  Name = 54576073
REMARK  2 active torsions:
REMARK  status: ('A' for Active; 'I' for Inactive)
REMARK    1  A    between atoms: C_13  and  C_20
REMARK    2  A    between atoms: C_15  and  C_25
REMARK                            x       y       z     vdW  Elec       q    Type
REMARK                         _______ _______ _______ _____ _____    ______ ____
ROOT
ATOM      1  N   UNL     1      32.331  -9.131 -23.251  0.00  0.00    -0.288 N 
ATOM      2  N   UNL     1      31.874  -6.376 -23.544  0.00  0.00    -0.250 N 
ATOM      3  N   UNL     1      33.250 -11.058 -24.246  0.00  0.00    -0.133 NA
ATOM      4  N   UNL     1      31.528  -5.067 -25.439  0.00  0.00    -0.181 NA
ATOM      5  N   UNL     1      33.590  -4.945 -24.198  0.00  0.00    -0.203 NA
ATOM      6  N   UNL     1      33.568 -12.379 -24.206  0.00  0.00    -0.147 NA
ATOM      7  C   UNL     1      31.409  -8.656 -24.296  0.00  0.00    +0.114 C 
ATOM      8  C   UNL     1      33.343  -8.168 -22.781  0.00  0.00    +0.114 C 
ATOM      9  C   UNL     1      32.690  -6.831 -22.416  0.00  0.00    +0.123 C 
ATOM     10  C   UNL     1      30.803  -7.309 -23.895  0.00  0.00    +0.123 C 
ATOM     11  C   UNL     1      32.645 -10.494 -23.180  0.00  0.00    +0.153 C 
ATOM     12  C   UNL     1      32.352  -5.420 -24.434  0.00  0.00    +0.090 C 
ATOM     13  C   UNL     1      32.330 -11.199 -22.036  0.00  0.00    +0.035 C 
ATOM     14  C   UNL     1      32.654 -12.544 -21.995  0.00  0.00    +0.024 C 
ATOM     15  C   UNL     1      33.272 -13.094 -23.100  0.00  0.00    +0.103 C 
ATOM     16  C   UNL     1      32.023  -4.138 -26.282  0.00  0.00    +0.108 C 
ATOM     17  C   UNL     1      34.022  -4.019 -25.079  0.00  0.00    +0.165 C 
ATOM     18  C   UNL     1      33.275  -3.573 -26.150  0.00  0.00    +0.022 C 
ENDROOT
BRANCH  13  20
ATOM     19  N   UNL     1      30.428  -9.405 -18.694  0.00  0.00    -0.242 NA
ATOM     20  C   UNL     1      31.681 -10.587 -20.894  0.00  0.00    +0.006 C 
ATOM     21  C   UNL     1      30.416 -10.025 -21.030  0.00  0.00    +0.021 C 
ATOM     22  C   UNL     1      32.321 -10.558 -19.660  0.00  0.00    +0.021 C 
ATOM     23  C   UNL     1      29.838  -9.452 -19.910  0.00  0.00    +0.099 C 
ATOM     24  C   UNL     1      31.657  -9.960 -18.600  0.00  0.00    +0.099 C 
ENDBRANCH  13  20
BRANCH  15  25
ATOM     25  C   UNL     1      33.644 -14.486 -23.145  0.00  0.00    +0.019 C 
ATOM     26  C   UNL     1      34.220 -15.091 -22.027  0.00  0.00    +0.002 C 
ATOM     27  C   UNL     1      33.427 -15.230 -24.305  0.00  0.00    +0.002 C 
ATOM     28  C   UNL     1      34.581 -16.438 -22.071  0.00  0.00    +0.000 C 
ATOM     29  C   UNL     1      33.787 -16.576 -24.349  0.00  0.00    +0.000 C 
ATOM     30  C   UNL     1      34.364 -17.180 -23.231  0.00  0.00    +0.000 C 
ENDBRANCH  15  25
TORSDOF 2
ENDMDL
MODEL 2
REMARK VINA RESULT:      -7.6      3.468      8.988
REMARK  Name = 54576073
REMARK  2 active torsions:
REMARK  status: ('A' for Active; 'I' for Inactive)
REMARK    1  A    between atoms: C_13  and  C_20
REMARK    2  A    between atoms: C_15  and  C_25
REMARK                            x       y       z     vdW  Elec       q    Type
REMARK                         _______ _______ _______ _____ _____    ______ ____
ROOT
ATOM      1  N   UNL     1      32.674  -5.829 -23.783  0.00  0.00    -0.288 N 
ATOM      2  N   UNL     1      31.183  -7.138 -21.797  0.00  0.00    -0.250 N 
ATOM      3  N   UNL     1      34.497  -6.001 -25.264  0.00  0.00    -0.133 NA
ATOM      4  N   UNL     1      31.795  -8.734 -20.215  0.00  0.00    -0.181 NA
ATOM      5  N   UNL     1      30.430  -9.318 -22.113  0.00  0.00    -0.203 NA
ATOM      6  N   UNL     1      35.269  -5.494 -26.262  0.00  0.00    -0.147 NA
ATOM      7  C   UNL     1      33.303  -6.133 -22.486  0.00  0.00    +0.114 C 
ATOM      8  C   UNL     1      31.521  -6.662 -24.165  0.00  0.00    +0.114 C 
ATOM      9  C   UNL     1      30.499  -6.730 -23.025  0.00  0.00    +0.123 C 
ATOM     10  C   UNL     1      32.240  -6.213 -21.389  0.00  0.00    +0.123 C 
ATOM     11  C   UNL     1      33.451  -5.279 -24.810  0.00  0.00    +0.153 C 
ATOM     12  C   UNL     1      31.134  -8.456 -21.355  0.00  0.00    +0.090 C 
ATOM     13  C   UNL     1      33.120  -4.038 -25.315  0.00  0.00    +0.035 C 
ATOM     14  C   UNL     1      33.906  -3.522 -26.330  0.00  0.00    +0.024 C 
ATOM     15  C   UNL     1      34.970  -4.282 -26.775  0.00  0.00    +0.103 C 
ATOM     16  C   UNL     1      31.725 -10.020 -19.815  0.00  0.00    +0.108 C 
ATOM     17  C   UNL     1      30.402 -10.587 -21.655  0.00  0.00    +0.165 C 
ATOM     18  C   UNL     1      31.037 -11.000 -20.502  0.00  0.00    +0.022 C 
ENDROOT
BRANCH  13  20
ATOM     19  N   UNL     1      29.824  -1.787 -23.873  0.00  0.00    -0.242 NA
ATOM     20  C   UNL     1      31.995  -3.269 -24.823  0.00  0.00    +0.006 C 
ATOM     21  C   UNL     1      31.841  -3.055 -23.458  0.00  0.00    +0.021 C 
ATOM     22  C   UNL     1      31.066  -2.744 -25.714  0.00  0.00    +0.021 C 
ATOM     23  C   UNL     1      30.748  -2.314 -23.037  0.00  0.00    +0.099 C 
ATOM     24  C   UNL     1      30.007  -2.016 -25.192  0.00  0.00    +0.099 C 
ENDBRANCH  13  20
BRANCH  15  25
ATOM     25  C   UNL     1      35.841  -3.822 -27.827  0.00  0.00    +0.019 C 
ATOM     26  C   UNL     1      35.982  -2.455 -28.069  0.00  0.00    +0.002 C 
ATOM     27  C   UNL     1      36.544  -4.744 -28.604  0.00  0.00    +0.002 C 
ATOM     28  C   UNL     1      36.824  -2.010 -29.089  0.00  0.00    +0.000 C 
ATOM     29  C   UNL     1      37.385  -4.299 -29.623  0.00  0.00    +0.000 C 
ATOM     30  C   UNL     1      37.526  -2.932 -29.865  0.00  0.00    +0.000 C 
ENDBRANCH  15  25
TORSDOF 2
ENDMDL
MODEL 3
REMARK VINA RESULT:      -7.5      3.762      6.609
REMARK  Name = 54576073
REMARK  2 active torsions:
REMARK  status: ('A' for Active; 'I' for Inactive)
REMARK    1  A    between atoms: C_13  and  C_20
REMARK    2  A    between atoms: C_15  and  C_25
REMARK                            x       y       z     vdW  Elec       q    Type
REMARK                         _______ _______ _______ _____ _____    ______ ____
ROOT
ATOM      1  N   UNL     1      33.512  -5.151 -25.366  0.00  0.00    -0.288 N 
ATOM      2  N   UNL     1      34.654  -3.693 -27.477  0.00  0.00    -0.250 N 
ATOM      3  N   UNL     1      33.668  -7.099 -24.052  0.00  0.00    -0.133 NA
ATOM      4  N   UNL     1      35.825  -4.384 -29.367  0.00  0.00    -0.181 NA
ATOM      5  N   UNL     1      36.944  -3.280 -27.540  0.00  0.00    -0.203 NA
ATOM      6  N   UNL     1      33.238  -7.875 -23.022  0.00  0.00    -0.147 NA
ATOM      7  C   UNL     1      33.478  -5.703 -26.731  0.00  0.00    +0.114 C 
ATOM      8  C   UNL     1      34.567  -4.162 -25.084  0.00  0.00    +0.114 C 
ATOM      9  C   UNL     1      34.582  -3.066 -26.155  0.00  0.00    +0.123 C 
ATOM     10  C   UNL     1      33.519  -4.572 -27.761  0.00  0.00    +0.123 C 
ATOM     11  C   UNL     1      33.045  -5.928 -24.299  0.00  0.00    +0.153 C 
ATOM     12  C   UNL     1      35.862  -3.790 -28.159  0.00  0.00    +0.090 C 
ATOM     13  C   UNL     1      31.980  -5.472 -23.549  0.00  0.00    +0.035 C 
ATOM     14  C   UNL     1      31.542  -6.262 -22.500  0.00  0.00    +0.024 C 
ATOM     15  C   UNL     1      32.199  -7.454 -22.270  0.00  0.00    +0.103 C 
ATOM     16  C   UNL     1      37.014  -4.461 -30.000  0.00  0.00    +0.108 C 
ATOM     17  C   UNL     1      38.099  -3.391 -28.229  0.00  0.00    +0.165 C 
ATOM     18  C   UNL     1      38.195  -3.976 -29.475  0.00  0.00    +0.022 C 
ENDROOT
BRANCH  13  20
ATOM     19  N   UNL     1      30.032  -1.786 -24.338  0.00  0.00    -0.242 NA
ATOM     20  C   UNL     1      31.316  -4.213 -23.819  0.00  0.00    +0.006 C 
ATOM     21  C   UNL     1      31.129  -3.290 -22.795  0.00  0.00    +0.021 C 
ATOM     22  C   UNL     1      30.862  -3.925 -25.101  0.00  0.00    +0.021 C 
ATOM     23  C   UNL     1      30.487  -2.102 -23.104  0.00  0.00    +0.099 C 
ATOM     24  C   UNL     1      30.232  -2.707 -25.306  0.00  0.00    +0.099 C 
ENDBRANCH  13  20
BRANCH  15  25
ATOM     25  C   UNL     1      31.809  -8.339 -21.201  0.00  0.00    +0.019 C 
ATOM     26  C   UNL     1      31.955  -7.936 -19.874  0.00  0.00    +0.002 C 
ATOM     27  C   UNL     1      31.286  -9.600 -21.493  0.00  0.00    +0.002 C 
ATOM     28  C   UNL     1      31.579  -8.793 -18.839  0.00  0.00    +0.000 C 
ATOM     29  C   UNL     1      30.911 -10.456 -20.459  0.00  0.00    +0.000 C 
ATOM     30  C   UNL     1      31.056 -10.052 -19.132  0.00  0.00    +0.000 C 
ENDBRANCH  15  25
TORSDOF 2
ENDMDL
MODEL 4
REMARK VINA RESULT:      -7.2      2.163      3.837
REMARK  Name = 54576073
REMARK  2 active torsions:
REMARK  status: ('A' for Active; 'I' for Inactive)
REMARK    1  A    between atoms: C_13  and  C_20
REMARK    2  A    between atoms: C_15  and  C_25
REMARK                            x       y       z     vdW  Elec       q    Type
REMARK                         _______ _______ _______ _____ _____    ______ ____
ROOT
ATOM      1  N   UNL     1      32.669  -6.482 -24.321  0.00  0.00    -0.288 N 
ATOM      2  N   UNL     1      32.966  -4.081 -25.746  0.00  0.00    -0.250 N 
ATOM      3  N   UNL     1      33.207  -8.775 -24.257  0.00  0.00    -0.133 NA
ATOM      4  N   UNL     1      33.235  -3.665 -28.021  0.00  0.00    -0.181 NA
ATOM      5  N   UNL     1      35.062  -3.378 -26.476  0.00  0.00    -0.203 NA
ATOM      6  N   UNL     1      33.175  -9.986 -23.641  0.00  0.00    -0.147 NA
ATOM      7  C   UNL     1      32.055  -6.348 -25.653  0.00  0.00    +0.114 C 
ATOM      8  C   UNL     1      33.812  -5.599 -24.033  0.00  0.00    +0.114 C 
ATOM      9  C   UNL     1      33.471  -4.144 -24.373  0.00  0.00    +0.123 C 
ATOM     10  C   UNL     1      31.757  -4.878 -25.953  0.00  0.00    +0.123 C 
ATOM     11  C   UNL     1      32.617  -7.717 -23.662  0.00  0.00    +0.153 C 
ATOM     12  C   UNL     1      33.791  -3.691 -26.795  0.00  0.00    +0.090 C 
ATOM     13  C   UNL     1      31.975  -7.804 -22.444  0.00  0.00    +0.035 C 
ATOM     14  C   UNL     1      31.941  -9.037 -21.816  0.00  0.00    +0.024 C 
ATOM     15  C   UNL     1      32.553 -10.101 -22.448  0.00  0.00    +0.103 C 
ATOM     16  C   UNL     1      34.063  -3.282 -29.014  0.00  0.00    +0.108 C 
ATOM     17  C   UNL     1      35.834  -3.004 -27.517  0.00  0.00    +0.165 C 
ATOM     18  C   UNL     1      35.385  -2.936 -28.820  0.00  0.00    +0.022 C 
ENDROOT
BRANCH  13  20
ATOM     19  N   UNL     1      30.126  -4.467 -20.585  0.00  0.00    -0.242 NA
ATOM     20  C   UNL     1      31.344  -6.664 -21.810  0.00  0.00    +0.006 C 
ATOM     21  C   UNL     1      31.800  -6.211 -20.577  0.00  0.00    +0.021 C 
ATOM     22  C   UNL     1      30.279  -6.020 -22.431  0.00  0.00    +0.021 C 
ATOM     23  C   UNL     1      31.163  -5.119 -20.011  0.00  0.00    +0.099 C 
ATOM     24  C   UNL     1      29.710  -4.936 -21.782  0.00  0.00    +0.099 C 
ENDBRANCH  13  20
BRANCH  15  25
ATOM     25  C   UNL     1      32.565 -11.420 -21.868  0.00  0.00    +0.019 C 
ATOM     26  C   UNL     1      33.470 -12.377 -22.329  0.00  0.00    +0.002 C 
ATOM     27  C   UNL     1      31.673 -11.742 -20.845  0.00  0.00    +0.002 C 
ATOM     28  C   UNL     1      33.482 -13.654 -21.769  0.00  0.00    +0.000 C 
ATOM     29  C   UNL     1      31.684 -13.019 -20.285  0.00  0.00    +0.000 C 
ATOM     30  C   UNL     1      32.589 -13.975 -20.746  0.00  0.00    +0.000 C 
ENDBRANCH  15  25
TORSDOF 2
ENDMDL
MODEL 5
REMARK VINA RESULT:      -5.9     10.586     15.775
REMARK  Name = 54576073
REMARK  2 active torsions:
REMARK  status: ('A' for Active; 'I' for Inactive)
REMARK    1  A    between atoms: C_13  and  C_20
REMARK    2  A    between atoms: C_15  and  C_25
REMARK                            x       y       z     vdW  Elec       q    Type
REMARK                         _______ _______ _______ _____ _____    ______ ____
ROOT
ATOM      1  N   UNL     1      34.769 -22.546 -16.028  0.00  0.00    -0.288 N 
ATOM      2  N   UNL     1      35.141 -24.040 -13.680  0.00  0.00    -0.250 N 
ATOM      3  N   UNL     1      35.840 -21.359 -17.757  0.00  0.00    -0.133 NA
ATOM      4  N   UNL     1      36.789 -23.941 -12.038  0.00  0.00    -0.181 NA
ATOM      5  N   UNL     1      36.693 -25.773 -13.602  0.00  0.00    -0.203 NA
ATOM      6  N   UNL     1      35.797 -20.659 -18.922  0.00  0.00    -0.147 NA
ATOM      7  C   UNL     1      35.303 -21.886 -14.825  0.00  0.00    +0.114 C 
ATOM      8  C   UNL     1      34.952 -24.006 -16.112  0.00  0.00    +0.114 C 
ATOM      9  C   UNL     1      34.486 -24.686 -14.820  0.00  0.00    +0.123 C 
ATOM     10  C   UNL     1      34.829 -22.616 -13.567  0.00  0.00    +0.123 C 
ATOM     11  C   UNL     1      34.691 -21.829 -17.229  0.00  0.00    +0.153 C 
ATOM     12  C   UNL     1      36.258 -24.610 -13.080  0.00  0.00    +0.090 C 
ATOM     13  C   UNL     1      33.459 -21.634 -17.819  0.00  0.00    +0.035 C 
ATOM     14  C   UNL     1      33.414 -20.922 -19.005  0.00  0.00    +0.024 C 
ATOM     15  C   UNL     1      34.605 -20.453 -19.522  0.00  0.00    +0.103 C 
ATOM     16  C   UNL     1      37.871 -24.522 -11.480  0.00  0.00    +0.108 C 
ATOM     17  C   UNL     1      37.779 -26.298 -12.995  0.00  0.00    +0.165 C 
ATOM     18  C   UNL     1      38.415 -25.712 -11.920  0.00  0.00    +0.022 C 
ENDROOT
BRANCH  13  20
ATOM     19  N   UNL     1      29.856 -23.120 -16.141  0.00  0.00    -0.242 NA
ATOM     20  C   UNL     1      32.229 -22.142 -17.246  0.00  0.00    +0.006 C 
ATOM     21  C   UNL     1      31.007 -21.598 -17.625  0.00  0.00    +0.021 C 
ATOM     22  C   UNL     1      32.267 -23.174 -16.315  0.00  0.00    +0.021 C 
ATOM     23  C   UNL     1      29.859 -22.118 -17.049  0.00  0.00    +0.099 C 
ATOM     24  C   UNL     1      31.062 -23.623 -15.796  0.00  0.00    +0.099 C 
ENDBRANCH  13  20
BRANCH  15  25
ATOM     25  C   UNL     1      34.653 -19.702 -20.751  0.00  0.00    +0.019 C 
ATOM     26  C   UNL     1      35.795 -18.972 -21.079  0.00  0.00    +0.002 C 
ATOM     27  C   UNL     1      33.556 -19.704 -21.614  0.00  0.00    +0.002 C 
ATOM     28  C   UNL     1      35.841 -18.244 -22.268  0.00  0.00    +0.000 C 
ATOM     29  C   UNL     1      33.602 -18.976 -22.802  0.00  0.00    +0.000 C 
ATOM     30  C   UNL     1      34.744 -18.247 -23.130  0.00  0.00    +0.000 C 
ENDBRANCH  15  25
TORSDOF 2
ENDMDL
