MODEL 1
REMARK VINA RESULT:     -11.1      0.000      0.000
REMARK  Name = 91273
REMARK  5 active torsions:
REMARK  status: ('A' for Active; 'I' for Inactive)
REMARK    1  A    between atoms: C_1  and  C_2
REMARK    2  A    between atoms: C_1  and  C_16
REMARK    3  A    between atoms: C_2  and  C_3
REMARK    4  A    between atoms: C_3  and  N_6
REMARK    5  A    between atoms: C_16  and  N_17
REMARK                            x       y       z     vdW  Elec       q    Type
REMARK                         _______ _______ _______ _____ _____    ______ ____
ROOT
ATOM      1  C   UNL     1      35.689 -18.707 -21.147  0.00  0.00    -0.021 C 
ENDROOT
BRANCH   1   2
ATOM      2  C   UNL     1      35.640 -17.859 -22.422  0.00  0.00    +0.020 C 
BRANCH   2   3
ATOM      3  C   UNL     1      34.236 -17.357 -22.739  0.00  0.00    +0.101 C 
BRANCH   3   6
ATOM      4  O   UNL     1      34.216 -15.506 -20.462  0.00  0.00    -0.274 OA
ATOM      5  O   UNL     1      33.952 -15.617 -25.080  0.00  0.00    -0.274 OA
ATOM      6  N   UNL     1      34.159 -15.909 -22.768  0.00  0.00    -0.230 N 
ATOM      7  C   UNL     1      32.842 -12.965 -21.645  0.00  0.00    +0.009 C 
ATOM      8  C   UNL     1      32.714 -13.017 -23.872  0.00  0.00    +0.009 C 
ATOM      9  C   UNL     1      34.142 -13.687 -22.050  0.00  0.00    +0.086 C 
ATOM     10  C   UNL     1      34.053 -13.722 -23.584  0.00  0.00    +0.086 C 
ATOM     11  C   UNL     1      31.838 -13.451 -22.692  0.00  0.00    +0.001 C 
ATOM     12  C   UNL     1      32.979 -11.480 -22.033  0.00  0.00    +0.001 C 
ATOM     13  C   UNL     1      32.889 -11.517 -23.570  0.00  0.00    +0.001 C 
ATOM     14  C   UNL     1      34.185 -15.134 -21.627  0.00  0.00    +0.231 C 
ATOM     15  C   UNL     1      34.052 -15.187 -23.940  0.00  0.00    +0.231 C 
ENDBRANCH   3   6
ENDBRANCH   2   3
ENDBRANCH   1   2
BRANCH   1  16
ATOM     16  C   UNL     1      34.457 -19.605 -21.036  0.00  0.00    -0.077 C 
BRANCH  16  17
ATOM     17  N   UNL     1      34.691 -20.670 -20.061  0.00  0.00    +0.389 N 
ATOM     18  N   UNL     1      34.826 -21.837 -17.457  0.00  0.00    -0.257 N 
ATOM     19  N   UNL     1      33.980 -23.406 -15.908  0.00  0.00    -0.181 NA
ATOM     20  N   UNL     1      36.029 -22.218 -15.461  0.00  0.00    -0.203 NA
ATOM     21  C   UNL     1      35.761 -20.288 -19.130  0.00  0.00    -0.055 C 
ATOM     22  C   UNL     1      33.463 -20.964 -19.314  0.00  0.00    -0.055 C 
ATOM     23  C   UNL     1      36.056 -21.417 -18.140  0.00  0.00    +0.079 C 
ATOM     24  C   UNL     1      33.680 -22.115 -18.329  0.00  0.00    +0.079 C 
ATOM     25  C   UNL     1      34.950 -22.508 -16.235  0.00  0.00    +0.090 C 
ATOM     26  C   UNL     1      34.131 -24.036 -14.725  0.00  0.00    +0.108 C 
ATOM     27  C   UNL     1      36.117 -22.885 -14.291  0.00  0.00    +0.165 C 
ATOM     28  C   UNL     1      35.188 -23.813 -13.867  0.00  0.00    +0.022 C 
ATOM     29  H   UNL     1      34.978 -21.507 -20.567  0.00  0.00    -0.080 HD
ENDBRANCH  16  17
ENDBRANCH   1  16
TORSDOF 5
ENDMDL
MODEL 2
REMARK VINA RESULT:     -10.9      2.696     10.484
REMARK  Name = 91273
REMARK  5 active torsions:
REMARK  status: ('A' for Active; 'I' for Inactive)
REMARK    1  A    between atoms: C_1  and  C_2
REMARK    2  A    between atoms: C_1  and  C_16
REMARK    3  A    between atoms: C_2  and  C_3
REMARK    4  A    between atoms: C_3  and  N_6
REMARK    5  A    between atoms: C_16  and  N_17
REMARK                            x       y       z     vdW  Elec       q    Type
REMARK                         _______ _______ _______ _____ _____    ______ ____
ROOT
ATOM      1  C   UNL     1      35.022 -19.874 -20.264  0.00  0.00    -0.021 C 
ENDROOT
BRANCH   1   2
ATOM      2  C   UNL     1      33.983 -20.685 -19.482  0.00  0.00    +0.020 C 
BRANCH   2   3
ATOM      3  C   UNL     1      34.527 -22.027 -19.004  0.00  0.00    +0.101 C 
BRANCH   3   6
ATOM      4  O   UNL     1      36.720 -21.301 -17.193  0.00  0.00    -0.274 OA
ATOM      5  O   UNL     1      32.459 -23.107 -17.229  0.00  0.00    -0.274 OA
ATOM      6  N   UNL     1      34.559 -22.128 -17.557  0.00  0.00    -0.230 N 
ATOM      7  C   UNL     1      36.128 -23.025 -14.660  0.00  0.00    +0.009 C 
ATOM      8  C   UNL     1      34.074 -23.898 -14.675  0.00  0.00    +0.009 C 
ATOM      9  C   UNL     1      35.292 -21.930 -15.348  0.00  0.00    +0.086 C 
ATOM     10  C   UNL     1      33.877 -22.531 -15.359  0.00  0.00    +0.086 C 
ATOM     11  C   UNL     1      35.469 -24.318 -15.147  0.00  0.00    +0.001 C 
ATOM     12  C   UNL     1      35.750 -23.047 -13.166  0.00  0.00    +0.001 C 
ATOM     13  C   UNL     1      34.333 -23.650 -13.178  0.00  0.00    +0.001 C 
ATOM     14  C   UNL     1      35.642 -21.728 -16.801  0.00  0.00    +0.231 C 
ATOM     15  C   UNL     1      33.509 -22.633 -16.817  0.00  0.00    +0.231 C 
ENDBRANCH   3   6
ENDBRANCH   2   3
ENDBRANCH   1   2
BRANCH   1  16
ATOM     16  C   UNL     1      34.630 -19.753 -21.736  0.00  0.00    -0.077 C 
BRANCH  16  17
ATOM     17  N   UNL     1      34.785 -18.371 -22.190  0.00  0.00    +0.389 N 
ATOM     18  N   UNL     1      33.913 -15.739 -22.879  0.00  0.00    -0.257 N 
ATOM     19  N   UNL     1      33.924 -13.426 -22.404  0.00  0.00    -0.181 NA
ATOM     20  N   UNL     1      33.001 -14.252 -24.470  0.00  0.00    -0.203 NA
ATOM     21  C   UNL     1      34.011 -18.142 -23.417  0.00  0.00    -0.055 C 
ATOM     22  C   UNL     1      34.353 -17.434 -21.146  0.00  0.00    -0.055 C 
ATOM     23  C   UNL     1      34.211 -16.716 -23.934  0.00  0.00    +0.079 C 
ATOM     24  C   UNL     1      34.563 -15.983 -21.587  0.00  0.00    +0.079 C 
ATOM     25  C   UNL     1      33.602 -14.430 -23.264  0.00  0.00    +0.090 C 
ATOM     26  C   UNL     1      33.611 -12.177 -22.806  0.00  0.00    +0.108 C 
ATOM     27  C   UNL     1      32.717 -12.978 -24.810  0.00  0.00    +0.165 C 
ATOM     28  C   UNL     1      33.001 -11.890 -24.010  0.00  0.00    +0.022 C 
ATOM     29  H   UNL     1      35.772 -18.210 -22.389  0.00  0.00    -0.080 HD
ENDBRANCH  16  17
ENDBRANCH   1  16
TORSDOF 5
ENDMDL
MODEL 3
REMARK VINA RESULT:     -10.9      5.119      9.077
REMARK  Name = 91273
REMARK  5 active torsions:
REMARK  status: ('A' for Active; 'I' for Inactive)
REMARK    1  A    between atoms: C_1  and  C_2
REMARK    2  A    between atoms: C_1  and  C_16
REMARK    3  A    between atoms: C_2  and  C_3
REMARK    4  A    between atoms: C_3  and  N_6
REMARK    5  A    between atoms: C_16  and  N_17
REMARK                            x       y       z     vdW  Elec       q    Type
REMARK                         _______ _______ _______ _____ _____    ______ ____
ROOT
ATOM      1  C   UNL     1      31.033 -11.057 -20.898  0.00  0.00    -0.021 C 
ENDROOT
BRANCH   1   2
ATOM      2  C   UNL     1      30.805  -9.638 -20.364  0.00  0.00    +0.020 C 
BRANCH   2   3
ATOM      3  C   UNL     1      31.934  -8.683 -20.736  0.00  0.00    +0.101 C 
BRANCH   3   6
ATOM      4  O   UNL     1      30.535  -8.139 -23.257  0.00  0.00    -0.274 OA
ATOM      5  O   UNL     1      32.210  -6.047 -19.484  0.00  0.00    -0.274 OA
ATOM      6  N   UNL     1      31.443  -7.409 -21.225  0.00  0.00    -0.230 N 
ATOM      7  C   UNL     1      31.092  -5.102 -23.719  0.00  0.00    +0.009 C 
ATOM      8  C   UNL     1      31.900  -4.092 -21.900  0.00  0.00    +0.009 C 
ATOM      9  C   UNL     1      30.369  -5.829 -22.568  0.00  0.00    +0.086 C 
ATOM     10  C   UNL     1      30.926  -5.132 -21.316  0.00  0.00    +0.086 C 
ATOM     11  C   UNL     1      32.473  -4.810 -23.126  0.00  0.00    +0.001 C 
ATOM     12  C   UNL     1      30.510  -3.679 -23.826  0.00  0.00    +0.001 C 
ATOM     13  C   UNL     1      31.069  -2.983 -22.571  0.00  0.00    +0.001 C 
ATOM     14  C   UNL     1      30.770  -7.275 -22.422  0.00  0.00    +0.231 C 
ATOM     15  C   UNL     1      31.608  -6.226 -20.534  0.00  0.00    +0.231 C 
ENDBRANCH   3   6
ENDBRANCH   2   3
ENDBRANCH   1   2
BRANCH   1  16
ATOM     16  C   UNL     1      31.753 -11.028 -22.246  0.00  0.00    -0.077 C 
BRANCH  16  17
ATOM     17  N   UNL     1      32.760 -12.087 -22.305  0.00  0.00    +0.389 N 
ATOM     18  N   UNL     1      33.749 -14.759 -22.095  0.00  0.00    -0.257 N 
ATOM     19  N   UNL     1      34.642 -16.665 -23.165  0.00  0.00    -0.181 NA
ATOM     20  N   UNL     1      34.602 -16.510 -20.761  0.00  0.00    -0.203 NA
ATOM     21  C   UNL     1      32.922 -12.718 -20.989  0.00  0.00    -0.055 C 
ATOM     22  C   UNL     1      32.385 -13.099 -23.300  0.00  0.00    -0.055 C 
ATOM     23  C   UNL     1      34.014 -13.790 -21.024  0.00  0.00    +0.079 C 
ATOM     24  C   UNL     1      33.458 -14.185 -23.412  0.00  0.00    +0.079 C 
ATOM     25  C   UNL     1      34.351 -16.019 -22.003  0.00  0.00    +0.090 C 
ATOM     26  C   UNL     1      35.223 -17.877 -23.040  0.00  0.00    +0.108 C 
ATOM     27  C   UNL     1      35.184 -17.727 -20.710  0.00  0.00    +0.165 C 
ATOM     28  C   UNL     1      35.518 -18.463 -21.828  0.00  0.00    +0.022 C 
ATOM     29  H   UNL     1      33.647 -11.667 -22.581  0.00  0.00    -0.080 HD
ENDBRANCH  16  17
ENDBRANCH   1  16
TORSDOF 5
ENDMDL
MODEL 4
REMARK VINA RESULT:     -10.9      4.610     11.045
REMARK  Name = 91273
REMARK  5 active torsions:
REMARK  status: ('A' for Active; 'I' for Inactive)
REMARK    1  A    between atoms: C_1  and  C_2
REMARK    2  A    between atoms: C_1  and  C_16
REMARK    3  A    between atoms: C_2  and  C_3
REMARK    4  A    between atoms: C_3  and  N_6
REMARK    5  A    between atoms: C_16  and  N_17
REMARK                            x       y       z     vdW  Elec       q    Type
REMARK                         _______ _______ _______ _____ _____    ______ ____
ROOT
ATOM      1  C   UNL     1      33.598 -22.592 -15.377  0.00  0.00    -0.021 C 
ENDROOT
BRANCH   1   2
ATOM      2  C   UNL     1      32.872 -23.077 -14.117  0.00  0.00    +0.020 C 
BRANCH   2   3
ATOM      3  C   UNL     1      33.640 -24.170 -13.382  0.00  0.00    +0.101 C 
BRANCH   3   6
ATOM      4  O   UNL     1      35.051 -25.786 -15.384  0.00  0.00    -0.274 OA
ATOM      5  O   UNL     1      35.762 -22.612 -12.093  0.00  0.00    -0.274 OA
ATOM      6  N   UNL     1      35.056 -24.160 -13.699  0.00  0.00    -0.230 N 
ATOM      7  C   UNL     1      37.987 -25.796 -14.325  0.00  0.00    +0.009 C 
ATOM      8  C   UNL     1      38.332 -24.266 -12.738  0.00  0.00    +0.009 C 
ATOM      9  C   UNL     1      37.080 -24.631 -14.764  0.00  0.00    +0.086 C 
ATOM     10  C   UNL     1      37.318 -23.577 -13.671  0.00  0.00    +0.086 C 
ATOM     11  C   UNL     1      37.908 -25.737 -12.798  0.00  0.00    +0.001 C 
ATOM     12  C   UNL     1      39.451 -25.378 -14.561  0.00  0.00    +0.001 C 
ATOM     13  C   UNL     1      39.688 -24.322 -13.464  0.00  0.00    +0.001 C 
ATOM     14  C   UNL     1      35.608 -24.950 -14.687  0.00  0.00    +0.231 C 
ATOM     15  C   UNL     1      35.967 -23.360 -13.038  0.00  0.00    +0.231 C 
ENDBRANCH   3   6
ENDBRANCH   2   3
ENDBRANCH   1   2
BRANCH   1  16
ATOM     16  C   UNL     1      32.938 -23.145 -16.640  0.00  0.00    -0.077 C 
BRANCH  16  17
ATOM     17  N   UNL     1      33.555 -22.562 -17.830  0.00  0.00    +0.389 N 
ATOM     18  N   UNL     1      34.461 -20.451 -19.529  0.00  0.00    -0.257 N 
ATOM     19  N   UNL     1      36.269 -19.318 -20.542  0.00  0.00    -0.181 NA
ATOM     20  N   UNL     1      33.998 -18.842 -21.194  0.00  0.00    -0.203 NA
ATOM     21  C   UNL     1      32.590 -21.722 -18.551  0.00  0.00    -0.055 C 
ATOM     22  C   UNL     1      34.732 -21.765 -17.464  0.00  0.00    -0.055 C 
ATOM     23  C   UNL     1      33.206 -21.151 -19.831  0.00  0.00    +0.079 C 
ATOM     24  C   UNL     1      35.420 -21.195 -18.706  0.00  0.00    +0.079 C 
ATOM     25  C   UNL     1      34.924 -19.506 -20.452  0.00  0.00    +0.090 C 
ATOM     26  C   UNL     1      36.680 -18.401 -21.442  0.00  0.00    +0.108 C 
ATOM     27  C   UNL     1      34.480 -17.939 -22.074  0.00  0.00    +0.165 C 
ATOM     28  C   UNL     1      35.823 -17.673 -22.241  0.00  0.00    +0.022 C 
ATOM     29  H   UNL     1      33.849 -23.323 -18.441  0.00  0.00    -0.080 HD
ENDBRANCH  16  17
ENDBRANCH   1  16
TORSDOF 5
ENDMDL
MODEL 5
REMARK VINA RESULT:     -10.7      4.820      8.723
REMARK  Name = 91273
REMARK  5 active torsions:
REMARK  status: ('A' for Active; 'I' for Inactive)
REMARK    1  A    between atoms: C_1  and  C_2
REMARK    2  A    between atoms: C_1  and  C_16
REMARK    3  A    between atoms: C_2  and  C_3
REMARK    4  A    between atoms: C_3  and  N_6
REMARK    5  A    between atoms: C_16  and  N_17
REMARK                            x       y       z     vdW  Elec       q    Type
REMARK                         _______ _______ _______ _____ _____    ______ ____
ROOT
ATOM      1  C   UNL     1      31.512 -10.613 -20.689  0.00  0.00    -0.021 C 
ENDROOT
BRANCH   1   2
ATOM      2  C   UNL     1      31.215  -9.111 -20.758  0.00  0.00    +0.020 C 
BRANCH   2   3
ATOM      3  C   UNL     1      30.843  -8.650 -22.163  0.00  0.00    +0.101 C 
BRANCH   3   6
ATOM      4  O   UNL     1      30.031  -5.834 -22.300  0.00  0.00    -0.274 OA
ATOM      5  O   UNL     1      33.578  -8.661 -23.216  0.00  0.00    -0.274 OA
ATOM      6  N   UNL     1      31.633  -7.515 -22.600  0.00  0.00    -0.230 N 
ATOM      7  C   UNL     1      31.989  -4.649 -24.423  0.00  0.00    +0.009 C 
ATOM      8  C   UNL     1      33.701  -6.011 -24.866  0.00  0.00    +0.009 C 
ATOM      9  C   UNL     1      32.264  -5.314 -23.060  0.00  0.00    +0.086 C 
ATOM     10  C   UNL     1      33.443  -6.252 -23.366  0.00  0.00    +0.086 C 
ATOM     11  C   UNL     1      32.293  -5.770 -25.420  0.00  0.00    +0.001 C 
ATOM     12  C   UNL     1      33.142  -3.670 -24.719  0.00  0.00    +0.001 C 
ATOM     13  C   UNL     1      34.322  -4.611 -25.025  0.00  0.00    +0.001 C 
ATOM     14  C   UNL     1      31.153  -6.221 -22.597  0.00  0.00    +0.231 C 
ATOM     15  C   UNL     1      32.931  -7.635 -23.056  0.00  0.00    +0.231 C 
ENDBRANCH   3   6
ENDBRANCH   2   3
ENDBRANCH   1   2
BRANCH   1  16
ATOM     16  C   UNL     1      31.591 -11.222 -22.089  0.00  0.00    -0.077 C 
BRANCH  16  17
ATOM     17  N   UNL     1      32.648 -12.231 -22.144  0.00  0.00    +0.389 N 
ATOM     18  N   UNL     1      33.752 -14.861 -21.978  0.00  0.00    -0.257 N 
ATOM     19  N   UNL     1      34.772 -16.688 -23.072  0.00  0.00    -0.181 NA
ATOM     20  N   UNL     1      34.638 -16.614 -20.668  0.00  0.00    -0.203 NA
ATOM     21  C   UNL     1      32.791 -12.897 -20.842  0.00  0.00    -0.055 C 
ATOM     22  C   UNL     1      32.357 -13.227 -23.183  0.00  0.00    -0.055 C 
ATOM     23  C   UNL     1      33.933 -13.916 -20.869  0.00  0.00    +0.079 C 
ATOM     24  C   UNL     1      33.483 -14.258 -23.288  0.00  0.00    +0.079 C 
ATOM     25  C   UNL     1      34.409 -16.095 -21.903  0.00  0.00    +0.090 C 
ATOM     26  C   UNL     1      35.404 -17.875 -22.964  0.00  0.00    +0.108 C 
ATOM     27  C   UNL     1      35.274 -17.804 -20.633  0.00  0.00    +0.165 C 
ATOM     28  C   UNL     1      35.683 -18.487 -21.760  0.00  0.00    +0.022 C 
ATOM     29  H   UNL     1      33.524 -11.763 -22.372  0.00  0.00    -0.080 HD
ENDBRANCH  16  17
ENDBRANCH   1  16
TORSDOF 5
ENDMDL
MODEL 6
REMARK VINA RESULT:     -10.6      5.060      8.896
REMARK  Name = 91273
REMARK  5 active torsions:
REMARK  status: ('A' for Active; 'I' for Inactive)
REMARK    1  A    between atoms: C_1  and  C_2
REMARK    2  A    between atoms: C_1  and  C_16
REMARK    3  A    between atoms: C_2  and  C_3
REMARK    4  A    between atoms: C_3  and  N_6
REMARK    5  A    between atoms: C_16  and  N_17
REMARK                            x       y       z     vdW  Elec       q    Type
REMARK                         _______ _______ _______ _____ _____    ______ ____
ROOT
ATOM      1  C   UNL     1      31.337 -10.505 -22.155  0.00  0.00    -0.021 C 
ENDROOT
BRANCH   1   2
ATOM      2  C   UNL     1      31.154  -9.030 -22.529  0.00  0.00    +0.020 C 
BRANCH   2   3
ATOM      3  C   UNL     1      31.975  -8.095 -21.648  0.00  0.00    +0.101 C 
BRANCH   3   6
ATOM      4  O   UNL     1      30.655  -5.505 -22.047  0.00  0.00    -0.274 OA
ATOM      5  O   UNL     1      34.481  -7.862 -23.151  0.00  0.00    -0.274 OA
ATOM      6  N   UNL     1      32.474  -6.944 -22.376  0.00  0.00    -0.230 N 
ATOM      7  C   UNL     1      32.032  -4.414 -24.628  0.00  0.00    +0.009 C 
ATOM      8  C   UNL     1      33.877  -5.550 -25.162  0.00  0.00    +0.009 C 
ATOM      9  C   UNL     1      32.621  -4.784 -23.253  0.00  0.00    +0.086 C 
ATOM     10  C   UNL     1      33.892  -5.566 -23.621  0.00  0.00    +0.086 C 
ATOM     11  C   UNL     1      32.383  -5.629 -25.490  0.00  0.00    +0.001 C 
ATOM     12  C   UNL     1      32.932  -3.334 -25.259  0.00  0.00    +0.001 C 
ATOM     13  C   UNL     1      34.204  -4.119 -25.627  0.00  0.00    +0.001 C 
ATOM     14  C   UNL     1      31.773  -5.759 -22.476  0.00  0.00    +0.231 C 
ATOM     15  C   UNL     1      33.690  -6.938 -23.030  0.00  0.00    +0.231 C 
ENDBRANCH   3   6
ENDBRANCH   2   3
ENDBRANCH   1   2
BRANCH   1  16
ATOM     16  C   UNL     1      32.533 -11.114 -22.887  0.00  0.00    -0.077 C 
BRANCH  16  17
ATOM     17  N   UNL     1      32.660 -12.533 -22.557  0.00  0.00    +0.389 N 
ATOM     18  N   UNL     1      34.021 -15.024 -22.240  0.00  0.00    -0.257 N 
ATOM     19  N   UNL     1      34.806 -16.720 -20.795  0.00  0.00    -0.181 NA
ATOM     20  N   UNL     1      34.839 -17.027 -23.184  0.00  0.00    -0.203 NA
ATOM     21  C   UNL     1      33.093 -13.298 -23.733  0.00  0.00    -0.055 C 
ATOM     22  C   UNL     1      33.615 -12.724 -21.459  0.00  0.00    -0.055 C 
ATOM     23  C   UNL     1      33.175 -14.793 -23.417  0.00  0.00    +0.079 C 
ATOM     24  C   UNL     1      33.715 -14.200 -21.066  0.00  0.00    +0.079 C 
ATOM     25  C   UNL     1      34.574 -16.299 -22.068  0.00  0.00    +0.090 C 
ATOM     26  C   UNL     1      35.337 -17.953 -20.665  0.00  0.00    +0.108 C 
ATOM     27  C   UNL     1      35.370 -18.252 -22.982  0.00  0.00    +0.165 C 
ATOM     28  C   UNL     1      35.644 -18.771 -21.733  0.00  0.00    +0.022 C 
ATOM     29  H   UNL     1      31.746 -12.874 -22.262  0.00  0.00    -0.080 HD
ENDBRANCH  16  17
ENDBRANCH   1  16
TORSDOF 5
ENDMDL
MODEL 7
REMARK VINA RESULT:     -10.3      3.433      5.903
REMARK  Name = 91273
REMARK  5 active torsions:
REMARK  status: ('A' for Active; 'I' for Inactive)
REMARK    1  A    between atoms: C_1  and  C_2
REMARK    2  A    between atoms: C_1  and  C_16
REMARK    3  A    between atoms: C_2  and  C_3
REMARK    4  A    between atoms: C_3  and  N_6
REMARK    5  A    between atoms: C_16  and  N_17
REMARK                            x       y       z     vdW  Elec       q    Type
REMARK                         _______ _______ _______ _____ _____    ______ ____
ROOT
ATOM      1  C   UNL     1      32.501 -23.037 -16.816  0.00  0.00    -0.021 C 
ENDROOT
BRANCH   1   2
ATOM      2  C   UNL     1      32.368 -21.973 -17.911  0.00  0.00    +0.020 C 
BRANCH   2   3
ATOM      3  C   UNL     1      33.325 -22.208 -19.075  0.00  0.00    +0.101 C 
BRANCH   3   6
ATOM      4  O   UNL     1      31.746 -20.215 -20.539  0.00  0.00    -0.274 OA
ATOM      5  O   UNL     1      36.066 -21.175 -19.188  0.00  0.00    -0.274 OA
ATOM      6  N   UNL     1      33.786 -20.968 -19.670  0.00  0.00    -0.230 N 
ATOM      7  C   UNL     1      33.895 -18.768 -22.281  0.00  0.00    +0.009 C 
ATOM      8  C   UNL     1      35.980 -19.230 -21.631  0.00  0.00    +0.009 C 
ATOM      9  C   UNL     1      33.760 -18.898 -20.751  0.00  0.00    +0.086 C 
ATOM     10  C   UNL     1      35.196 -19.216 -20.304  0.00  0.00    +0.086 C 
ATOM     11  C   UNL     1      34.965 -19.810 -22.621  0.00  0.00    +0.001 C 
ATOM     12  C   UNL     1      34.651 -17.460 -22.585  0.00  0.00    +0.001 C 
ATOM     13  C   UNL     1      36.089 -17.780 -22.137  0.00  0.00    +0.001 C 
ATOM     14  C   UNL     1      32.942 -20.088 -20.316  0.00  0.00    +0.231 C 
ATOM     15  C   UNL     1      35.107 -20.567 -19.641  0.00  0.00    +0.231 C 
ENDBRANCH   3   6
ENDBRANCH   2   3
ENDBRANCH   1   2
BRANCH   1  16
ATOM     16  C   UNL     1      32.621 -22.393 -15.435  0.00  0.00    -0.077 C 
BRANCH  16  17
ATOM     17  N   UNL     1      33.943 -22.655 -14.867  0.00  0.00    +0.389 N 
ATOM     18  N   UNL     1      36.491 -23.932 -14.672  0.00  0.00    -0.257 N 
ATOM     19  N   UNL     1      38.842 -23.767 -14.818  0.00  0.00    -0.181 NA
ATOM     20  N   UNL     1      37.802 -25.746 -13.921  0.00  0.00    -0.203 NA
ATOM     21  C   UNL     1      34.043 -24.048 -14.416  0.00  0.00    -0.055 C 
ATOM     22  C   UNL     1      34.993 -22.374 -15.853  0.00  0.00    -0.055 C 
ATOM     23  C   UNL     1      35.402 -24.320 -13.767  0.00  0.00    +0.079 C 
ATOM     24  C   UNL     1      36.384 -22.590 -15.253  0.00  0.00    +0.079 C 
ATOM     25  C   UNL     1      37.752 -24.501 -14.463  0.00  0.00    +0.090 C 
ATOM     26  C   UNL     1      40.042 -24.344 -14.602  0.00  0.00    +0.108 C 
ATOM     27  C   UNL     1      39.034 -26.263 -13.732  0.00  0.00    +0.165 C 
ATOM     28  C   UNL     1      40.200 -25.602 -14.058  0.00  0.00    +0.022 C 
ATOM     29  H   UNL     1      34.072 -22.039 -14.064  0.00  0.00    -0.080 HD
ENDBRANCH  16  17
ENDBRANCH   1  16
TORSDOF 5
ENDMDL
MODEL 8
REMARK VINA RESULT:     -10.3      5.249      9.344
REMARK  Name = 91273
REMARK  5 active torsions:
REMARK  status: ('A' for Active; 'I' for Inactive)
REMARK    1  A    between atoms: C_1  and  C_2
REMARK    2  A    between atoms: C_1  and  C_16
REMARK    3  A    between atoms: C_2  and  C_3
REMARK    4  A    between atoms: C_3  and  N_6
REMARK    5  A    between atoms: C_16  and  N_17
REMARK                            x       y       z     vdW  Elec       q    Type
REMARK                         _______ _______ _______ _____ _____    ______ ____
ROOT
ATOM      1  C   UNL     1      32.011  -9.619 -22.919  0.00  0.00    -0.021 C 
ENDROOT
BRANCH   1   2
ATOM      2  C   UNL     1      31.847  -8.412 -21.989  0.00  0.00    +0.020 C 
BRANCH   2   3
ATOM      3  C   UNL     1      30.835  -7.400 -22.516  0.00  0.00    +0.101 C 
BRANCH   3   6
ATOM      4  O   UNL     1      30.547  -7.302 -25.434  0.00  0.00    -0.274 OA
ATOM      5  O   UNL     1      32.686  -5.211 -21.903  0.00  0.00    -0.274 OA
ATOM      6  N   UNL     1      31.429  -6.451 -23.438  0.00  0.00    -0.230 N 
ATOM      7  C   UNL     1      33.101  -5.746 -26.332  0.00  0.00    +0.009 C 
ATOM      8  C   UNL     1      34.134  -4.737 -24.630  0.00  0.00    +0.009 C 
ATOM      9  C   UNL     1      31.933  -5.323 -25.420  0.00  0.00    +0.086 C 
ATOM     10  C   UNL     1      32.645  -4.628 -24.248  0.00  0.00    +0.086 C 
ATOM     11  C   UNL     1      34.207  -6.096 -25.334  0.00  0.00    +0.001 C 
ATOM     12  C   UNL     1      33.683  -4.477 -26.984  0.00  0.00    +0.001 C 
ATOM     13  C   UNL     1      34.396  -3.782 -25.809  0.00  0.00    +0.001 C 
ATOM     14  C   UNL     1      31.201  -6.485 -24.799  0.00  0.00    +0.231 C 
ATOM     15  C   UNL     1      32.273  -5.437 -23.032  0.00  0.00    +0.231 C 
ENDBRANCH   3   6
ENDBRANCH   2   3
ENDBRANCH   1   2
BRANCH   1  16
ATOM     16  C   UNL     1      31.521 -10.901 -22.247  0.00  0.00    -0.077 C 
BRANCH  16  17
ATOM     17  N   UNL     1      32.561 -11.928 -22.299  0.00  0.00    +0.389 N 
ATOM     18  N   UNL     1      33.627 -14.571 -22.096  0.00  0.00    -0.257 N 
ATOM     19  N   UNL     1      34.599 -16.437 -23.168  0.00  0.00    -0.181 NA
ATOM     20  N   UNL     1      34.509 -16.310 -20.764  0.00  0.00    -0.203 NA
ATOM     21  C   UNL     1      32.718 -12.568 -20.986  0.00  0.00    -0.055 C 
ATOM     22  C   UNL     1      32.236 -12.941 -23.310  0.00  0.00    -0.055 C 
ATOM     23  C   UNL     1      33.842 -13.606 -21.011  0.00  0.00    +0.079 C 
ATOM     24  C   UNL     1      33.344 -13.992 -23.413  0.00  0.00    +0.079 C 
ATOM     25  C   UNL     1      34.266 -15.814 -22.006  0.00  0.00    +0.090 C 
ATOM     26  C   UNL     1      35.213 -17.632 -23.046  0.00  0.00    +0.108 C 
ATOM     27  C   UNL     1      35.127 -17.509 -20.715  0.00  0.00    +0.165 C 
ATOM     28  C   UNL     1      35.505 -18.223 -21.833  0.00  0.00    +0.022 C 
ATOM     29  H   UNL     1      33.440 -11.479 -22.553  0.00  0.00    -0.080 HD
ENDBRANCH  16  17
ENDBRANCH   1  16
TORSDOF 5
ENDMDL
MODEL 9
REMARK VINA RESULT:     -10.2      2.857     10.384
REMARK  Name = 91273
REMARK  5 active torsions:
REMARK  status: ('A' for Active; 'I' for Inactive)
REMARK    1  A    between atoms: C_1  and  C_2
REMARK    2  A    between atoms: C_1  and  C_16
REMARK    3  A    between atoms: C_2  and  C_3
REMARK    4  A    between atoms: C_3  and  N_6
REMARK    5  A    between atoms: C_16  and  N_17
REMARK                            x       y       z     vdW  Elec       q    Type
REMARK                         _______ _______ _______ _____ _____    ______ ____
ROOT
ATOM      1  C   UNL     1      34.804 -19.995 -19.987  0.00  0.00    -0.021 C 
ENDROOT
BRANCH   1   2
ATOM      2  C   UNL     1      34.687 -21.412 -19.415  0.00  0.00    +0.020 C 
BRANCH   2   3
ATOM      3  C   UNL     1      34.934 -21.459 -17.911  0.00  0.00    +0.101 C 
BRANCH   3   6
ATOM      4  O   UNL     1      32.043 -21.589 -18.394  0.00  0.00    -0.274 OA
ATOM      5  O   UNL     1      35.362 -23.244 -15.626  0.00  0.00    -0.274 OA
ATOM      6  N   UNL     1      33.950 -22.264 -17.214  0.00  0.00    -0.230 N 
ATOM      7  C   UNL     1      30.928 -22.603 -15.660  0.00  0.00    +0.009 C 
ATOM      8  C   UNL     1      32.527 -23.402 -14.324  0.00  0.00    +0.009 C 
ATOM      9  C   UNL     1      31.912 -23.256 -16.649  0.00  0.00    +0.086 C 
ATOM     10  C   UNL     1      33.013 -23.806 -15.729  0.00  0.00    +0.086 C 
ATOM     11  C   UNL     1      31.851 -22.050 -14.572  0.00  0.00    +0.001 C 
ATOM     12  C   UNL     1      30.207 -23.727 -14.891  0.00  0.00    +0.001 C 
ATOM     13  C   UNL     1      31.311 -24.277 -13.969  0.00  0.00    +0.001 C 
ATOM     14  C   UNL     1      32.611 -22.265 -17.547  0.00  0.00    +0.231 C 
ATOM     15  C   UNL     1      34.271 -23.096 -16.159  0.00  0.00    +0.231 C 
ENDBRANCH   3   6
ENDBRANCH   2   3
ENDBRANCH   1   2
BRANCH   1  16
ATOM     16  C   UNL     1      34.661 -20.002 -21.509  0.00  0.00    -0.077 C 
BRANCH  16  17
ATOM     17  N   UNL     1      34.822 -18.649 -22.040  0.00  0.00    +0.389 N 
ATOM     18  N   UNL     1      33.970 -16.036 -22.820  0.00  0.00    -0.257 N 
ATOM     19  N   UNL     1      34.051 -13.703 -22.465  0.00  0.00    -0.181 NA
ATOM     20  N   UNL     1      33.011 -14.611 -24.440  0.00  0.00    -0.203 NA
ATOM     21  C   UNL     1      33.993 -18.465 -23.238  0.00  0.00    -0.055 C 
ATOM     22  C   UNL     1      34.460 -17.651 -21.026  0.00  0.00    -0.055 C 
ATOM     23  C   UNL     1      34.196 -17.071 -23.837  0.00  0.00    +0.079 C 
ATOM     24  C   UNL     1      34.677 -16.230 -21.550  0.00  0.00    +0.079 C 
ATOM     25  C   UNL     1      33.667 -14.741 -23.257  0.00  0.00    +0.090 C 
ATOM     26  C   UNL     1      33.744 -12.469 -22.916  0.00  0.00    +0.108 C 
ATOM     27  C   UNL     1      32.736 -13.349 -24.831  0.00  0.00    +0.165 C 
ATOM     28  C   UNL     1      33.081 -12.229 -24.102  0.00  0.00    +0.022 C 
ATOM     29  H   UNL     1      35.801 -18.521 -22.294  0.00  0.00    -0.080 HD
ENDBRANCH  16  17
ENDBRANCH   1  16
TORSDOF 5
ENDMDL
