MODEL 1
REMARK VINA RESULT:     -11.1      0.000      0.000
REMARK  Name = 43860
REMARK  8 active torsions:
REMARK  status: ('A' for Active; 'I' for Inactive)
REMARK    1  A    between atoms: C_2  and  N_6
REMARK    2  A    between atoms: C_3  and  O_22
REMARK    3  A    between atoms: C_4  and  O_24
REMARK    4  A    between atoms: C_5  and  C_26
REMARK    5  A    between atoms: C_26  and  O_27
REMARK    6  A    between atoms: O_27  and  P_28
REMARK    7  A    between atoms: P_28  and  O_30
REMARK    8  A    between atoms: P_28  and  O_32
REMARK                            x       y       z     vdW  Elec       q    Type
REMARK                         _______ _______ _______ _____ _____    ______ ____
ROOT
ATOM      1  O   UNL     1      37.214 -23.403 -13.013  0.00  0.00    -0.333 OA
ATOM      2  C   UNL     1      35.847 -22.998 -12.803  0.00  0.00    +0.224 C 
ATOM      3  C   UNL     1      35.211 -24.083 -11.947  0.00  0.00    +0.187 C 
ATOM      4  C   UNL     1      36.377 -24.500 -11.072  0.00  0.00    +0.171 C 
ATOM      5  C   UNL     1      37.554 -24.417 -12.039  0.00  0.00    +0.176 C 
ENDROOT
BRANCH   2   6
ATOM      6  N   UNL     1      35.190 -22.795 -14.092  0.00  0.00    -0.265 N 
ATOM      7  N   UNL     1      37.015 -21.768 -15.396  0.00  0.00    -0.230 NA
ATOM      8  N   UNL     1      33.885 -21.865 -18.277  0.00  0.00    -0.192 N 
ATOM      9  N   UNL     1      32.664 -22.409 -17.844  0.00  0.00    -0.162 NA
ATOM     10  N   UNL     1      36.241 -21.275 -17.699  0.00  0.00    -0.228 NA
ATOM     11  N   UNL     1      31.373 -23.404 -16.094  0.00  0.00    -0.342 N 
ATOM     12  C   UNL     1      35.770 -22.239 -15.209  0.00  0.00    +0.133 C 
ATOM     13  C   UNL     1      33.870 -23.139 -14.372  0.00  0.00    +0.124 C 
ATOM     14  C   UNL     1      34.795 -22.251 -16.166  0.00  0.00    +0.065 C 
ATOM     15  C   UNL     1      33.617 -22.798 -15.680  0.00  0.00    +0.036 C 
ATOM     16  C   UNL     1      35.003 -21.768 -17.439  0.00  0.00    +0.150 C 
ATOM     17  C   UNL     1      32.513 -22.858 -16.615  0.00  0.00    +0.141 C 
ATOM     18  C   UNL     1      37.150 -21.308 -16.675  0.00  0.00    +0.253 C 
ATOM     19  C   UNL     1      33.979 -21.391 -19.639  0.00  0.00    +0.142 C 
ATOM     20  H   UNL     1      30.568 -23.488 -16.653  0.00  0.00    +0.144 HD
ATOM     21  H   UNL     1      31.358 -23.711 -15.159  0.00  0.00    +0.144 HD
ENDBRANCH   2   6
BRANCH   3  22
ATOM     22  O   UNL     1      34.111 -23.593 -11.207  0.00  0.00    -0.378 OA
ATOM     23  H   UNL     1      33.374 -24.221 -11.269  0.00  0.00    +0.211 HD
ENDBRANCH   3  22
BRANCH   4  24
ATOM     24  O   UNL     1      36.564 -23.536 -10.036  0.00  0.00    -0.379 OA
ATOM     25  H   UNL     1      37.513 -23.392  -9.896  0.00  0.00    +0.211 HD
ENDBRANCH   4  24
BRANCH   5  26
ATOM     26  C   UNL     1      37.809 -25.724 -12.777  0.00  0.00    +0.186 C 
BRANCH  26  27
ATOM     27  O   UNL     1      38.290 -25.425 -14.076  0.00  0.00    -0.271 OA
BRANCH  27  28
ATOM     28  P   UNL     1      39.889 -25.437 -14.329  0.00  0.00    +0.473 P 
ATOM     29  O   UNL     1      40.644 -26.480 -13.558  0.00  0.00    -0.227 OA
BRANCH  28  30
ATOM     30  O   UNL     1      40.334 -23.909 -14.042  0.00  0.00    -0.303 OA
ATOM     31  H   UNL     1      41.245 -23.895 -13.709  0.00  0.00    +0.222 HD
ENDBRANCH  28  30
BRANCH  28  32
ATOM     32  O   UNL     1      40.001 -25.562 -15.937  0.00  0.00    -0.303 OA
ATOM     33  H   UNL     1      39.465 -24.868 -16.353  0.00  0.00    +0.222 HD
ENDBRANCH  28  32
ENDBRANCH  27  28
ENDBRANCH  26  27
ENDBRANCH   5  26
TORSDOF 8
ENDMDL
MODEL 2
REMARK VINA RESULT:     -11.0      1.702      3.361
REMARK  Name = 43860
REMARK  8 active torsions:
REMARK  status: ('A' for Active; 'I' for Inactive)
REMARK    1  A    between atoms: C_2  and  N_6
REMARK    2  A    between atoms: C_3  and  O_22
REMARK    3  A    between atoms: C_4  and  O_24
REMARK    4  A    between atoms: C_5  and  C_26
REMARK    5  A    between atoms: C_26  and  O_27
REMARK    6  A    between atoms: O_27  and  P_28
REMARK    7  A    between atoms: P_28  and  O_30
REMARK    8  A    between atoms: P_28  and  O_32
REMARK                            x       y       z     vdW  Elec       q    Type
REMARK                         _______ _______ _______ _____ _____    ______ ____
ROOT
ATOM      1  O   UNL     1      36.333 -23.074 -13.776  0.00  0.00    -0.333 OA
ATOM      2  C   UNL     1      35.068 -23.176 -13.092  0.00  0.00    +0.224 C 
ATOM      3  C   UNL     1      35.066 -24.534 -12.407  0.00  0.00    +0.187 C 
ATOM      4  C   UNL     1      36.527 -24.689 -12.036  0.00  0.00    +0.171 C 
ATOM      5  C   UNL     1      37.235 -24.069 -13.238  0.00  0.00    +0.176 C 
ENDROOT
BRANCH   2   6
ATOM      6  N   UNL     1      33.977 -22.986 -14.045  0.00  0.00    -0.265 N 
ATOM      7  N   UNL     1      32.014 -23.211 -12.568  0.00  0.00    -0.230 NA
ATOM      8  N   UNL     1      30.151 -22.506 -16.328  0.00  0.00    -0.192 N 
ATOM      9  N   UNL     1      31.015 -22.328 -17.422  0.00  0.00    -0.162 NA
ATOM     10  N   UNL     1      29.928 -22.937 -13.879  0.00  0.00    -0.228 NA
ATOM     11  N   UNL     1      33.249 -22.222 -18.268  0.00  0.00    -0.342 N 
ATOM     12  C   UNL     1      32.635 -23.014 -13.744  0.00  0.00    +0.133 C 
ATOM     13  C   UNL     1      34.147 -22.747 -15.407  0.00  0.00    +0.124 C 
ATOM     14  C   UNL     1      31.994 -22.790 -14.930  0.00  0.00    +0.065 C 
ATOM     15  C   UNL     1      32.898 -22.623 -15.969  0.00  0.00    +0.036 C 
ATOM     16  C   UNL     1      30.621 -22.745 -15.031  0.00  0.00    +0.150 C 
ATOM     17  C   UNL     1      32.323 -22.380 -17.275  0.00  0.00    +0.141 C 
ATOM     18  C   UNL     1      30.661 -23.153 -12.742  0.00  0.00    +0.253 C 
ATOM     19  C   UNL     1      28.726 -22.437 -16.563  0.00  0.00    +0.142 C 
ATOM     20  H   UNL     1      32.956 -22.051 -19.191  0.00  0.00    +0.144 HD
ATOM     21  H   UNL     1      34.209 -22.279 -18.059  0.00  0.00    +0.144 HD
ENDBRANCH   2   6
BRANCH   3  22
ATOM     22  O   UNL     1      34.204 -24.558 -11.287  0.00  0.00    -0.378 OA
ATOM     23  H   UNL     1      33.717 -23.721 -11.236  0.00  0.00    +0.211 HD
ENDBRANCH   3  22
BRANCH   4  24
ATOM     24  O   UNL     1      36.810 -23.901 -10.879  0.00  0.00    -0.379 OA
ATOM     25  H   UNL     1      37.191 -24.467 -10.190  0.00  0.00    +0.211 HD
ENDBRANCH   4  24
BRANCH   5  26
ATOM     26  C   UNL     1      37.540 -25.081 -14.333  0.00  0.00    +0.186 C 
BRANCH  26  27
ATOM     27  O   UNL     1      38.617 -25.899 -13.908  0.00  0.00    -0.271 OA
BRANCH  27  28
ATOM     28  P   UNL     1      40.125 -25.449 -14.289  0.00  0.00    +0.473 P 
ATOM     29  O   UNL     1      40.500 -24.062 -13.854  0.00  0.00    -0.227 OA
BRANCH  28  30
ATOM     30  O   UNL     1      40.217 -25.723 -15.880  0.00  0.00    -0.303 OA
ATOM     31  H   UNL     1      39.322 -25.762 -16.254  0.00  0.00    +0.222 HD
ENDBRANCH  28  30
BRANCH  28  32
ATOM     32  O   UNL     1      41.027 -26.631 -13.654  0.00  0.00    -0.303 OA
ATOM     33  H   UNL     1      40.759 -26.783 -12.734  0.00  0.00    +0.222 HD
ENDBRANCH  28  32
ENDBRANCH  27  28
ENDBRANCH  26  27
ENDBRANCH   5  26
TORSDOF 8
ENDMDL
MODEL 3
REMARK VINA RESULT:     -10.8      2.235      4.239
REMARK  Name = 43860
REMARK  8 active torsions:
REMARK  status: ('A' for Active; 'I' for Inactive)
REMARK    1  A    between atoms: C_2  and  N_6
REMARK    2  A    between atoms: C_3  and  O_22
REMARK    3  A    between atoms: C_4  and  O_24
REMARK    4  A    between atoms: C_5  and  C_26
REMARK    5  A    between atoms: C_26  and  O_27
REMARK    6  A    between atoms: O_27  and  P_28
REMARK    7  A    between atoms: P_28  and  O_30
REMARK    8  A    between atoms: P_28  and  O_32
REMARK                            x       y       z     vdW  Elec       q    Type
REMARK                         _______ _______ _______ _____ _____    ______ ____
ROOT
ATOM      1  O   UNL     1      35.939 -25.219 -14.780  0.00  0.00    -0.333 OA
ATOM      2  C   UNL     1      35.622 -23.904 -15.277  0.00  0.00    +0.224 C 
ATOM      3  C   UNL     1      36.415 -22.927 -14.421  0.00  0.00    +0.187 C 
ATOM      4  C   UNL     1      37.678 -23.720 -14.149  0.00  0.00    +0.171 C 
ATOM      5  C   UNL     1      37.141 -25.138 -13.979  0.00  0.00    +0.176 C 
ENDROOT
BRANCH   2   6
ATOM      6  N   UNL     1      34.176 -23.697 -15.233  0.00  0.00    -0.265 N 
ATOM      7  N   UNL     1      33.801 -22.523 -17.369  0.00  0.00    -0.230 NA
ATOM      8  N   UNL     1      29.844 -22.708 -15.815  0.00  0.00    -0.192 N 
ATOM      9  N   UNL     1      29.700 -23.337 -14.566  0.00  0.00    -0.162 NA
ATOM     10  N   UNL     1      31.392 -22.000 -17.641  0.00  0.00    -0.228 NA
ATOM     11  N   UNL     1      30.710 -24.462 -12.714  0.00  0.00    -0.342 N 
ATOM     12  C   UNL     1      33.425 -23.072 -16.201  0.00  0.00    +0.133 C 
ATOM     13  C   UNL     1      33.348 -24.109 -14.191  0.00  0.00    +0.124 C 
ATOM     14  C   UNL     1      32.139 -23.109 -15.742  0.00  0.00    +0.065 C 
ATOM     15  C   UNL     1      32.061 -23.740 -14.509  0.00  0.00    +0.036 C 
ATOM     16  C   UNL     1      31.085 -22.574 -16.449  0.00  0.00    +0.150 C 
ATOM     17  C   UNL     1      30.739 -23.834 -13.927  0.00  0.00    +0.141 C 
ATOM     18  C   UNL     1      32.710 -22.014 -18.015  0.00  0.00    +0.253 C 
ATOM     19  C   UNL     1      28.661 -22.185 -16.459  0.00  0.00    +0.142 C 
ATOM     20  H   UNL     1      29.855 -24.575 -12.239  0.00  0.00    +0.144 HD
ATOM     21  H   UNL     1      31.543 -24.801 -12.315  0.00  0.00    +0.144 HD
ENDBRANCH   2   6
BRANCH   3  22
ATOM     22  O   UNL     1      36.660 -21.711 -15.100  0.00  0.00    -0.378 OA
ATOM     23  H   UNL     1      36.987 -21.900 -15.994  0.00  0.00    +0.211 HD
ENDBRANCH   3  22
BRANCH   4  24
ATOM     24  O   UNL     1      38.521 -23.682 -15.300  0.00  0.00    -0.379 OA
ATOM     25  H   UNL     1      39.449 -23.733 -15.022  0.00  0.00    +0.211 HD
ENDBRANCH   4  24
BRANCH   5  26
ATOM     26  C   UNL     1      36.779 -25.467 -12.538  0.00  0.00    +0.186 C 
BRANCH  26  27
ATOM     27  O   UNL     1      37.030 -24.326 -11.735  0.00  0.00    -0.271 OA
BRANCH  27  28
ATOM     28  P   UNL     1      35.830 -23.753 -10.813  0.00  0.00    +0.473 P 
ATOM     29  O   UNL     1      36.132 -23.697  -9.343  0.00  0.00    -0.227 OA
BRANCH  28  30
ATOM     30  O   UNL     1      34.560 -24.666 -11.223  0.00  0.00    -0.303 OA
ATOM     31  H   UNL     1      34.134 -24.294 -12.011  0.00  0.00    +0.222 HD
ENDBRANCH  28  30
BRANCH  28  32
ATOM     32  O   UNL     1      35.498 -22.326 -11.495  0.00  0.00    -0.303 OA
ATOM     33  H   UNL     1      36.107 -22.172 -12.235  0.00  0.00    +0.222 HD
ENDBRANCH  28  32
ENDBRANCH  27  28
ENDBRANCH  26  27
ENDBRANCH   5  26
TORSDOF 8
ENDMDL
MODEL 4
REMARK VINA RESULT:     -10.6      4.785      6.978
REMARK  Name = 43860
REMARK  8 active torsions:
REMARK  status: ('A' for Active; 'I' for Inactive)
REMARK    1  A    between atoms: C_2  and  N_6
REMARK    2  A    between atoms: C_3  and  O_22
REMARK    3  A    between atoms: C_4  and  O_24
REMARK    4  A    between atoms: C_5  and  C_26
REMARK    5  A    between atoms: C_26  and  O_27
REMARK    6  A    between atoms: O_27  and  P_28
REMARK    7  A    between atoms: P_28  and  O_30
REMARK    8  A    between atoms: P_28  and  O_32
REMARK                            x       y       z     vdW  Elec       q    Type
REMARK                         _______ _______ _______ _____ _____    ______ ____
ROOT
ATOM      1  O   UNL     1      31.354 -25.065 -14.550  0.00  0.00    -0.333 OA
ATOM      2  C   UNL     1      32.068 -24.053 -13.812  0.00  0.00    +0.224 C 
ATOM      3  C   UNL     1      31.023 -23.045 -13.358  0.00  0.00    +0.187 C 
ATOM      4  C   UNL     1      29.826 -23.942 -13.111  0.00  0.00    +0.171 C 
ATOM      5  C   UNL     1      29.945 -24.962 -14.239  0.00  0.00    +0.176 C 
ENDROOT
BRANCH   2   6
ATOM      6  N   UNL     1      33.120 -23.484 -14.650  0.00  0.00    -0.265 N 
ATOM      7  N   UNL     1      31.819 -22.757 -16.616  0.00  0.00    -0.230 NA
ATOM      8  N   UNL     1      35.751 -21.583 -17.740  0.00  0.00    -0.192 N 
ATOM      9  N   UNL     1      36.768 -21.862 -16.811  0.00  0.00    -0.162 NA
ATOM     10  N   UNL     1      33.320 -21.714 -18.291  0.00  0.00    -0.228 NA
ATOM     11  N   UNL     1      37.414 -22.768 -14.695  0.00  0.00    -0.342 N 
ATOM     12  C   UNL     1      32.940 -22.921 -15.893  0.00  0.00    +0.133 C 
ATOM     13  C   UNL     1      34.469 -23.431 -14.304  0.00  0.00    +0.124 C 
ATOM     14  C   UNL     1      34.185 -22.527 -16.295  0.00  0.00    +0.065 C 
ATOM     15  C   UNL     1      35.144 -22.828 -15.339  0.00  0.00    +0.036 C 
ATOM     16  C   UNL     1      34.410 -21.912 -17.507  0.00  0.00    +0.150 C 
ATOM     17  C   UNL     1      36.504 -22.453 -15.665  0.00  0.00    +0.141 C 
ATOM     18  C   UNL     1      32.116 -22.143 -17.800  0.00  0.00    +0.253 C 
ATOM     19  C   UNL     1      36.115 -20.933 -18.980  0.00  0.00    +0.142 C 
ATOM     20  H   UNL     1      38.365 -22.552 -14.824  0.00  0.00    +0.144 HD
ATOM     21  H   UNL     1      37.118 -23.212 -13.868  0.00  0.00    +0.144 HD
ENDBRANCH   2   6
BRANCH   3  22
ATOM     22  O   UNL     1      31.436 -22.342 -12.204  0.00  0.00    -0.378 OA
ATOM     23  H   UNL     1      30.676 -21.879 -11.817  0.00  0.00    +0.211 HD
ENDBRANCH   3  22
BRANCH   4  24
ATOM     24  O   UNL     1      29.986 -24.615 -11.862  0.00  0.00    -0.379 OA
ATOM     25  H   UNL     1      30.930 -24.689 -11.654  0.00  0.00    +0.211 HD
ENDBRANCH   4  24
BRANCH   5  26
ATOM     26  C   UNL     1      29.205 -24.542 -15.500  0.00  0.00    +0.186 C 
BRANCH  26  27
ATOM     27  O   UNL     1      28.084 -23.759 -15.129  0.00  0.00    -0.271 OA
BRANCH  27  28
ATOM     28  P   UNL     1      27.567 -22.617 -16.154  0.00  0.00    +0.473 P 
ATOM     29  O   UNL     1      26.626 -21.611 -15.558  0.00  0.00    -0.227 OA
BRANCH  28  30
ATOM     30  O   UNL     1      26.978 -23.460 -17.402  0.00  0.00    -0.303 OA
ATOM     31  H   UNL     1      26.028 -23.283 -17.492  0.00  0.00    +0.222 HD
ENDBRANCH  28  30
BRANCH  28  32
ATOM     32  O   UNL     1      28.944 -22.002 -16.736  0.00  0.00    -0.303 OA
ATOM     33  H   UNL     1      29.106 -22.358 -17.624  0.00  0.00    +0.222 HD
ENDBRANCH  28  32
ENDBRANCH  27  28
ENDBRANCH  26  27
ENDBRANCH   5  26
TORSDOF 8
ENDMDL
MODEL 5
REMARK VINA RESULT:     -10.5      4.605      6.724
REMARK  Name = 43860
REMARK  8 active torsions:
REMARK  status: ('A' for Active; 'I' for Inactive)
REMARK    1  A    between atoms: C_2  and  N_6
REMARK    2  A    between atoms: C_3  and  O_22
REMARK    3  A    between atoms: C_4  and  O_24
REMARK    4  A    between atoms: C_5  and  C_26
REMARK    5  A    between atoms: C_26  and  O_27
REMARK    6  A    between atoms: O_27  and  P_28
REMARK    7  A    between atoms: P_28  and  O_30
REMARK    8  A    between atoms: P_28  and  O_32
REMARK                            x       y       z     vdW  Elec       q    Type
REMARK                         _______ _______ _______ _____ _____    ______ ____
ROOT
ATOM      1  O   UNL     1      31.202 -23.990 -15.632  0.00  0.00    -0.333 OA
ATOM      2  C   UNL     1      32.566 -23.596 -15.382  0.00  0.00    +0.224 C 
ATOM      3  C   UNL     1      32.556 -22.860 -14.051  0.00  0.00    +0.187 C 
ATOM      4  C   UNL     1      31.477 -23.612 -13.297  0.00  0.00    +0.171 C 
ATOM      5  C   UNL     1      30.458 -23.904 -14.395  0.00  0.00    +0.176 C 
ENDROOT
BRANCH   2   6
ATOM      6  N   UNL     1      33.060 -22.798 -16.501  0.00  0.00    -0.265 N 
ATOM      7  N   UNL     1      35.451 -22.607 -15.927  0.00  0.00    -0.230 NA
ATOM      8  N   UNL     1      35.293 -20.415 -19.570  0.00  0.00    -0.192 N 
ATOM      9  N   UNL     1      34.031 -20.326 -20.183  0.00  0.00    -0.162 NA
ATOM     10  N   UNL     1      36.638 -21.282 -17.654  0.00  0.00    -0.228 NA
ATOM     11  N   UNL     1      31.703 -20.868 -20.159  0.00  0.00    -0.342 N 
ATOM     12  C   UNL     1      34.361 -22.391 -16.684  0.00  0.00    +0.133 C 
ATOM     13  C   UNL     1      32.273 -22.333 -17.553  0.00  0.00    +0.124 C 
ATOM     14  C   UNL     1      34.358 -21.679 -17.850  0.00  0.00    +0.065 C 
ATOM     15  C   UNL     1      33.088 -21.627 -18.406  0.00  0.00    +0.036 C 
ATOM     16  C   UNL     1      35.497 -21.104 -18.369  0.00  0.00    +0.150 C 
ATOM     17  C   UNL     1      32.970 -20.893 -19.648  0.00  0.00    +0.141 C 
ATOM     18  C   UNL     1      36.539 -22.011 -16.499  0.00  0.00    +0.253 C 
ATOM     19  C   UNL     1      36.414 -19.767 -20.213  0.00  0.00    +0.142 C 
ATOM     20  H   UNL     1      31.522 -20.394 -21.002  0.00  0.00    +0.144 HD
ATOM     21  H   UNL     1      30.971 -21.323 -19.684  0.00  0.00    +0.144 HD
ENDBRANCH   2   6
BRANCH   3  22
ATOM     22  O   UNL     1      33.815 -22.910 -13.412  0.00  0.00    -0.378 OA
ATOM     23  H   UNL     1      34.297 -23.698 -13.708  0.00  0.00    +0.211 HD
ENDBRANCH   3  22
BRANCH   4  24
ATOM     24  O   UNL     1      32.005 -24.849 -12.818  0.00  0.00    -0.379 OA
ATOM     25  H   UNL     1      32.793 -25.084 -13.333  0.00  0.00    +0.211 HD
ENDBRANCH   4  24
BRANCH   5  26
ATOM     26  C   UNL     1      29.411 -22.809 -14.539  0.00  0.00    +0.186 C 
BRANCH  26  27
ATOM     27  O   UNL     1      28.184 -23.403 -14.928  0.00  0.00    -0.271 OA
BRANCH  27  28
ATOM     28  P   UNL     1      27.448 -22.851 -16.260  0.00  0.00    +0.473 P 
ATOM     29  O   UNL     1      27.163 -23.891 -17.303  0.00  0.00    -0.227 OA
BRANCH  28  30
ATOM     30  O   UNL     1      28.392 -21.629 -16.742  0.00  0.00    -0.303 OA
ATOM     31  H   UNL     1      28.705 -21.799 -17.645  0.00  0.00    +0.222 HD
ENDBRANCH  28  30
BRANCH  28  32
ATOM     32  O   UNL     1      26.143 -22.102 -15.669  0.00  0.00    -0.303 OA
ATOM     33  H   UNL     1      26.408 -21.517 -14.941  0.00  0.00    +0.222 HD
ENDBRANCH  28  32
ENDBRANCH  27  28
ENDBRANCH  26  27
ENDBRANCH   5  26
TORSDOF 8
ENDMDL
MODEL 6
REMARK VINA RESULT:     -10.3      2.266      4.497
REMARK  Name = 43860
REMARK  8 active torsions:
REMARK  status: ('A' for Active; 'I' for Inactive)
REMARK    1  A    between atoms: C_2  and  N_6
REMARK    2  A    between atoms: C_3  and  O_22
REMARK    3  A    between atoms: C_4  and  O_24
REMARK    4  A    between atoms: C_5  and  C_26
REMARK    5  A    between atoms: C_26  and  O_27
REMARK    6  A    between atoms: O_27  and  P_28
REMARK    7  A    between atoms: P_28  and  O_30
REMARK    8  A    between atoms: P_28  and  O_32
REMARK                            x       y       z     vdW  Elec       q    Type
REMARK                         _______ _______ _______ _____ _____    ______ ____
ROOT
ATOM      1  O   UNL     1      35.909 -25.015 -14.845  0.00  0.00    -0.333 OA
ATOM      2  C   UNL     1      35.844 -23.667 -15.351  0.00  0.00    +0.224 C 
ATOM      3  C   UNL     1      36.488 -22.786 -14.291  0.00  0.00    +0.187 C 
ATOM      4  C   UNL     1      37.567 -23.702 -13.751  0.00  0.00    +0.171 C 
ATOM      5  C   UNL     1      36.878 -25.063 -13.772  0.00  0.00    +0.176 C 
ENDROOT
BRANCH   2   6
ATOM      6  N   UNL     1      34.457 -23.321 -15.653  0.00  0.00    -0.265 N 
ATOM      7  N   UNL     1      33.297 -24.265 -13.692  0.00  0.00    -0.230 NA
ATOM      8  N   UNL     1      30.036 -22.624 -15.879  0.00  0.00    -0.192 N 
ATOM      9  N   UNL     1      30.362 -21.990 -17.090  0.00  0.00    -0.162 NA
ATOM     10  N   UNL     1      30.858 -23.852 -13.866  0.00  0.00    -0.228 NA
ATOM     11  N   UNL     1      32.031 -21.327 -18.668  0.00  0.00    -0.342 N 
ATOM     12  C   UNL     1      33.367 -23.619 -14.868  0.00  0.00    +0.133 C 
ATOM     13  C   UNL     1      34.041 -22.633 -16.791  0.00  0.00    +0.124 C 
ATOM     14  C   UNL     1      32.290 -23.106 -15.536  0.00  0.00    +0.065 C 
ATOM     15  C   UNL     1      32.674 -22.495 -16.720  0.00  0.00    +0.036 C 
ATOM     16  C   UNL     1      31.004 -23.209 -15.053  0.00  0.00    +0.150 C 
ATOM     17  C   UNL     1      31.607 -21.917 -17.510  0.00  0.00    +0.141 C 
ATOM     18  C   UNL     1      31.997 -24.329 -13.275  0.00  0.00    +0.253 C 
ATOM     19  C   UNL     1      28.647 -22.668 -15.480  0.00  0.00    +0.142 C 
ATOM     20  H   UNL     1      31.379 -20.905 -19.272  0.00  0.00    +0.144 HD
ATOM     21  H   UNL     1      32.988 -21.324 -18.896  0.00  0.00    +0.144 HD
ENDBRANCH   2   6
BRANCH   3  22
ATOM     22  O   UNL     1      37.001 -21.589 -14.842  0.00  0.00    -0.378 OA
ATOM     23  H   UNL     1      36.353 -20.876 -14.728  0.00  0.00    +0.211 HD
ENDBRANCH   3  22
BRANCH   4  24
ATOM     24  O   UNL     1      38.668 -23.728 -14.660  0.00  0.00    -0.379 OA
ATOM     25  H   UNL     1      39.243 -24.480 -14.448  0.00  0.00    +0.211 HD
ENDBRANCH   4  24
BRANCH   5  26
ATOM     26  C   UNL     1      36.145 -25.378 -12.476  0.00  0.00    +0.186 C 
BRANCH  26  27
ATOM     27  O   UNL     1      36.669 -24.557 -11.447  0.00  0.00    -0.271 OA
BRANCH  27  28
ATOM     28  P   UNL     1      35.633 -23.772 -10.483  0.00  0.00    +0.473 P 
ATOM     29  O   UNL     1      35.001 -24.614  -9.413  0.00  0.00    -0.227 OA
BRANCH  28  30
ATOM     30  O   UNL     1      34.601 -23.076 -11.515  0.00  0.00    -0.303 OA
ATOM     31  H   UNL     1      33.947 -22.558 -11.019  0.00  0.00    +0.222 HD
ENDBRANCH  28  30
BRANCH  28  32
ATOM     32  O   UNL     1      36.513 -22.528  -9.942  0.00  0.00    -0.303 OA
ATOM     33  H   UNL     1      37.449 -22.683 -10.144  0.00  0.00    +0.222 HD
ENDBRANCH  28  32
ENDBRANCH  27  28
ENDBRANCH  26  27
ENDBRANCH   5  26
TORSDOF 8
ENDMDL
MODEL 7
REMARK VINA RESULT:     -10.0      2.876      4.726
REMARK  Name = 43860
REMARK  8 active torsions:
REMARK  status: ('A' for Active; 'I' for Inactive)
REMARK    1  A    between atoms: C_2  and  N_6
REMARK    2  A    between atoms: C_3  and  O_22
REMARK    3  A    between atoms: C_4  and  O_24
REMARK    4  A    between atoms: C_5  and  C_26
REMARK    5  A    between atoms: C_26  and  O_27
REMARK    6  A    between atoms: O_27  and  P_28
REMARK    7  A    between atoms: P_28  and  O_30
REMARK    8  A    between atoms: P_28  and  O_32
REMARK                            x       y       z     vdW  Elec       q    Type
REMARK                         _______ _______ _______ _____ _____    ______ ____
ROOT
ATOM      1  O   UNL     1      35.002 -23.516 -12.910  0.00  0.00    -0.333 OA
ATOM      2  C   UNL     1      34.430 -24.515 -13.776  0.00  0.00    +0.224 C 
ATOM      3  C   UNL     1      35.536 -24.927 -14.736  0.00  0.00    +0.187 C 
ATOM      4  C   UNL     1      36.761 -24.817 -13.849  0.00  0.00    +0.171 C 
ATOM      5  C   UNL     1      36.444 -23.585 -13.008  0.00  0.00    +0.176 C 
ENDROOT
BRANCH   2   6
ATOM      6  N   UNL     1      33.242 -23.975 -14.433  0.00  0.00    -0.265 N 
ATOM      7  N   UNL     1      31.482 -24.606 -12.824  0.00  0.00    -0.230 NA
ATOM      8  N   UNL     1      29.202 -22.608 -15.810  0.00  0.00    -0.192 N 
ATOM      9  N   UNL     1      29.924 -22.107 -16.906  0.00  0.00    -0.162 NA
ATOM     10  N   UNL     1      29.271 -23.828 -13.632  0.00  0.00    -0.228 NA
ATOM     11  N   UNL     1      32.025 -21.809 -18.008  0.00  0.00    -0.342 N 
ATOM     12  C   UNL     1      31.955 -24.050 -13.953  0.00  0.00    +0.133 C 
ATOM     13  C   UNL     1      33.248 -23.299 -15.652  0.00  0.00    +0.124 C 
ATOM     14  C   UNL     1      31.183 -23.417 -14.886  0.00  0.00    +0.065 C 
ATOM     15  C   UNL     1      31.951 -22.945 -15.940  0.00  0.00    +0.036 C 
ATOM     16  C   UNL     1      29.818 -23.287 -14.752  0.00  0.00    +0.150 C 
ATOM     17  C   UNL     1      31.230 -22.255 -16.990  0.00  0.00    +0.141 C 
ATOM     18  C   UNL     1      30.128 -24.441 -12.757  0.00  0.00    +0.253 C 
ATOM     19  C   UNL     1      27.770 -22.409 -15.784  0.00  0.00    +0.142 C 
ATOM     20  H   UNL     1      31.627 -21.327 -18.768  0.00  0.00    +0.144 HD
ATOM     21  H   UNL     1      32.996 -21.970 -17.981  0.00  0.00    +0.144 HD
ENDBRANCH   2   6
BRANCH   3  22
ATOM     22  O   UNL     1      35.335 -26.231 -15.243  0.00  0.00    -0.378 OA
ATOM     23  H   UNL     1      35.367 -26.870 -14.515  0.00  0.00    +0.211 HD
ENDBRANCH   3  22
BRANCH   4  24
ATOM     24  O   UNL     1      36.830 -25.956 -12.990  0.00  0.00    -0.379 OA
ATOM     25  H   UNL     1      36.413 -26.715 -13.427  0.00  0.00    +0.211 HD
ENDBRANCH   4  24
BRANCH   5  26
ATOM     26  C   UNL     1      36.944 -22.292 -13.637  0.00  0.00    +0.186 C 
BRANCH  26  27
ATOM     27  O   UNL     1      36.101 -21.962 -14.728  0.00  0.00    -0.271 OA
BRANCH  27  28
ATOM     28  P   UNL     1      36.772 -21.747 -16.185  0.00  0.00    +0.473 P 
ATOM     29  O   UNL     1      35.902 -22.130 -17.346  0.00  0.00    -0.227 OA
BRANCH  28  30
ATOM     30  O   UNL     1      38.177 -22.542 -16.082  0.00  0.00    -0.303 OA
ATOM     31  H   UNL     1      38.191 -23.260 -16.735  0.00  0.00    +0.222 HD
ENDBRANCH  28  30
BRANCH  28  32
ATOM     32  O   UNL     1      37.221 -20.194 -16.151  0.00  0.00    -0.303 OA
ATOM     33  H   UNL     1      37.666 -20.005 -15.310  0.00  0.00    +0.222 HD
ENDBRANCH  28  32
ENDBRANCH  27  28
ENDBRANCH  26  27
ENDBRANCH   5  26
TORSDOF 8
ENDMDL
MODEL 8
REMARK VINA RESULT:     -10.0      5.302      7.816
REMARK  Name = 43860
REMARK  8 active torsions:
REMARK  status: ('A' for Active; 'I' for Inactive)
REMARK    1  A    between atoms: C_2  and  N_6
REMARK    2  A    between atoms: C_3  and  O_22
REMARK    3  A    between atoms: C_4  and  O_24
REMARK    4  A    between atoms: C_5  and  C_26
REMARK    5  A    between atoms: C_26  and  O_27
REMARK    6  A    between atoms: O_27  and  P_28
REMARK    7  A    between atoms: P_28  and  O_30
REMARK    8  A    between atoms: P_28  and  O_32
REMARK                            x       y       z     vdW  Elec       q    Type
REMARK                         _______ _______ _______ _____ _____    ______ ____
ROOT
ATOM      1  O   UNL     1      30.236 -23.704 -15.676  0.00  0.00    -0.333 OA
ATOM      2  C   UNL     1      31.014 -24.320 -14.629  0.00  0.00    +0.224 C 
ATOM      3  C   UNL     1      30.261 -24.056 -13.333  0.00  0.00    +0.187 C 
ATOM      4  C   UNL     1      28.821 -24.109 -13.804  0.00  0.00    +0.171 C 
ATOM      5  C   UNL     1      28.903 -23.448 -15.176  0.00  0.00    +0.176 C 
ENDROOT
BRANCH   2   6
ATOM      6  N   UNL     1      32.373 -23.786 -14.648  0.00  0.00    -0.265 N 
ATOM      7  N   UNL     1      32.555 -23.036 -16.991  0.00  0.00    -0.230 NA
ATOM      8  N   UNL     1      36.390 -21.980 -15.479  0.00  0.00    -0.192 N 
ATOM      9  N   UNL     1      36.625 -22.281 -14.126  0.00  0.00    -0.162 NA
ATOM     10  N   UNL     1      34.792 -22.046 -17.396  0.00  0.00    -0.228 NA
ATOM     11  N   UNL     1      35.826 -23.191 -12.064  0.00  0.00    -0.342 N 
ATOM     12  C   UNL     1      33.001 -23.226 -15.737  0.00  0.00    +0.133 C 
ATOM     13  C   UNL     1      33.234 -23.768 -13.552  0.00  0.00    +0.124 C 
ATOM     14  C   UNL     1      34.244 -22.869 -15.295  0.00  0.00    +0.065 C 
ATOM     15  C   UNL     1      34.415 -23.191 -13.956  0.00  0.00    +0.036 C 
ATOM     16  C   UNL     1      35.175 -22.269 -16.113  0.00  0.00    +0.150 C 
ATOM     17  C   UNL     1      35.702 -22.856 -13.384  0.00  0.00    +0.141 C 
ATOM     18  C   UNL     1      33.527 -22.439 -17.743  0.00  0.00    +0.253 C 
ATOM     19  C   UNL     1      37.449 -21.349 -16.234  0.00  0.00    +0.142 C 
ATOM     20  H   UNL     1      36.665 -23.002 -11.586  0.00  0.00    +0.144 HD
ATOM     21  H   UNL     1      35.076 -23.620 -11.593  0.00  0.00    +0.144 HD
ENDBRANCH   2   6
BRANCH   3  22
ATOM     22  O   UNL     1      30.558 -25.024 -12.347  0.00  0.00    -0.378 OA
ATOM     23  H   UNL     1      31.260 -24.690 -11.767  0.00  0.00    +0.211 HD
ENDBRANCH   3  22
BRANCH   4  24
ATOM     24  O   UNL     1      28.426 -25.471 -13.972  0.00  0.00    -0.379 OA
ATOM     25  H   UNL     1      28.525 -25.942 -13.130  0.00  0.00    +0.211 HD
ENDBRANCH   4  24
BRANCH   5  26
ATOM     26  C   UNL     1      28.694 -21.941 -15.122  0.00  0.00    +0.186 C 
BRANCH  26  27
ATOM     27  O   UNL     1      28.136 -21.516 -16.354  0.00  0.00    -0.271 OA
BRANCH  27  28
ATOM     28  P   UNL     1      26.559 -21.769 -16.616  0.00  0.00    +0.473 P 
ATOM     29  O   UNL     1      25.752 -22.062 -15.385  0.00  0.00    -0.227 OA
BRANCH  28  30
ATOM     30  O   UNL     1      26.539 -22.925 -17.747  0.00  0.00    -0.303 OA
ATOM     31  H   UNL     1      26.411 -23.789 -17.324  0.00  0.00    +0.222 HD
ENDBRANCH  28  30
BRANCH  28  32
ATOM     32  O   UNL     1      26.110 -20.446 -17.428  0.00  0.00    -0.303 OA
ATOM     33  H   UNL     1      25.566 -19.883 -16.853  0.00  0.00    +0.222 HD
ENDBRANCH  28  32
ENDBRANCH  27  28
ENDBRANCH  26  27
ENDBRANCH   5  26
TORSDOF 8
ENDMDL
MODEL 9
REMARK VINA RESULT:      -9.9      1.914      3.211
REMARK  Name = 43860
REMARK  8 active torsions:
REMARK  status: ('A' for Active; 'I' for Inactive)
REMARK    1  A    between atoms: C_2  and  N_6
REMARK    2  A    between atoms: C_3  and  O_22
REMARK    3  A    between atoms: C_4  and  O_24
REMARK    4  A    between atoms: C_5  and  C_26
REMARK    5  A    between atoms: C_26  and  O_27
REMARK    6  A    between atoms: O_27  and  P_28
REMARK    7  A    between atoms: P_28  and  O_30
REMARK    8  A    between atoms: P_28  and  O_32
REMARK                            x       y       z     vdW  Elec       q    Type
REMARK                         _______ _______ _______ _____ _____    ______ ____
ROOT
ATOM      1  O   UNL     1      36.054 -23.362 -14.659  0.00  0.00    -0.333 OA
ATOM      2  C   UNL     1      35.191 -22.889 -13.606  0.00  0.00    +0.224 C 
ATOM      3  C   UNL     1      35.645 -23.596 -12.338  0.00  0.00    +0.187 C 
ATOM      4  C   UNL     1      37.140 -23.696 -12.567  0.00  0.00    +0.171 C 
ATOM      5  C   UNL     1      37.221 -23.975 -14.065  0.00  0.00    +0.176 C 
ENDROOT
BRANCH   2   6
ATOM      6  N   UNL     1      33.797 -23.141 -13.962  0.00  0.00    -0.265 N 
ATOM      7  N   UNL     1      33.765 -22.391 -16.311  0.00  0.00    -0.230 NA
ATOM      8  N   UNL     1      29.729 -23.630 -15.778  0.00  0.00    -0.192 N 
ATOM      9  N   UNL     1      29.399 -24.128 -14.506  0.00  0.00    -0.162 NA
ATOM     10  N   UNL     1      31.495 -22.683 -17.267  0.00  0.00    -0.228 NA
ATOM     11  N   UNL     1      30.082 -24.665 -12.279  0.00  0.00    -0.342 N 
ATOM     12  C   UNL     1      33.225 -22.896 -15.189  0.00  0.00    +0.133 C 
ATOM     13  C   UNL     1      32.841 -23.672 -13.098  0.00  0.00    +0.124 C 
ATOM     14  C   UNL     1      31.920 -23.282 -15.063  0.00  0.00    +0.065 C 
ATOM     15  C   UNL     1      31.656 -23.763 -13.789  0.00  0.00    +0.036 C 
ATOM     16  C   UNL     1      31.017 -23.186 -16.100  0.00  0.00    +0.150 C 
ATOM     17  C   UNL     1      30.297 -24.200 -13.546  0.00  0.00    +0.141 C 
ATOM     18  C   UNL     1      32.817 -22.325 -17.293  0.00  0.00    +0.253 C 
ATOM     19  C   UNL     1      28.692 -23.579 -16.784  0.00  0.00    +0.142 C 
ATOM     20  H   UNL     1      29.190 -24.986 -12.018  0.00  0.00    +0.144 HD
ATOM     21  H   UNL     1      30.821 -24.679 -11.628  0.00  0.00    +0.144 HD
ENDBRANCH   2   6
BRANCH   3  22
ATOM     22  O   UNL     1      35.311 -22.863 -11.177  0.00  0.00    -0.378 OA
ATOM     23  H   UNL     1      36.094 -22.776 -10.612  0.00  0.00    +0.211 HD
ENDBRANCH   3  22
BRANCH   4  24
ATOM     24  O   UNL     1      37.748 -22.433 -12.300  0.00  0.00    -0.379 OA
ATOM     25  H   UNL     1      37.081 -21.820 -11.953  0.00  0.00    +0.211 HD
ENDBRANCH   4  24
BRANCH   5  26
ATOM     26  C   UNL     1      37.203 -25.460 -14.395  0.00  0.00    +0.186 C 
BRANCH  26  27
ATOM     27  O   UNL     1      38.381 -26.055 -13.878  0.00  0.00    -0.271 OA
BRANCH  27  28
ATOM     28  P   UNL     1      39.812 -25.443 -14.321  0.00  0.00    +0.473 P 
ATOM     29  O   UNL     1      40.142 -24.106 -13.723  0.00  0.00    -0.227 OA
BRANCH  28  30
ATOM     30  O   UNL     1      39.763 -25.484 -15.937  0.00  0.00    -0.303 OA
ATOM     31  H   UNL     1      40.399 -26.140 -16.263  0.00  0.00    +0.222 HD
ENDBRANCH  28  30
BRANCH  28  32
ATOM     32  O   UNL     1      40.844 -26.630 -13.950  0.00  0.00    -0.303 OA
ATOM     33  H   UNL     1      40.543 -27.081 -13.145  0.00  0.00    +0.222 HD
ENDBRANCH  28  32
ENDBRANCH  27  28
ENDBRANCH  26  27
ENDBRANCH   5  26
TORSDOF 8
ENDMDL
