MODEL 1
REMARK VINA RESULT:     -11.6      0.000      0.000
REMARK  Name = 54727985
REMARK  7 active torsions:
REMARK  status: ('A' for Active; 'I' for Inactive)
REMARK    1  A    between atoms: C_1  and  C_7
REMARK    2  A    between atoms: C_4  and  N_17
REMARK    3  A    between atoms: C_10  and  O_13
REMARK    4  A    between atoms: O_13  and  C_14
REMARK    5  A    between atoms: C_18  and  C_20
REMARK    6  A    between atoms: C_20  and  C_26
REMARK    7  A    between atoms: C_21  and  O_23
REMARK                            x       y       z     vdW  Elec       q    Type
REMARK                         _______ _______ _______ _____ _____    ______ ____
ROOT
ATOM      1  C   UNL     1      34.524 -19.439 -20.878  0.00  0.00    +0.000 C 
ATOM      2  C   UNL     1      33.436 -20.075 -20.282  0.00  0.00    +0.001 C 
ATOM      3  C   UNL     1      35.812 -19.650 -20.385  0.00  0.00    +0.001 C 
ATOM      4  C   UNL     1      34.923 -21.137 -18.701  0.00  0.00    +0.051 C 
ATOM      5  C   UNL     1      33.635 -20.925 -19.194  0.00  0.00    +0.015 C 
ATOM      6  C   UNL     1      36.011 -20.500 -19.298  0.00  0.00    +0.015 C 
ENDROOT
BRANCH   1   7
ATOM      7  C   UNL     1      34.318 -18.557 -22.006  0.00  0.00    +0.003 C 
ATOM      8  C   UNL     1      34.651 -17.206 -21.908  0.00  0.00    +0.037 C 
ATOM      9  C   UNL     1      33.784 -19.058 -23.194  0.00  0.00    +0.000 C 
ATOM     10  C   UNL     1      34.451 -16.356 -22.996  0.00  0.00    +0.139 C 
ATOM     11  C   UNL     1      33.584 -18.209 -24.282  0.00  0.00    +0.003 C 
ATOM     12  C   UNL     1      33.918 -16.858 -24.183  0.00  0.00    +0.037 C 
BRANCH  10  13
ATOM     13  O   UNL     1      34.777 -15.039 -22.898  0.00  0.00    -0.475 OA
BRANCH  13  14
ATOM     14  C   UNL     1      33.717 -14.128 -22.612  0.00  0.00    +0.206 C 
ATOM     15  C   UNL     1      33.740 -13.790 -21.138  0.00  0.00    +0.051 C 
ENDBRANCH  13  14
ENDBRANCH  10  13
ENDBRANCH   1   7
BRANCH   4  17
ATOM     16  O   UNL     1      36.682 -20.821 -16.297  0.00  0.00    -0.269 OA
ATOM     17  N   UNL     1      35.126 -22.000 -17.596  0.00  0.00    -0.280 N 
ATOM     18  C   UNL     1      35.961 -21.791 -16.506  0.00  0.00    +0.262 C 
ATOM     19  H   UNL     1      34.617 -22.842 -17.601  0.00  0.00    +0.155 HD
BRANCH  18  20
ATOM     20  C   UNL     1      35.916 -22.933 -15.522  0.00  0.00    +0.151 C 
ATOM     21  C   UNL     1      37.076 -23.495 -15.127  0.00  0.00    +0.126 C 
ATOM     22  C   UNL     1      37.202 -24.648 -14.169  0.00  0.00    +0.072 C 
BRANCH  21  23
ATOM     23  O   UNL     1      38.294 -23.010 -15.579  0.00  0.00    -0.509 OA
ATOM     24  H   UNL     1      38.545 -23.134 -16.473  0.00  0.00    +0.292 HD
ENDBRANCH  21  23
BRANCH  20  26
ATOM     25  N   UNL     1      33.623 -23.769 -14.662  0.00  0.00    -0.191 NA
ATOM     26  C   UNL     1      34.650 -23.396 -15.053  0.00  0.00    +0.108 C 
ENDBRANCH  20  26
ENDBRANCH  18  20
ENDBRANCH   4  17
TORSDOF 7
ENDMDL
MODEL 2
REMARK VINA RESULT:     -10.9      1.503      2.008
REMARK  Name = 54727985
REMARK  7 active torsions:
REMARK  status: ('A' for Active; 'I' for Inactive)
REMARK    1  A    between atoms: C_1  and  C_7
REMARK    2  A    between atoms: C_4  and  N_17
REMARK    3  A    between atoms: C_10  and  O_13
REMARK    4  A    between atoms: O_13  and  C_14
REMARK    5  A    between atoms: C_18  and  C_20
REMARK    6  A    between atoms: C_20  and  C_26
REMARK    7  A    between atoms: C_21  and  O_23
REMARK                            x       y       z     vdW  Elec       q    Type
REMARK                         _______ _______ _______ _____ _____    ______ ____
ROOT
ATOM      1  C   UNL     1      34.045 -19.781 -20.594  0.00  0.00    +0.000 C 
ATOM      2  C   UNL     1      32.813 -20.152 -20.058  0.00  0.00    +0.001 C 
ATOM      3  C   UNL     1      35.225 -20.284 -20.045  0.00  0.00    +0.001 C 
ATOM      4  C   UNL     1      33.938 -21.531 -18.425  0.00  0.00    +0.051 C 
ATOM      5  C   UNL     1      32.758 -21.027 -18.973  0.00  0.00    +0.015 C 
ATOM      6  C   UNL     1      35.171 -21.160 -18.961  0.00  0.00    +0.015 C 
ENDROOT
BRANCH   1   7
ATOM      7  C   UNL     1      34.101 -18.872 -21.719  0.00  0.00    +0.003 C 
ATOM      8  C   UNL     1      34.475 -17.542 -21.525  0.00  0.00    +0.037 C 
ATOM      9  C   UNL     1      33.781 -19.326 -22.999  0.00  0.00    +0.000 C 
ATOM     10  C   UNL     1      34.528 -16.667 -22.609  0.00  0.00    +0.139 C 
ATOM     11  C   UNL     1      33.835 -18.451 -24.083  0.00  0.00    +0.003 C 
ATOM     12  C   UNL     1      34.208 -17.121 -23.888  0.00  0.00    +0.037 C 
BRANCH  10  13
ATOM     13  O   UNL     1      34.893 -15.369 -22.418  0.00  0.00    -0.475 OA
BRANCH  13  14
ATOM     14  C   UNL     1      33.842 -14.416 -22.263  0.00  0.00    +0.206 C 
ATOM     15  C   UNL     1      33.705 -14.068 -20.797  0.00  0.00    +0.051 C 
ENDBRANCH  13  14
ENDBRANCH  10  13
ENDBRANCH   1   7
BRANCH   4  17
ATOM     16  O   UNL     1      35.666 -21.694 -15.983  0.00  0.00    -0.269 OA
ATOM     17  N   UNL     1      33.884 -22.420 -17.323  0.00  0.00    -0.280 N 
ATOM     18  C   UNL     1      34.721 -22.441 -16.214  0.00  0.00    +0.262 C 
ATOM     19  H   UNL     1      33.172 -23.099 -17.345  0.00  0.00    +0.155 HD
BRANCH  18  20
ATOM     20  C   UNL     1      34.357 -23.533 -15.242  0.00  0.00    +0.151 C 
ATOM     21  C   UNL     1      33.275 -23.369 -14.455  0.00  0.00    +0.126 C 
ATOM     22  C   UNL     1      32.790 -24.351 -13.425  0.00  0.00    +0.072 C 
BRANCH  21  23
ATOM     23  O   UNL     1      32.482 -22.236 -14.562  0.00  0.00    -0.509 OA
ATOM     24  H   UNL     1      32.808 -21.406 -14.275  0.00  0.00    +0.292 HD
ENDBRANCH  21  23
BRANCH  20  26
ATOM     25  N   UNL     1      35.841 -25.650 -15.099  0.00  0.00    -0.191 NA
ATOM     26  C   UNL     1      35.176 -24.701 -15.169  0.00  0.00    +0.108 C 
ENDBRANCH  20  26
ENDBRANCH  18  20
ENDBRANCH   4  17
TORSDOF 7
ENDMDL
MODEL 3
REMARK VINA RESULT:     -10.6      2.304      9.168
REMARK  Name = 54727985
REMARK  7 active torsions:
REMARK  status: ('A' for Active; 'I' for Inactive)
REMARK    1  A    between atoms: C_1  and  C_7
REMARK    2  A    between atoms: C_4  and  N_17
REMARK    3  A    between atoms: C_10  and  O_13
REMARK    4  A    between atoms: O_13  and  C_14
REMARK    5  A    between atoms: C_18  and  C_20
REMARK    6  A    between atoms: C_20  and  C_26
REMARK    7  A    between atoms: C_21  and  O_23
REMARK                            x       y       z     vdW  Elec       q    Type
REMARK                         _______ _______ _______ _____ _____    ______ ____
ROOT
ATOM      1  C   UNL     1      34.902 -21.622 -17.810  0.00  0.00    +0.000 C 
ATOM      2  C   UNL     1      35.984 -20.997 -18.429  0.00  0.00    +0.001 C 
ATOM      3  C   UNL     1      33.623 -21.502 -18.355  0.00  0.00    +0.001 C 
ATOM      4  C   UNL     1      34.510 -20.134 -20.137  0.00  0.00    +0.051 C 
ATOM      5  C   UNL     1      35.789 -20.254 -19.592  0.00  0.00    +0.015 C 
ATOM      6  C   UNL     1      33.428 -20.759 -19.519  0.00  0.00    +0.015 C 
ENDROOT
BRANCH   1   7
ATOM      7  C   UNL     1      35.105 -22.393 -16.603  0.00  0.00    +0.003 C 
ATOM      8  C   UNL     1      36.377 -22.485 -16.038  0.00  0.00    +0.037 C 
ATOM      9  C   UNL     1      34.026 -23.045 -16.003  0.00  0.00    +0.000 C 
ATOM     10  C   UNL     1      36.571 -23.228 -14.874  0.00  0.00    +0.139 C 
ATOM     11  C   UNL     1      34.221 -23.788 -14.838  0.00  0.00    +0.003 C 
ATOM     12  C   UNL     1      35.494 -23.880 -14.274  0.00  0.00    +0.037 C 
BRANCH  10  13
ATOM     13  O   UNL     1      37.813 -23.317 -14.324  0.00  0.00    -0.475 OA
BRANCH  13  14
ATOM     14  C   UNL     1      38.337 -24.627 -14.113  0.00  0.00    +0.206 C 
ATOM     15  C   UNL     1      39.778 -24.662 -14.572  0.00  0.00    +0.051 C 
ENDBRANCH  13  14
ENDBRANCH  10  13
ENDBRANCH   1   7
BRANCH   4  17
ATOM     16  O   UNL     1      35.184 -17.279 -20.746  0.00  0.00    -0.269 OA
ATOM     17  N   UNL     1      34.311 -19.379 -21.319  0.00  0.00    -0.280 N 
ATOM     18  C   UNL     1      34.650 -18.049 -21.537  0.00  0.00    +0.262 C 
ATOM     19  H   UNL     1      33.884 -19.849 -22.071  0.00  0.00    +0.155 HD
BRANCH  18  20
ATOM     20  C   UNL     1      34.285 -17.585 -22.923  0.00  0.00    +0.151 C 
ATOM     21  C   UNL     1      34.295 -16.263 -23.189  0.00  0.00    +0.126 C 
ATOM     22  C   UNL     1      33.940 -15.637 -24.510  0.00  0.00    +0.072 C 
BRANCH  21  23
ATOM     23  O   UNL     1      34.675 -15.345 -22.222  0.00  0.00    -0.509 OA
ATOM     24  H   UNL     1      34.833 -15.628 -21.343  0.00  0.00    +0.292 HD
ENDBRANCH  21  23
BRANCH  20  26
ATOM     25  N   UNL     1      33.623 -19.347 -24.701  0.00  0.00    -0.191 NA
ATOM     26  C   UNL     1      33.921 -18.553 -23.908  0.00  0.00    +0.108 C 
ENDBRANCH  20  26
ENDBRANCH  18  20
ENDBRANCH   4  17
TORSDOF 7
ENDMDL
MODEL 4
REMARK VINA RESULT:     -10.6      3.498      4.489
REMARK  Name = 54727985
REMARK  7 active torsions:
REMARK  status: ('A' for Active; 'I' for Inactive)
REMARK    1  A    between atoms: C_1  and  C_7
REMARK    2  A    between atoms: C_4  and  N_17
REMARK    3  A    between atoms: C_10  and  O_13
REMARK    4  A    between atoms: O_13  and  C_14
REMARK    5  A    between atoms: C_18  and  C_20
REMARK    6  A    between atoms: C_20  and  C_26
REMARK    7  A    between atoms: C_21  and  O_23
REMARK                            x       y       z     vdW  Elec       q    Type
REMARK                         _______ _______ _______ _____ _____    ______ ____
ROOT
ATOM      1  C   UNL     1      33.950 -20.510 -19.599  0.00  0.00    +0.000 C 
ATOM      2  C   UNL     1      32.558 -20.489 -19.509  0.00  0.00    +0.001 C 
ATOM      3  C   UNL     1      34.693 -21.309 -18.729  0.00  0.00    +0.001 C 
ATOM      4  C   UNL     1      32.652 -22.067 -17.682  0.00  0.00    +0.051 C 
ATOM      5  C   UNL     1      31.909 -21.268 -18.551  0.00  0.00    +0.015 C 
ATOM      6  C   UNL     1      34.044 -22.088 -17.771  0.00  0.00    +0.015 C 
ENDROOT
BRANCH   1   7
ATOM      7  C   UNL     1      34.623 -19.702 -20.592  0.00  0.00    +0.003 C 
ATOM      8  C   UNL     1      33.902 -19.157 -21.655  0.00  0.00    +0.037 C 
ATOM      9  C   UNL     1      35.995 -19.467 -20.487  0.00  0.00    +0.000 C 
ATOM     10  C   UNL     1      34.552 -18.378 -22.612  0.00  0.00    +0.139 C 
ATOM     11  C   UNL     1      36.645 -18.688 -21.444  0.00  0.00    +0.003 C 
ATOM     12  C   UNL     1      35.923 -18.144 -22.507  0.00  0.00    +0.037 C 
BRANCH  10  13
ATOM     13  O   UNL     1      33.847 -17.847 -23.648  0.00  0.00    -0.475 OA
BRANCH  13  14
ATOM     14  C   UNL     1      34.202 -16.529 -24.066  0.00  0.00    +0.206 C 
ATOM     15  C   UNL     1      34.087 -15.590 -22.885  0.00  0.00    +0.051 C 
ENDBRANCH  13  14
ENDBRANCH  10  13
ENDBRANCH   1   7
BRANCH   4  17
ATOM     16  O   UNL     1      29.843 -21.924 -16.650  0.00  0.00    -0.269 OA
ATOM     17  N   UNL     1      31.994 -22.858 -16.708  0.00  0.00    -0.280 N 
ATOM     18  C   UNL     1      30.679 -22.739 -16.274  0.00  0.00    +0.262 C 
ATOM     19  H   UNL     1      32.527 -23.573 -16.293  0.00  0.00    +0.155 HD
BRANCH  18  20
ATOM     20  C   UNL     1      30.329 -23.760 -15.223  0.00  0.00    +0.151 C 
ATOM     21  C   UNL     1      29.127 -24.369 -15.284  0.00  0.00    +0.126 C 
ATOM     22  C   UNL     1      28.619 -25.394 -14.307  0.00  0.00    +0.072 C 
BRANCH  21  23
ATOM     23  O   UNL     1      28.242 -24.096 -16.316  0.00  0.00    -0.509 OA
ATOM     24  H   UNL     1      27.333 -24.302 -16.221  0.00  0.00    +0.292 HD
ENDBRANCH  21  23
BRANCH  20  26
ATOM     25  N   UNL     1      32.024 -24.273 -13.335  0.00  0.00    -0.191 NA
ATOM     26  C   UNL     1      31.268 -24.041 -14.184  0.00  0.00    +0.108 C 
ENDBRANCH  20  26
ENDBRANCH  18  20
ENDBRANCH   4  17
TORSDOF 7
ENDMDL
MODEL 5
REMARK VINA RESULT:     -10.3      6.530     12.177
REMARK  Name = 54727985
REMARK  7 active torsions:
REMARK  status: ('A' for Active; 'I' for Inactive)
REMARK    1  A    between atoms: C_1  and  C_7
REMARK    2  A    between atoms: C_4  and  N_17
REMARK    3  A    between atoms: C_10  and  O_13
REMARK    4  A    between atoms: O_13  and  C_14
REMARK    5  A    between atoms: C_18  and  C_20
REMARK    6  A    between atoms: C_20  and  C_26
REMARK    7  A    between atoms: C_21  and  O_23
REMARK                            x       y       z     vdW  Elec       q    Type
REMARK                         _______ _______ _______ _____ _____    ______ ____
ROOT
ATOM      1  C   UNL     1      33.169 -13.214 -22.651  0.00  0.00    +0.000 C 
ATOM      2  C   UNL     1      33.452 -12.276 -23.644  0.00  0.00    +0.001 C 
ATOM      3  C   UNL     1      32.412 -12.845 -21.539  0.00  0.00    +0.001 C 
ATOM      4  C   UNL     1      32.218 -10.602 -22.414  0.00  0.00    +0.051 C 
ATOM      5  C   UNL     1      32.976 -10.970 -23.526  0.00  0.00    +0.015 C 
ATOM      6  C   UNL     1      31.935 -11.540 -21.421  0.00  0.00    +0.015 C 
ENDROOT
BRANCH   1   7
ATOM      7  C   UNL     1      33.663 -14.568 -22.773  0.00  0.00    +0.003 C 
ATOM      8  C   UNL     1      34.218 -15.212 -21.667  0.00  0.00    +0.037 C 
ATOM      9  C   UNL     1      33.585 -15.230 -23.999  0.00  0.00    +0.000 C 
ATOM     10  C   UNL     1      34.694 -16.518 -21.786  0.00  0.00    +0.139 C 
ATOM     11  C   UNL     1      34.062 -16.536 -24.118  0.00  0.00    +0.003 C 
ATOM     12  C   UNL     1      34.616 -17.179 -23.011  0.00  0.00    +0.037 C 
BRANCH  10  13
ATOM     13  O   UNL     1      35.234 -17.144 -20.705  0.00  0.00    -0.475 OA
BRANCH  13  14
ATOM     14  C   UNL     1      36.063 -18.278 -20.960  0.00  0.00    +0.206 C 
ATOM     15  C   UNL     1      35.331 -19.530 -20.529  0.00  0.00    +0.051 C 
ENDBRANCH  13  14
ENDBRANCH  10  13
ENDBRANCH   1   7
BRANCH   4  17
ATOM     16  O   UNL     1      33.552  -7.992 -23.036  0.00  0.00    -0.269 OA
ATOM     17  N   UNL     1      31.735  -9.276 -22.294  0.00  0.00    -0.280 N 
ATOM     18  C   UNL     1      32.409  -8.101 -22.603  0.00  0.00    +0.262 C 
ATOM     19  H   UNL     1      30.817  -9.175 -21.953  0.00  0.00    +0.155 HD
BRANCH  18  20
ATOM     20  C   UNL     1      31.572  -6.875 -22.345  0.00  0.00    +0.151 C 
ATOM     21  C   UNL     1      31.426  -6.443 -21.076  0.00  0.00    +0.126 C 
ATOM     22  C   UNL     1      30.613  -5.251 -20.650  0.00  0.00    +0.072 C 
BRANCH  21  23
ATOM     23  O   UNL     1      32.066  -7.085 -20.027  0.00  0.00    -0.509 OA
ATOM     24  H   UNL     1      32.019  -6.730 -19.161  0.00  0.00    +0.292 HD
ENDBRANCH  21  23
BRANCH  20  26
ATOM     25  N   UNL     1      30.443  -5.684 -24.347  0.00  0.00    -0.191 NA
ATOM     26  C   UNL     1      30.945  -6.217 -23.446  0.00  0.00    +0.108 C 
ENDBRANCH  20  26
ENDBRANCH  18  20
ENDBRANCH   4  17
TORSDOF 7
ENDMDL
MODEL 6
REMARK VINA RESULT:     -10.3      5.548     11.204
REMARK  Name = 54727985
REMARK  7 active torsions:
REMARK  status: ('A' for Active; 'I' for Inactive)
REMARK    1  A    between atoms: C_1  and  C_7
REMARK    2  A    between atoms: C_4  and  N_17
REMARK    3  A    between atoms: C_10  and  O_13
REMARK    4  A    between atoms: O_13  and  C_14
REMARK    5  A    between atoms: C_18  and  C_20
REMARK    6  A    between atoms: C_20  and  C_26
REMARK    7  A    between atoms: C_21  and  O_23
REMARK                            x       y       z     vdW  Elec       q    Type
REMARK                         _______ _______ _______ _____ _____    ______ ____
ROOT
ATOM      1  C   UNL     1      33.763 -15.016 -23.203  0.00  0.00    +0.000 C 
ATOM      2  C   UNL     1      33.284 -14.474 -24.395  0.00  0.00    +0.001 C 
ATOM      3  C   UNL     1      34.030 -14.184 -22.116  0.00  0.00    +0.001 C 
ATOM      4  C   UNL     1      33.336 -12.267 -23.412  0.00  0.00    +0.051 C 
ATOM      5  C   UNL     1      33.070 -13.100 -24.500  0.00  0.00    +0.015 C 
ATOM      6  C   UNL     1      33.815 -12.810 -22.220  0.00  0.00    +0.015 C 
ENDROOT
BRANCH   1   7
ATOM      7  C   UNL     1      33.986 -16.441 -23.095  0.00  0.00    +0.003 C 
ATOM      8  C   UNL     1      34.501 -16.981 -21.916  0.00  0.00    +0.037 C 
ATOM      9  C   UNL     1      33.686 -17.278 -24.171  0.00  0.00    +0.000 C 
ATOM     10  C   UNL     1      34.716 -18.355 -21.813  0.00  0.00    +0.139 C 
ATOM     11  C   UNL     1      33.901 -18.652 -24.068  0.00  0.00    +0.003 C 
ATOM     12  C   UNL     1      34.416 -19.190 -22.888  0.00  0.00    +0.037 C 
BRANCH  10  13
ATOM     13  O   UNL     1      35.218 -18.880 -20.661  0.00  0.00    -0.475 OA
BRANCH  13  14
ATOM     14  C   UNL     1      34.671 -20.122 -20.222  0.00  0.00    +0.206 C 
ATOM     15  C   UNL     1      35.723 -20.874 -19.436  0.00  0.00    +0.051 C 
ENDBRANCH  13  14
ENDBRANCH  10  13
ENDBRANCH   1   7
BRANCH   4  17
ATOM     16  O   UNL     1      31.539 -10.463 -21.833  0.00  0.00    -0.269 OA
ATOM     17  N   UNL     1      33.118 -10.872 -23.518  0.00  0.00    -0.280 N 
ATOM     18  C   UNL     1      32.266 -10.090 -22.748  0.00  0.00    +0.262 C 
ATOM     19  H   UNL     1      33.630 -10.402 -24.216  0.00  0.00    +0.155 HD
BRANCH  18  20
ATOM     20  C   UNL     1      32.299  -8.638 -23.151  0.00  0.00    +0.151 C 
ATOM     21  C   UNL     1      33.489  -8.069 -23.431  0.00  0.00    +0.126 C 
ATOM     22  C   UNL     1      33.695  -6.633 -23.829  0.00  0.00    +0.072 C 
BRANCH  21  23
ATOM     23  O   UNL     1      34.660  -8.810 -23.393  0.00  0.00    -0.509 OA
ATOM     24  H   UNL     1      34.822  -9.395 -22.679  0.00  0.00    +0.292 HD
ENDBRANCH  21  23
BRANCH  20  26
ATOM     25  N   UNL     1      30.081  -7.307 -23.242  0.00  0.00    -0.191 NA
ATOM     26  C   UNL     1      31.076  -7.904 -23.207  0.00  0.00    +0.108 C 
ENDBRANCH  20  26
ENDBRANCH  18  20
ENDBRANCH   4  17
TORSDOF 7
ENDMDL
MODEL 7
REMARK VINA RESULT:     -10.3      5.536     10.986
REMARK  Name = 54727985
REMARK  7 active torsions:
REMARK  status: ('A' for Active; 'I' for Inactive)
REMARK    1  A    between atoms: C_1  and  C_7
REMARK    2  A    between atoms: C_4  and  N_17
REMARK    3  A    between atoms: C_10  and  O_13
REMARK    4  A    between atoms: O_13  and  C_14
REMARK    5  A    between atoms: C_18  and  C_20
REMARK    6  A    between atoms: C_20  and  C_26
REMARK    7  A    between atoms: C_21  and  O_23
REMARK                            x       y       z     vdW  Elec       q    Type
REMARK                         _______ _______ _______ _____ _____    ______ ____
ROOT
ATOM      1  C   UNL     1      33.747 -14.918 -22.605  0.00  0.00    +0.000 C 
ATOM      2  C   UNL     1      33.817 -14.244 -21.386  0.00  0.00    +0.001 C 
ATOM      3  C   UNL     1      33.321 -14.245 -23.750  0.00  0.00    +0.001 C 
ATOM      4  C   UNL     1      33.035 -12.225 -22.457  0.00  0.00    +0.051 C 
ATOM      5  C   UNL     1      33.461 -12.898 -21.312  0.00  0.00    +0.015 C 
ATOM      6  C   UNL     1      32.966 -12.899 -23.677  0.00  0.00    +0.015 C 
ENDROOT
BRANCH   1   7
ATOM      7  C   UNL     1      34.116 -16.315 -22.682  0.00  0.00    +0.003 C 
ATOM      8  C   UNL     1      34.639 -16.962 -21.562  0.00  0.00    +0.037 C 
ATOM      9  C   UNL     1      33.948 -17.016 -23.877  0.00  0.00    +0.000 C 
ATOM     10  C   UNL     1      34.994 -18.309 -21.637  0.00  0.00    +0.139 C 
ATOM     11  C   UNL     1      34.302 -18.363 -23.951  0.00  0.00    +0.003 C 
ATOM     12  C   UNL     1      34.826 -19.009 -22.831  0.00  0.00    +0.037 C 
BRANCH  10  13
ATOM     13  O   UNL     1      35.504 -18.939 -20.544  0.00  0.00    -0.475 OA
BRANCH  13  14
ATOM     14  C   UNL     1      34.888 -20.166 -20.156  0.00  0.00    +0.206 C 
ATOM     15  C   UNL     1      35.790 -20.882 -19.174  0.00  0.00    +0.051 C 
ENDBRANCH  13  14
ENDBRANCH  10  13
ENDBRANCH   1   7
BRANCH   4  17
ATOM     16  O   UNL     1      30.522 -10.940 -21.453  0.00  0.00    -0.269 OA
ATOM     17  N   UNL     1      32.673 -10.858 -22.383  0.00  0.00    -0.280 N 
ATOM     18  C   UNL     1      31.483 -10.325 -21.902  0.00  0.00    +0.262 C 
ATOM     19  H   UNL     1      33.340 -10.211 -22.708  0.00  0.00    +0.155 HD
BRANCH  18  20
ATOM     20  C   UNL     1      31.457  -8.820 -21.979  0.00  0.00    +0.151 C 
ATOM     21  C   UNL     1      31.480  -8.110 -20.832  0.00  0.00    +0.126 C 
ATOM     22  C   UNL     1      31.440  -6.610 -20.736  0.00  0.00    +0.072 C 
BRANCH  21  23
ATOM     23  O   UNL     1      31.569  -8.746 -19.603  0.00  0.00    -0.509 OA
ATOM     24  H   UNL     1      31.265  -9.626 -19.507  0.00  0.00    +0.292 HD
ENDBRANCH  21  23
BRANCH  20  26
ATOM     25  N   UNL     1      31.331  -7.669 -24.294  0.00  0.00    -0.191 NA
ATOM     26  C   UNL     1      31.390  -8.190 -23.258  0.00  0.00    +0.108 C 
ENDBRANCH  20  26
ENDBRANCH  18  20
ENDBRANCH   4  17
TORSDOF 7
ENDMDL
MODEL 8
REMARK VINA RESULT:     -10.2      6.044     10.301
REMARK  Name = 54727985
REMARK  7 active torsions:
REMARK  status: ('A' for Active; 'I' for Inactive)
REMARK    1  A    between atoms: C_1  and  C_7
REMARK    2  A    between atoms: C_4  and  N_17
REMARK    3  A    between atoms: C_10  and  O_13
REMARK    4  A    between atoms: O_13  and  C_14
REMARK    5  A    between atoms: C_18  and  C_20
REMARK    6  A    between atoms: C_20  and  C_26
REMARK    7  A    between atoms: C_21  and  O_23
REMARK                            x       y       z     vdW  Elec       q    Type
REMARK                         _______ _______ _______ _____ _____    ______ ____
ROOT
ATOM      1  C   UNL     1      32.027  -9.927 -22.371  0.00  0.00    +0.000 C 
ATOM      2  C   UNL     1      33.014 -10.206 -23.316  0.00  0.00    +0.001 C 
ATOM      3  C   UNL     1      31.472 -10.959 -21.615  0.00  0.00    +0.001 C 
ATOM      4  C   UNL     1      32.894 -12.551 -22.747  0.00  0.00    +0.051 C 
ATOM      5  C   UNL     1      33.448 -11.518 -23.504  0.00  0.00    +0.015 C 
ATOM      6  C   UNL     1      31.907 -12.271 -21.802  0.00  0.00    +0.015 C 
ENDROOT
BRANCH   1   7
ATOM      7  C   UNL     1      31.576  -8.566 -22.178  0.00  0.00    +0.003 C 
ATOM      8  C   UNL     1      31.165  -7.803 -23.271  0.00  0.00    +0.037 C 
ATOM      9  C   UNL     1      31.552  -8.015 -20.896  0.00  0.00    +0.000 C 
ATOM     10  C   UNL     1      30.730  -6.491 -23.083  0.00  0.00    +0.139 C 
ATOM     11  C   UNL     1      31.117  -6.703 -20.708  0.00  0.00    +0.003 C 
ATOM     12  C   UNL     1      30.707  -5.941 -21.802  0.00  0.00    +0.037 C 
BRANCH  10  13
ATOM     13  O   UNL     1      30.330  -5.749 -24.151  0.00  0.00    -0.475 OA
BRANCH  13  14
ATOM     14  C   UNL     1      31.266  -4.808 -24.675  0.00  0.00    +0.206 C 
ATOM     15  C   UNL     1      31.867  -5.366 -25.947  0.00  0.00    +0.051 C 
ENDBRANCH  13  14
ENDBRANCH  10  13
ENDBRANCH   1   7
BRANCH   4  17
ATOM     16  O   UNL     1      34.215 -14.444 -20.837  0.00  0.00    -0.269 OA
ATOM     17  N   UNL     1      33.335 -13.884 -22.937  0.00  0.00    -0.280 N 
ATOM     18  C   UNL     1      33.943 -14.713 -22.002  0.00  0.00    +0.262 C 
ATOM     19  H   UNL     1      33.193 -14.266 -23.832  0.00  0.00    +0.155 HD
BRANCH  18  20
ATOM     20  C   UNL     1      34.273 -16.070 -22.568  0.00  0.00    +0.151 C 
ATOM     21  C   UNL     1      34.791 -17.007 -21.749  0.00  0.00    +0.126 C 
ATOM     22  C   UNL     1      35.189 -18.398 -22.159  0.00  0.00    +0.072 C 
BRANCH  21  23
ATOM     23  O   UNL     1      34.981 -16.747 -20.400  0.00  0.00    -0.509 OA
ATOM     24  H   UNL     1      35.770 -16.335 -20.108  0.00  0.00    +0.292 HD
ENDBRANCH  21  23
BRANCH  20  26
ATOM     25  N   UNL     1      33.850 -16.529 -25.081  0.00  0.00    -0.191 NA
ATOM     26  C   UNL     1      34.044 -16.319 -23.955  0.00  0.00    +0.108 C 
ENDBRANCH  20  26
ENDBRANCH  18  20
ENDBRANCH   4  17
TORSDOF 7
ENDMDL
MODEL 9
REMARK VINA RESULT:     -10.1      6.369     12.272
REMARK  Name = 54727985
REMARK  7 active torsions:
REMARK  status: ('A' for Active; 'I' for Inactive)
REMARK    1  A    between atoms: C_1  and  C_7
REMARK    2  A    between atoms: C_4  and  N_17
REMARK    3  A    between atoms: C_10  and  O_13
REMARK    4  A    between atoms: O_13  and  C_14
REMARK    5  A    between atoms: C_18  and  C_20
REMARK    6  A    between atoms: C_20  and  C_26
REMARK    7  A    between atoms: C_21  and  O_23
REMARK                            x       y       z     vdW  Elec       q    Type
REMARK                         _______ _______ _______ _____ _____    ______ ____
ROOT
ATOM      1  C   UNL     1      33.201 -13.317 -22.779  0.00  0.00    +0.000 C 
ATOM      2  C   UNL     1      33.428 -12.434 -23.834  0.00  0.00    +0.001 C 
ATOM      3  C   UNL     1      32.504 -12.890 -21.649  0.00  0.00    +0.001 C 
ATOM      4  C   UNL     1      32.260 -10.695 -22.629  0.00  0.00    +0.051 C 
ATOM      5  C   UNL     1      32.958 -11.123 -23.759  0.00  0.00    +0.015 C 
ATOM      6  C   UNL     1      32.033 -11.579 -21.575  0.00  0.00    +0.015 C 
ENDROOT
BRANCH   1   7
ATOM      7  C   UNL     1      33.690 -14.677 -22.856  0.00  0.00    +0.003 C 
ATOM      8  C   UNL     1      34.249 -15.283 -21.732  0.00  0.00    +0.037 C 
ATOM      9  C   UNL     1      33.601 -15.382 -24.057  0.00  0.00    +0.000 C 
ATOM     10  C   UNL     1      34.720 -16.594 -21.807  0.00  0.00    +0.139 C 
ATOM     11  C   UNL     1      34.072 -16.693 -24.133  0.00  0.00    +0.003 C 
ATOM     12  C   UNL     1      34.632 -17.298 -23.007  0.00  0.00    +0.037 C 
BRANCH  10  13
ATOM     13  O   UNL     1      35.266 -17.184 -20.709  0.00  0.00    -0.475 OA
BRANCH  13  14
ATOM     14  C   UNL     1      36.023 -18.375 -20.921  0.00  0.00    +0.206 C 
ATOM     15  C   UNL     1      35.194 -19.568 -20.498  0.00  0.00    +0.051 C 
ENDBRANCH  13  14
ENDBRANCH  10  13
ENDBRANCH   1   7
BRANCH   4  17
ATOM     16  O   UNL     1      33.672  -8.101 -23.130  0.00  0.00    -0.269 OA
ATOM     17  N   UNL     1      31.783  -9.364 -22.553  0.00  0.00    -0.280 N 
ATOM     18  C   UNL     1      32.495  -8.197 -22.801  0.00  0.00    +0.262 C 
ATOM     19  H   UNL     1      30.839  -9.253 -22.295  0.00  0.00    +0.155 HD
BRANCH  18  20
ATOM     20  C   UNL     1      31.651  -6.961 -22.619  0.00  0.00    +0.151 C 
ATOM     21  C   UNL     1      31.120  -6.372 -23.709  0.00  0.00    +0.126 C 
ATOM     22  C   UNL     1      30.273  -5.129 -23.701  0.00  0.00    +0.072 C 
BRANCH  21  23
ATOM     23  O   UNL     1      31.306  -6.911 -24.973  0.00  0.00    -0.509 OA
ATOM     24  H   UNL     1      31.666  -7.771 -25.067  0.00  0.00    +0.292 HD
ENDBRANCH  21  23
BRANCH  20  26
ATOM     25  N   UNL     1      31.293  -6.008 -20.239  0.00  0.00    -0.191 NA
ATOM     26  C   UNL     1      31.454  -6.441 -21.304  0.00  0.00    +0.108 C 
ENDBRANCH  20  26
ENDBRANCH  18  20
ENDBRANCH   4  17
TORSDOF 7
ENDMDL
