MODEL 1
REMARK VINA RESULT:     -12.6      0.000      0.000
REMARK  Name = 25011730
REMARK  4 active torsions:
REMARK  status: ('A' for Active; 'I' for Inactive)
REMARK    1  A    between atoms: N_1  and  C_15
REMARK    2  A    between atoms: N_2  and  C_22
REMARK    3  A    between atoms: C_21  and  N_27
REMARK    4  A    between atoms: N_27  and  S_29
REMARK                            x       y       z     vdW  Elec       q    Type
REMARK                         _______ _______ _______ _____ _____    ______ ____
ROOT
ATOM      1  N   UNL     1      37.242 -22.638 -14.824  0.00  0.00    -0.284 N 
ATOM      2  N   UNL     1      32.947 -22.566 -16.787  0.00  0.00    -0.247 N 
ATOM      3  N   UNL     1      35.072 -22.613 -15.793  0.00  0.00    -0.322 NA
ATOM      4  N   UNL     1      34.745 -21.632 -17.970  0.00  0.00    -0.170 NA
ATOM      5  C   UNL     1      36.381 -22.300 -15.890  0.00  0.00    +0.198 C 
ATOM      6  C   UNL     1      34.323 -22.255 -16.853  0.00  0.00    +0.150 C 
ATOM      7  C   UNL     1      36.938 -21.663 -16.980  0.00  0.00    +0.070 C 
ATOM      8  C   UNL     1      36.064 -21.350 -17.999  0.00  0.00    +0.116 C 
ATOM      9  H   UNL     1      38.004 -22.024 -14.722  0.00  0.00    +0.155 HD
ATOM     10  H   UNL     1      32.440 -22.287 -17.583  0.00  0.00    +0.165 HD
ENDROOT
BRANCH   1  15
ATOM     11 CL   UNL     1      39.348 -24.820 -15.160  0.00  0.00    -0.081 Cl
ATOM     12  O   UNL     1      35.331 -22.746 -12.656  0.00  0.00    -0.433 OA
ATOM     13  O   UNL     1      35.260 -24.506 -11.011  0.00  0.00    -0.435 OA
ATOM     14  C   UNL     1      36.294 -23.686 -12.862  0.00  0.00    +0.191 C 
ATOM     15  C   UNL     1      37.227 -23.680 -13.879  0.00  0.00    +0.098 C 
ATOM     16  C   UNL     1      36.253 -24.691 -11.923  0.00  0.00    +0.178 C 
ATOM     17  C   UNL     1      38.140 -24.736 -13.926  0.00  0.00    +0.074 C 
ATOM     18  C   UNL     1      37.143 -25.746 -11.948  0.00  0.00    +0.041 C 
ATOM     19  C   UNL     1      34.679 -23.272 -11.482  0.00  0.00    +0.429 C 
ATOM     20  C   UNL     1      38.098 -25.763 -12.967  0.00  0.00    +0.016 C 
ENDBRANCH   1  15
BRANCH   2  22
ATOM     21  C   UNL     1      29.992 -23.875 -14.982  0.00  0.00    +0.066 C 
ATOM     22  C   UNL     1      32.159 -23.199 -15.806  0.00  0.00    +0.059 C 
ATOM     23  C   UNL     1      30.773 -23.250 -15.953  0.00  0.00    +0.031 C 
ATOM     24  C   UNL     1      30.596 -24.450 -13.864  0.00  0.00    +0.016 C 
ATOM     25  C   UNL     1      32.764 -23.773 -14.689  0.00  0.00    +0.015 C 
ATOM     26  C   UNL     1      31.983 -24.399 -13.718  0.00  0.00    +0.003 C 
BRANCH  21  27
ATOM     27  N   UNL     1      28.572 -23.928 -15.132  0.00  0.00    -0.219 N 
ATOM     28  H   UNL     1      28.022 -24.489 -14.540  0.00  0.00    +0.173 HD
BRANCH  27  29
ATOM     29  S   UNL     1      27.851 -22.982 -16.377  0.00  0.00    +0.056 S 
ATOM     30  O   UNL     1      28.844 -22.050 -16.878  0.00  0.00    -0.154 OA
ATOM     31  O   UNL     1      27.095 -23.815 -17.290  0.00  0.00    -0.154 OA
ATOM     32  C   UNL     1      26.691 -22.032 -15.418  0.00  0.00    +0.200 C 
ENDBRANCH  27  29
ENDBRANCH  21  27
ENDBRANCH   2  22
TORSDOF 4
ENDMDL
MODEL 2
REMARK VINA RESULT:     -12.2      4.289      6.364
REMARK  Name = 25011730
REMARK  4 active torsions:
REMARK  status: ('A' for Active; 'I' for Inactive)
REMARK    1  A    between atoms: N_1  and  C_15
REMARK    2  A    between atoms: N_2  and  C_22
REMARK    3  A    between atoms: C_21  and  N_27
REMARK    4  A    between atoms: N_27  and  S_29
REMARK                            x       y       z     vdW  Elec       q    Type
REMARK                         _______ _______ _______ _____ _____    ______ ____
ROOT
ATOM      1  N   UNL     1      33.528 -24.387 -14.889  0.00  0.00    -0.284 N 
ATOM      2  N   UNL     1      31.916 -21.453 -18.219  0.00  0.00    -0.247 N 
ATOM      3  N   UNL     1      32.739 -22.909 -16.573  0.00  0.00    -0.322 NA
ATOM      4  N   UNL     1      30.396 -22.352 -16.674  0.00  0.00    -0.170 NA
ATOM      5  C   UNL     1      32.468 -23.689 -15.506  0.00  0.00    +0.198 C 
ATOM      6  C   UNL     1      31.672 -22.278 -17.100  0.00  0.00    +0.150 C 
ATOM      7  C   UNL     1      31.206 -23.849 -14.973  0.00  0.00    +0.070 C 
ATOM      8  C   UNL     1      30.199 -23.149 -15.604  0.00  0.00    +0.116 C 
ATOM      9  H   UNL     1      33.252 -25.236 -14.474  0.00  0.00    +0.155 HD
ATOM     10  H   UNL     1      31.108 -21.013 -18.570  0.00  0.00    +0.165 HD
ENDROOT
BRANCH   1  15
ATOM     11 CL   UNL     1      34.304 -21.457 -14.542  0.00  0.00    -0.081 Cl
ATOM     12  O   UNL     1      35.545 -26.460 -14.920  0.00  0.00    -0.433 OA
ATOM     13  O   UNL     1      37.907 -26.042 -14.686  0.00  0.00    -0.435 OA
ATOM     14  C   UNL     1      35.824 -25.135 -14.771  0.00  0.00    +0.191 C 
ATOM     15  C   UNL     1      34.900 -24.111 -14.749  0.00  0.00    +0.098 C 
ATOM     16  C   UNL     1      37.173 -24.898 -14.637  0.00  0.00    +0.178 C 
ATOM     17  C   UNL     1      35.380 -22.809 -14.583  0.00  0.00    +0.074 C 
ATOM     18  C   UNL     1      37.672 -23.622 -14.474  0.00  0.00    +0.041 C 
ATOM     19  C   UNL     1      36.869 -27.028 -14.867  0.00  0.00    +0.429 C 
ATOM     20  C   UNL     1      36.758 -22.566 -14.447  0.00  0.00    +0.016 C 
ENDBRANCH   1  15
BRANCH   2  22
ATOM     21  C   UNL     1      34.199 -19.906 -20.689  0.00  0.00    +0.066 C 
ATOM     22  C   UNL     1      33.089 -21.134 -18.930  0.00  0.00    +0.059 C 
ATOM     23  C   UNL     1      33.038 -20.221 -19.984  0.00  0.00    +0.031 C 
ATOM     24  C   UNL     1      35.411 -20.502 -20.341  0.00  0.00    +0.016 C 
ATOM     25  C   UNL     1      34.300 -21.731 -18.582  0.00  0.00    +0.015 C 
ATOM     26  C   UNL     1      35.461 -21.415 -19.287  0.00  0.00    +0.003 C 
BRANCH  21  27
ATOM     27  N   UNL     1      34.148 -18.971 -21.768  0.00  0.00    -0.219 N 
ATOM     28  H   UNL     1      33.521 -19.096 -22.516  0.00  0.00    +0.173 HD
BRANCH  27  29
ATOM     29  S   UNL     1      35.213 -17.619 -21.724  0.00  0.00    +0.056 S 
ATOM     30  O   UNL     1      34.985 -16.896 -20.486  0.00  0.00    -0.154 OA
ATOM     31  O   UNL     1      36.555 -18.002 -22.116  0.00  0.00    -0.154 OA
ATOM     32  C   UNL     1      34.523 -16.631 -23.032  0.00  0.00    +0.200 C 
ENDBRANCH  27  29
ENDBRANCH  21  27
ENDBRANCH   2  22
TORSDOF 4
ENDMDL
MODEL 3
REMARK VINA RESULT:     -11.4      3.376      7.516
REMARK  Name = 25011730
REMARK  4 active torsions:
REMARK  status: ('A' for Active; 'I' for Inactive)
REMARK    1  A    between atoms: N_1  and  C_15
REMARK    2  A    between atoms: N_2  and  C_22
REMARK    3  A    between atoms: C_21  and  N_27
REMARK    4  A    between atoms: N_27  and  S_29
REMARK                            x       y       z     vdW  Elec       q    Type
REMARK                         _______ _______ _______ _____ _____    ______ ____
ROOT
ATOM      1  N   UNL     1      32.057 -22.827 -17.418  0.00  0.00    -0.284 N 
ATOM      2  N   UNL     1      36.573 -21.850 -16.442  0.00  0.00    -0.247 N 
ATOM      3  N   UNL     1      34.328 -22.347 -16.906  0.00  0.00    -0.322 NA
ATOM      4  N   UNL     1      35.673 -21.113 -18.479  0.00  0.00    -0.170 NA
ATOM      5  C   UNL     1      33.295 -22.247 -17.769  0.00  0.00    +0.198 C 
ATOM      6  C   UNL     1      35.470 -21.766 -17.319  0.00  0.00    +0.150 C 
ATOM      7  C   UNL     1      33.372 -21.604 -18.987  0.00  0.00    +0.070 C 
ATOM      8  C   UNL     1      34.599 -21.051 -19.293  0.00  0.00    +0.116 C 
ATOM      9  H   UNL     1      31.531 -23.133 -18.191  0.00  0.00    +0.155 HD
ATOM     10  H   UNL     1      37.386 -21.412 -16.785  0.00  0.00    +0.165 HD
ENDROOT
BRANCH   1  15
ATOM     11 CL   UNL     1      33.751 -24.124 -15.235  0.00  0.00    -0.081 Cl
ATOM     12  O   UNL     1      29.298 -22.116 -16.925  0.00  0.00    -0.433 OA
ATOM     13  O   UNL     1      28.167 -22.483 -14.828  0.00  0.00    -0.435 OA
ATOM     14  C   UNL     1      30.106 -22.697 -15.995  0.00  0.00    +0.191 C 
ATOM     15  C   UNL     1      31.426 -23.054 -16.181  0.00  0.00    +0.098 C 
ATOM     16  C   UNL     1      29.460 -22.907 -14.799  0.00  0.00    +0.178 C 
ATOM     17  C   UNL     1      32.095 -23.641 -15.104  0.00  0.00    +0.074 C 
ATOM     18  C   UNL     1      30.099 -23.485 -13.721  0.00  0.00    +0.041 C 
ATOM     19  C   UNL     1      28.071 -21.984 -16.178  0.00  0.00    +0.429 C 
ATOM     20  C   UNL     1      31.436 -23.856 -13.882  0.00  0.00    +0.016 C 
ENDBRANCH   1  15
BRANCH   2  22
ATOM     21  C   UNL     1      37.717 -24.144 -13.771  0.00  0.00    +0.066 C 
ATOM     22  C   UNL     1      36.740 -22.438 -15.174  0.00  0.00    +0.059 C 
ATOM     23  C   UNL     1      37.553 -23.561 -15.027  0.00  0.00    +0.031 C 
ATOM     24  C   UNL     1      37.069 -23.603 -12.660  0.00  0.00    +0.016 C 
ATOM     25  C   UNL     1      36.091 -21.897 -14.064  0.00  0.00    +0.015 C 
ATOM     26  C   UNL     1      36.256 -22.479 -12.807  0.00  0.00    +0.003 C 
BRANCH  21  27
ATOM     27  N   UNL     1      38.550 -25.295 -13.621  0.00  0.00    -0.219 N 
ATOM     28  H   UNL     1      38.252 -26.069 -13.092  0.00  0.00    +0.173 HD
BRANCH  27  29
ATOM     29  S   UNL     1      40.091 -25.289 -14.390  0.00  0.00    +0.056 S 
ATOM     30  O   UNL     1      39.920 -25.735 -15.760  0.00  0.00    -0.154 OA
ATOM     31  O   UNL     1      40.812 -24.067 -14.098  0.00  0.00    -0.154 OA
ATOM     32  C   UNL     1      40.886 -26.616 -13.511  0.00  0.00    +0.200 C 
ENDBRANCH  27  29
ENDBRANCH  21  27
ENDBRANCH   2  22
TORSDOF 4
ENDMDL
MODEL 4
REMARK VINA RESULT:     -11.4      3.596      5.667
REMARK  Name = 25011730
REMARK  4 active torsions:
REMARK  status: ('A' for Active; 'I' for Inactive)
REMARK    1  A    between atoms: N_1  and  C_15
REMARK    2  A    between atoms: N_2  and  C_22
REMARK    3  A    between atoms: C_21  and  N_27
REMARK    4  A    between atoms: N_27  and  S_29
REMARK                            x       y       z     vdW  Elec       q    Type
REMARK                         _______ _______ _______ _____ _____    ______ ____
ROOT
ATOM      1  N   UNL     1      34.296 -25.078 -13.928  0.00  0.00    -0.284 N 
ATOM      2  N   UNL     1      32.546 -22.006 -17.059  0.00  0.00    -0.247 N 
ATOM      3  N   UNL     1      33.437 -23.530 -15.513  0.00  0.00    -0.322 NA
ATOM      4  N   UNL     1      31.094 -22.965 -15.484  0.00  0.00    -0.170 NA
ATOM      5  C   UNL     1      33.213 -24.353 -14.468  0.00  0.00    +0.198 C 
ATOM      6  C   UNL     1      32.349 -22.876 -15.965  0.00  0.00    +0.150 C 
ATOM      7  C   UNL     1      31.975 -24.532 -13.884  0.00  0.00    +0.070 C 
ATOM      8  C   UNL     1      30.943 -23.805 -14.440  0.00  0.00    +0.116 C 
ATOM      9  H   UNL     1      34.036 -25.943 -13.536  0.00  0.00    +0.155 HD
ATOM     10  H   UNL     1      31.725 -21.551 -17.355  0.00  0.00    +0.165 HD
ENDROOT
BRANCH   1  15
ATOM     11 CL   UNL     1      36.123 -26.687 -15.769  0.00  0.00    -0.081 Cl
ATOM     12  O   UNL     1      35.386 -23.111 -12.110  0.00  0.00    -0.433 OA
ATOM     13  O   UNL     1      37.736 -22.614 -11.916  0.00  0.00    -0.435 OA
ATOM     14  C   UNL     1      36.146 -23.862 -12.955  0.00  0.00    +0.191 C 
ATOM     15  C   UNL     1      35.674 -24.810 -13.840  0.00  0.00    +0.098 C 
ATOM     16  C   UNL     1      37.487 -23.577 -12.844  0.00  0.00    +0.178 C 
ATOM     17  C   UNL     1      36.612 -25.481 -14.630  0.00  0.00    +0.074 C 
ATOM     18  C   UNL     1      38.433 -24.226 -13.612  0.00  0.00    +0.041 C 
ATOM     19  C   UNL     1      36.401 -22.324 -11.454  0.00  0.00    +0.429 C 
ATOM     20  C   UNL     1      37.983 -25.191 -14.516  0.00  0.00    +0.016 C 
ENDBRANCH   1  15
BRANCH   2  22
ATOM     21  C   UNL     1      34.670 -20.736 -19.812  0.00  0.00    +0.066 C 
ATOM     22  C   UNL     1      33.686 -21.661 -17.809  0.00  0.00    +0.059 C 
ATOM     23  C   UNL     1      33.542 -21.077 -19.068  0.00  0.00    +0.031 C 
ATOM     24  C   UNL     1      35.944 -20.977 -19.297  0.00  0.00    +0.016 C 
ATOM     25  C   UNL     1      34.960 -21.902 -17.295  0.00  0.00    +0.015 C 
ATOM     26  C   UNL     1      36.089 -21.560 -18.038  0.00  0.00    +0.003 C 
BRANCH  21  27
ATOM     27  N   UNL     1      34.522 -20.138 -21.100  0.00  0.00    -0.219 N 
ATOM     28  H   UNL     1      34.048 -20.607 -21.824  0.00  0.00    +0.173 HD
BRANCH  27  29
ATOM     29  S   UNL     1      35.198 -18.575 -21.354  0.00  0.00    +0.056 S 
ATOM     30  O   UNL     1      34.525 -17.637 -20.474  0.00  0.00    -0.154 OA
ATOM     31  O   UNL     1      36.645 -18.635 -21.398  0.00  0.00    -0.154 OA
ATOM     32  C   UNL     1      34.616 -18.243 -23.002  0.00  0.00    +0.200 C 
ENDBRANCH  27  29
ENDBRANCH  21  27
ENDBRANCH   2  22
TORSDOF 4
ENDMDL
MODEL 5
REMARK VINA RESULT:     -11.2      1.998      2.505
REMARK  Name = 25011730
REMARK  4 active torsions:
REMARK  status: ('A' for Active; 'I' for Inactive)
REMARK    1  A    between atoms: N_1  and  C_15
REMARK    2  A    between atoms: N_2  and  C_22
REMARK    3  A    between atoms: C_21  and  N_27
REMARK    4  A    between atoms: N_27  and  S_29
REMARK                            x       y       z     vdW  Elec       q    Type
REMARK                         _______ _______ _______ _____ _____    ______ ____
ROOT
ATOM      1  N   UNL     1      36.874 -22.219 -15.602  0.00  0.00    -0.284 N 
ATOM      2  N   UNL     1      32.531 -22.276 -17.456  0.00  0.00    -0.247 N 
ATOM      3  N   UNL     1      34.680 -22.256 -16.514  0.00  0.00    -0.322 NA
ATOM      4  N   UNL     1      34.314 -21.521 -18.780  0.00  0.00    -0.170 NA
ATOM      5  C   UNL     1      35.991 -21.985 -16.678  0.00  0.00    +0.198 C 
ATOM      6  C   UNL     1      33.910 -22.004 -17.590  0.00  0.00    +0.150 C 
ATOM      7  C   UNL     1      36.532 -21.487 -17.846  0.00  0.00    +0.070 C 
ATOM      8  C   UNL     1      35.637 -21.272 -18.874  0.00  0.00    +0.116 C 
ATOM      9  H   UNL     1      37.650 -21.614 -15.589  0.00  0.00    +0.155 HD
ATOM     10  H   UNL     1      32.008 -22.077 -18.266  0.00  0.00    +0.165 HD
ENDROOT
BRANCH   1  15
ATOM     11 CL   UNL     1      34.378 -22.268 -13.847  0.00  0.00    -0.081 Cl
ATOM     12  O   UNL     1      39.085 -24.009 -15.082  0.00  0.00    -0.433 OA
ATOM     13  O   UNL     1      39.123 -25.615 -13.285  0.00  0.00    -0.435 OA
ATOM     14  C   UNL     1      37.945 -23.980 -14.337  0.00  0.00    +0.191 C 
ATOM     15  C   UNL     1      36.865 -23.147 -14.545  0.00  0.00    +0.098 C 
ATOM     16  C   UNL     1      37.967 -24.897 -13.312  0.00  0.00    +0.178 C 
ATOM     17  C   UNL     1      35.780 -23.265 -13.672  0.00  0.00    +0.074 C 
ATOM     18  C   UNL     1      36.909 -25.032 -12.436  0.00  0.00    +0.041 C 
ATOM     19  C   UNL     1      39.826 -25.047 -14.409  0.00  0.00    +0.429 C 
ATOM     20  C   UNL     1      35.802 -24.201 -12.624  0.00  0.00    +0.016 C 
ENDBRANCH   1  15
BRANCH   2  22
ATOM     21  C   UNL     1      29.759 -22.690 -15.036  0.00  0.00    +0.066 C 
ATOM     22  C   UNL     1      31.757 -22.776 -16.391  0.00  0.00    +0.059 C 
ATOM     23  C   UNL     1      30.526 -22.195 -16.091  0.00  0.00    +0.031 C 
ATOM     24  C   UNL     1      30.224 -23.766 -14.281  0.00  0.00    +0.016 C 
ATOM     25  C   UNL     1      32.223 -23.852 -15.635  0.00  0.00    +0.015 C 
ATOM     26  C   UNL     1      31.457 -24.348 -14.581  0.00  0.00    +0.003 C 
BRANCH  21  27
ATOM     27  N   UNL     1      28.498 -22.095 -14.730  0.00  0.00    -0.219 N 
ATOM     28  H   UNL     1      28.357 -21.618 -13.880  0.00  0.00    +0.173 HD
BRANCH  27  29
ATOM     29  S   UNL     1      27.230 -22.234 -15.887  0.00  0.00    +0.056 S 
ATOM     30  O   UNL     1      25.964 -22.265 -15.178  0.00  0.00    -0.154 OA
ATOM     31  O   UNL     1      27.433 -21.320 -16.992  0.00  0.00    -0.154 OA
ATOM     32  C   UNL     1      27.527 -23.884 -16.482  0.00  0.00    +0.200 C 
ENDBRANCH  27  29
ENDBRANCH  21  27
ENDBRANCH   2  22
TORSDOF 4
ENDMDL
MODEL 6
REMARK VINA RESULT:     -11.1      2.524      6.451
REMARK  Name = 25011730
REMARK  4 active torsions:
REMARK  status: ('A' for Active; 'I' for Inactive)
REMARK    1  A    between atoms: N_1  and  C_15
REMARK    2  A    between atoms: N_2  and  C_22
REMARK    3  A    between atoms: C_21  and  N_27
REMARK    4  A    between atoms: N_27  and  S_29
REMARK                            x       y       z     vdW  Elec       q    Type
REMARK                         _______ _______ _______ _____ _____    ______ ____
ROOT
ATOM      1  N   UNL     1      32.622 -22.881 -17.232  0.00  0.00    -0.284 N 
ATOM      2  N   UNL     1      37.183 -21.890 -16.514  0.00  0.00    -0.247 N 
ATOM      3  N   UNL     1      34.917 -22.396 -16.851  0.00  0.00    -0.322 NA
ATOM      4  N   UNL     1      36.118 -20.998 -18.405  0.00  0.00    -0.170 NA
ATOM      5  C   UNL     1      33.820 -22.244 -17.621  0.00  0.00    +0.198 C 
ATOM      6  C   UNL     1      36.015 -21.754 -17.295  0.00  0.00    +0.150 C 
ATOM      7  C   UNL     1      33.794 -21.497 -18.781  0.00  0.00    +0.070 C 
ATOM      8  C   UNL     1      34.984 -20.891 -19.127  0.00  0.00    +0.116 C 
ATOM      9  H   UNL     1      32.044 -23.131 -17.988  0.00  0.00    +0.155 HD
ATOM     10  H   UNL     1      37.960 -21.405 -16.877  0.00  0.00    +0.165 HD
ENDROOT
BRANCH   1  15
ATOM     11 CL   UNL     1      34.494 -24.338 -15.312  0.00  0.00    -0.081 Cl
ATOM     12  O   UNL     1      29.902 -22.266 -16.467  0.00  0.00    -0.433 OA
ATOM     13  O   UNL     1      28.941 -22.841 -14.333  0.00  0.00    -0.435 OA
ATOM     14  C   UNL     1      30.786 -22.914 -15.659  0.00  0.00    +0.191 C 
ATOM     15  C   UNL     1      32.091 -23.230 -15.977  0.00  0.00    +0.098 C 
ATOM     16  C   UNL     1      30.237 -23.242 -14.441  0.00  0.00    +0.178 C 
ATOM     17  C   UNL     1      32.849 -23.899 -15.012  0.00  0.00    +0.074 C 
ATOM     18  C   UNL     1      30.963 -23.904 -13.472  0.00  0.00    +0.041 C 
ATOM     19  C   UNL     1      28.735 -22.225 -15.621  0.00  0.00    +0.429 C 
ATOM     20  C   UNL     1      32.288 -24.234 -13.767  0.00  0.00    +0.016 C 
ENDBRANCH   1  15
BRANCH   2  22
ATOM     21  C   UNL     1      37.167 -22.828 -12.933  0.00  0.00    +0.066 C 
ATOM     22  C   UNL     1      37.456 -22.581 -15.318  0.00  0.00    +0.059 C 
ATOM     23  C   UNL     1      36.897 -22.144 -14.118  0.00  0.00    +0.031 C 
ATOM     24  C   UNL     1      37.995 -23.950 -12.948  0.00  0.00    +0.016 C 
ATOM     25  C   UNL     1      38.284 -23.703 -15.334  0.00  0.00    +0.015 C 
ATOM     26  C   UNL     1      38.554 -24.388 -14.150  0.00  0.00    +0.003 C 
BRANCH  21  27
ATOM     27  N   UNL     1      36.594 -22.381 -11.703  0.00  0.00    -0.219 N 
ATOM     28  H   UNL     1      36.807 -21.491 -11.341  0.00  0.00    +0.173 HD
BRANCH  27  29
ATOM     29  S   UNL     1      35.522 -23.441 -10.872  0.00  0.00    +0.056 S 
ATOM     30  O   UNL     1      35.950 -23.533  -9.488  0.00  0.00    -0.154 OA
ATOM     31  O   UNL     1      34.142 -23.143 -11.197  0.00  0.00    -0.154 OA
ATOM     32  C   UNL     1      35.944 -24.986 -11.646  0.00  0.00    +0.200 C 
ENDBRANCH  27  29
ENDBRANCH  21  27
ENDBRANCH   2  22
TORSDOF 4
ENDMDL
MODEL 7
REMARK VINA RESULT:     -10.8      3.876      7.301
REMARK  Name = 25011730
REMARK  4 active torsions:
REMARK  status: ('A' for Active; 'I' for Inactive)
REMARK    1  A    between atoms: N_1  and  C_15
REMARK    2  A    between atoms: N_2  and  C_22
REMARK    3  A    between atoms: C_21  and  N_27
REMARK    4  A    between atoms: N_27  and  S_29
REMARK                            x       y       z     vdW  Elec       q    Type
REMARK                         _______ _______ _______ _____ _____    ______ ____
ROOT
ATOM      1  N   UNL     1      32.009 -22.881 -17.057  0.00  0.00    -0.284 N 
ATOM      2  N   UNL     1      36.613 -22.040 -16.425  0.00  0.00    -0.247 N 
ATOM      3  N   UNL     1      34.325 -22.468 -16.718  0.00  0.00    -0.322 NA
ATOM      4  N   UNL     1      35.601 -21.338 -18.422  0.00  0.00    -0.170 NA
ATOM      5  C   UNL     1      33.239 -22.359 -17.511  0.00  0.00    +0.198 C 
ATOM      6  C   UNL     1      35.456 -21.944 -17.228  0.00  0.00    +0.150 C 
ATOM      7  C   UNL     1      33.255 -21.761 -18.755  0.00  0.00    +0.070 C 
ATOM      8  C   UNL     1      34.476 -21.264 -19.162  0.00  0.00    +0.116 C 
ATOM      9  H   UNL     1      31.421 -23.193 -17.781  0.00  0.00    +0.155 HD
ATOM     10  H   UNL     1      37.415 -21.644 -16.838  0.00  0.00    +0.165 HD
ENDROOT
BRANCH   1  15
ATOM     11 CL   UNL     1      29.083 -22.086 -16.717  0.00  0.00    -0.081 Cl
ATOM     12  O   UNL     1      33.533 -23.911 -14.825  0.00  0.00    -0.433 OA
ATOM     13  O   UNL     1      32.639 -24.206 -12.607  0.00  0.00    -0.435 OA
ATOM     14  C   UNL     1      32.226 -23.538 -14.740  0.00  0.00    +0.191 C 
ATOM     15  C   UNL     1      31.457 -23.042 -15.773  0.00  0.00    +0.098 C 
ATOM     16  C   UNL     1      31.716 -23.707 -13.473  0.00  0.00    +0.178 C 
ATOM     17  C   UNL     1      30.129 -22.714 -15.491  0.00  0.00    +0.074 C 
ATOM     18  C   UNL     1      30.408 -23.389 -13.169  0.00  0.00    +0.041 C 
ATOM     19  C   UNL     1      33.788 -24.332 -13.470  0.00  0.00    +0.429 C 
ATOM     20  C   UNL     1      29.607 -22.886 -14.197  0.00  0.00    +0.016 C 
ENDBRANCH   1  15
BRANCH   2  22
ATOM     21  C   UNL     1      37.779 -24.334 -13.763  0.00  0.00    +0.066 C 
ATOM     22  C   UNL     1      36.846 -22.590 -15.150  0.00  0.00    +0.059 C 
ATOM     23  C   UNL     1      37.548 -23.788 -15.026  0.00  0.00    +0.031 C 
ATOM     24  C   UNL     1      37.307 -23.681 -12.624  0.00  0.00    +0.016 C 
ATOM     25  C   UNL     1      36.374 -21.937 -14.012  0.00  0.00    +0.015 C 
ATOM     26  C   UNL     1      36.604 -22.481 -12.749  0.00  0.00    +0.003 C 
BRANCH  21  27
ATOM     27  N   UNL     1      38.498 -25.561 -13.636  0.00  0.00    -0.219 N 
ATOM     28  H   UNL     1      38.107 -26.330 -13.163  0.00  0.00    +0.173 HD
BRANCH  27  29
ATOM     29  S   UNL     1      40.070 -25.657 -14.332  0.00  0.00    +0.056 S 
ATOM     30  O   UNL     1      40.872 -26.562 -13.528  0.00  0.00    -0.154 OA
ATOM     31  O   UNL     1      39.992 -25.822 -15.769  0.00  0.00    -0.154 OA
ATOM     32  C   UNL     1      40.663 -24.013 -14.002  0.00  0.00    +0.200 C 
ENDBRANCH  27  29
ENDBRANCH  21  27
ENDBRANCH   2  22
TORSDOF 4
ENDMDL
MODEL 8
REMARK VINA RESULT:     -10.7      3.838      7.257
REMARK  Name = 25011730
REMARK  4 active torsions:
REMARK  status: ('A' for Active; 'I' for Inactive)
REMARK    1  A    between atoms: N_1  and  C_15
REMARK    2  A    between atoms: N_2  and  C_22
REMARK    3  A    between atoms: C_21  and  N_27
REMARK    4  A    between atoms: N_27  and  S_29
REMARK                            x       y       z     vdW  Elec       q    Type
REMARK                         _______ _______ _______ _____ _____    ______ ____
ROOT
ATOM      1  N   UNL     1      32.597 -22.232 -16.443  0.00  0.00    -0.284 N 
ATOM      2  N   UNL     1      33.543 -24.510 -12.416  0.00  0.00    -0.247 N 
ATOM      3  N   UNL     1      33.095 -23.369 -14.417  0.00  0.00    -0.322 NA
ATOM      4  N   UNL     1      31.417 -24.753 -13.379  0.00  0.00    -0.170 NA
ATOM      5  C   UNL     1      32.206 -23.090 -15.393  0.00  0.00    +0.198 C 
ATOM      6  C   UNL     1      32.640 -24.195 -13.455  0.00  0.00    +0.150 C 
ATOM      7  C   UNL     1      30.924 -23.597 -15.431  0.00  0.00    +0.070 C 
ATOM      8  C   UNL     1      30.581 -24.431 -14.387  0.00  0.00    +0.116 C 
ATOM      9  H   UNL     1      31.853 -21.713 -16.826  0.00  0.00    +0.155 HD
ATOM     10  H   UNL     1      33.168 -25.116 -11.736  0.00  0.00    +0.165 HD
ENDROOT
BRANCH   1  15
ATOM     11 CL   UNL     1      32.567 -21.727 -19.452  0.00  0.00    -0.081 Cl
ATOM     12  O   UNL     1      35.075 -22.166 -14.955  0.00  0.00    -0.433 OA
ATOM     13  O   UNL     1      37.228 -21.727 -15.945  0.00  0.00    -0.435 OA
ATOM     14  C   UNL     1      34.994 -21.951 -16.297  0.00  0.00    +0.191 C 
ATOM     15  C   UNL     1      33.838 -21.971 -17.051  0.00  0.00    +0.098 C 
ATOM     16  C   UNL     1      36.224 -21.700 -16.861  0.00  0.00    +0.178 C 
ATOM     17  C   UNL     1      33.955 -21.725 -18.421  0.00  0.00    +0.074 C 
ATOM     18  C   UNL     1      36.366 -21.455 -18.212  0.00  0.00    +0.041 C 
ATOM     19  C   UNL     1      36.494 -22.024 -14.739  0.00  0.00    +0.429 C 
ATOM     20  C   UNL     1      35.211 -21.469 -18.999  0.00  0.00    +0.016 C 
ENDBRANCH   1  15
BRANCH   2  22
ATOM     21  C   UNL     1      37.242 -24.585 -12.290  0.00  0.00    +0.066 C 
ATOM     22  C   UNL     1      34.874 -24.128 -12.161  0.00  0.00    +0.059 C 
ATOM     23  C   UNL     1      35.924 -24.963 -12.543  0.00  0.00    +0.031 C 
ATOM     24  C   UNL     1      37.511 -23.372 -11.656  0.00  0.00    +0.016 C 
ATOM     25  C   UNL     1      35.143 -22.915 -11.527  0.00  0.00    +0.015 C 
ATOM     26  C   UNL     1      36.461 -22.536 -11.275  0.00  0.00    +0.003 C 
BRANCH  21  27
ATOM     27  N   UNL     1      38.318 -25.440 -12.681  0.00  0.00    -0.219 N 
ATOM     28  H   UNL     1      38.698 -26.093 -12.051  0.00  0.00    +0.173 HD
BRANCH  27  29
ATOM     29  S   UNL     1      38.930 -25.296 -14.284  0.00  0.00    +0.056 S 
ATOM     30  O   UNL     1      38.058 -26.039 -15.175  0.00  0.00    -0.154 OA
ATOM     31  O   UNL     1      39.290 -23.924 -14.580  0.00  0.00    -0.154 OA
ATOM     32  C   UNL     1      40.433 -26.235 -14.132  0.00  0.00    +0.200 C 
ENDBRANCH  27  29
ENDBRANCH  21  27
ENDBRANCH   2  22
TORSDOF 4
ENDMDL
MODEL 9
REMARK VINA RESULT:     -10.4      3.235      5.645
REMARK  Name = 25011730
REMARK  4 active torsions:
REMARK  status: ('A' for Active; 'I' for Inactive)
REMARK    1  A    between atoms: N_1  and  C_15
REMARK    2  A    between atoms: N_2  and  C_22
REMARK    3  A    between atoms: C_21  and  N_27
REMARK    4  A    between atoms: N_27  and  S_29
REMARK                            x       y       z     vdW  Elec       q    Type
REMARK                         _______ _______ _______ _____ _____    ______ ____
ROOT
ATOM      1  N   UNL     1      35.643 -21.768 -18.008  0.00  0.00    -0.284 N 
ATOM      2  N   UNL     1      33.965 -23.126 -13.808  0.00  0.00    -0.247 N 
ATOM      3  N   UNL     1      34.777 -22.455 -15.904  0.00  0.00    -0.322 NA
ATOM      4  N   UNL     1      36.214 -22.476 -13.969  0.00  0.00    -0.170 NA
ATOM      5  C   UNL     1      35.825 -22.014 -16.630  0.00  0.00    +0.198 C 
ATOM      6  C   UNL     1      35.038 -22.663 -14.599  0.00  0.00    +0.150 C 
ATOM      7  C   UNL     1      37.080 -21.783 -16.105  0.00  0.00    +0.070 C 
ATOM      8  C   UNL     1      37.217 -22.034 -14.755  0.00  0.00    +0.116 C 
ATOM      9  H   UNL     1      36.456 -21.908 -18.545  0.00  0.00    +0.155 HD
ATOM     10  H   UNL     1      34.202 -23.264 -12.862  0.00  0.00    +0.165 HD
ENDROOT
BRANCH   1  15
ATOM     11 CL   UNL     1      33.061 -23.341 -17.596  0.00  0.00    -0.081 Cl
ATOM     12  O   UNL     1      35.750 -19.560 -19.872  0.00  0.00    -0.433 OA
ATOM     13  O   UNL     1      33.876 -18.824 -21.196  0.00  0.00    -0.435 OA
ATOM     14  C   UNL     1      34.631 -20.302 -19.643  0.00  0.00    +0.191 C 
ATOM     15  C   UNL     1      34.529 -21.362 -18.766  0.00  0.00    +0.098 C 
ATOM     16  C   UNL     1      33.561 -19.881 -20.400  0.00  0.00    +0.178 C 
ATOM     17  C   UNL     1      33.292 -22.003 -18.666  0.00  0.00    +0.074 C 
ATOM     18  C   UNL     1      32.329 -20.498 -20.320  0.00  0.00    +0.041 C 
ATOM     19  C   UNL     1      35.264 -18.627 -20.858  0.00  0.00    +0.429 C 
ATOM     20  C   UNL     1      32.198 -21.574 -19.438  0.00  0.00    +0.016 C 
ENDBRANCH   1  15
BRANCH   2  22
ATOM     21  C   UNL     1      30.581 -22.931 -15.297  0.00  0.00    +0.066 C 
ATOM     22  C   UNL     1      32.622 -23.429 -14.105  0.00  0.00    +0.059 C 
ATOM     23  C   UNL     1      31.911 -22.633 -15.002  0.00  0.00    +0.031 C 
ATOM     24  C   UNL     1      29.962 -24.027 -14.695  0.00  0.00    +0.016 C 
ATOM     25  C   UNL     1      32.004 -24.523 -13.502  0.00  0.00    +0.015 C 
ATOM     26  C   UNL     1      30.674 -24.823 -13.797  0.00  0.00    +0.003 C 
BRANCH  21  27
ATOM     27  N   UNL     1      29.852 -22.116 -16.216  0.00  0.00    -0.219 N 
ATOM     28  H   UNL     1      30.319 -21.592 -16.906  0.00  0.00    +0.173 HD
BRANCH  27  29
ATOM     29  S   UNL     1      28.136 -22.077 -16.084  0.00  0.00    +0.056 S 
ATOM     30  O   UNL     1      27.790 -21.641 -14.743  0.00  0.00    -0.154 OA
ATOM     31  O   UNL     1      27.541 -21.441 -17.242  0.00  0.00    -0.154 OA
ATOM     32  C   UNL     1      27.773 -23.816 -16.170  0.00  0.00    +0.200 C 
ENDBRANCH  27  29
ENDBRANCH  21  27
ENDBRANCH   2  22
TORSDOF 4
ENDMDL
