MODEL 1
REMARK VINA RESULT:     -12.3      0.000      0.000
REMARK  Name = 23647652
REMARK  4 active torsions:
REMARK  status: ('A' for Active; 'I' for Inactive)
REMARK    1  A    between atoms: C_2  and  C_16
REMARK    2  A    between atoms: C_4  and  C_10
REMARK    3  A    between atoms: C_17  and  S_22
REMARK    4  A    between atoms: S_22  and  N_25
REMARK                            x       y       z     vdW  Elec       q    Type
REMARK                         _______ _______ _______ _____ _____    ______ ____
ROOT
ATOM      1  O   UNL     1      34.236 -18.367 -21.965  0.00  0.00    -0.453 OA
ATOM      2  C   UNL     1      35.130 -18.948 -21.123  0.00  0.00    +0.145 C 
ATOM      3  C   UNL     1      36.397 -18.467 -21.357  0.00  0.00    +0.041 C 
ATOM      4  C   UNL     1      34.939 -17.507 -22.747  0.00  0.00    +0.147 C 
ATOM      5  C   UNL     1      36.273 -17.531 -22.411  0.00  0.00    +0.041 C 
ENDROOT
BRANCH   4  10
ATOM      6  S   UNL     1      33.876 -14.578 -22.110  0.00  0.00    -0.027 S 
ATOM      7  O   UNL     1      33.047 -15.083 -25.789  0.00  0.00    -0.209 OA
ATOM      8  N   UNL     1      32.803 -13.435 -24.175  0.00  0.00    -0.311 NA
ATOM      9  N   UNL     1      32.818 -12.130 -22.178  0.00  0.00    -0.327 N 
ATOM     10  C   UNL     1      34.322 -16.723 -23.748  0.00  0.00    +0.057 C 
ATOM     11  C   UNL     1      33.843 -15.474 -23.571  0.00  0.00    +0.131 C 
ATOM     12  C   UNL     1      33.197 -14.675 -24.644  0.00  0.00    +0.213 C 
ATOM     13  C   UNL     1      33.078 -13.240 -22.922  0.00  0.00    +0.222 C 
ATOM     14  H   UNL     1      33.076 -12.102 -21.228  0.00  0.00    +0.145 HD
ATOM     15  H   UNL     1      32.372 -11.354 -22.589  0.00  0.00    +0.145 HD
ENDBRANCH   4  10
BRANCH   2  16
ATOM     16  C   UNL     1      34.577 -19.907 -20.198  0.00  0.00    +0.035 C 
ATOM     17  C   UNL     1      33.505 -21.757 -18.407  0.00  0.00    +0.122 C 
ATOM     18  C   UNL     1      35.423 -20.677 -19.400  0.00  0.00    +0.004 C 
ATOM     19  C   UNL     1      33.194 -20.063 -20.100  0.00  0.00    +0.004 C 
ATOM     20  C   UNL     1      34.888 -21.601 -18.504  0.00  0.00    +0.020 C 
ATOM     21  C   UNL     1      32.658 -20.988 -19.205  0.00  0.00    +0.020 C 
BRANCH  17  22
ATOM     22  S   UNL     1      32.834 -22.919 -17.289  0.00  0.00    +0.060 S 
ATOM     23  O   UNL     1      32.866 -24.237 -17.907  0.00  0.00    -0.153 OA
ATOM     24  O   UNL     1      33.482 -22.719 -16.000  0.00  0.00    -0.153 OA
BRANCH  22  25
ATOM     25  N   UNL     1      31.206 -22.412 -17.164  0.00  0.00    -0.178 NA
ATOM     26  C   UNL     1      30.422 -22.758 -15.969  0.00  0.00    +0.110 C 
ATOM     27  H   UNL     1      30.712 -22.804 -17.964  0.00  0.00    +0.149 HD
ENDBRANCH  22  25
ENDBRANCH  17  22
ENDBRANCH   2  16
TORSDOF 4
ENDMDL
MODEL 2
REMARK VINA RESULT:     -12.2      1.100      1.570
REMARK  Name = 23647652
REMARK  4 active torsions:
REMARK  status: ('A' for Active; 'I' for Inactive)
REMARK    1  A    between atoms: C_2  and  C_16
REMARK    2  A    between atoms: C_4  and  C_10
REMARK    3  A    between atoms: C_17  and  S_22
REMARK    4  A    between atoms: S_22  and  N_25
REMARK                            x       y       z     vdW  Elec       q    Type
REMARK                         _______ _______ _______ _____ _____    ______ ____
ROOT
ATOM      1  O   UNL     1      34.182 -18.338 -21.984  0.00  0.00    -0.453 OA
ATOM      2  C   UNL     1      35.059 -18.938 -21.138  0.00  0.00    +0.145 C 
ATOM      3  C   UNL     1      36.334 -18.474 -21.354  0.00  0.00    +0.041 C 
ATOM      4  C   UNL     1      34.905 -17.480 -22.750  0.00  0.00    +0.147 C 
ATOM      5  C   UNL     1      36.235 -17.526 -22.401  0.00  0.00    +0.041 C 
ENDROOT
BRANCH   4  10
ATOM      6  S   UNL     1      33.848 -14.554 -22.091  0.00  0.00    -0.027 S 
ATOM      7  O   UNL     1      33.079 -15.003 -25.790  0.00  0.00    -0.209 OA
ATOM      8  N   UNL     1      32.818 -13.376 -24.158  0.00  0.00    -0.311 NA
ATOM      9  N   UNL     1      32.805 -12.099 -22.142  0.00  0.00    -0.327 N 
ATOM     10  C   UNL     1      34.309 -16.679 -23.751  0.00  0.00    +0.057 C 
ATOM     11  C   UNL     1      33.835 -15.430 -23.564  0.00  0.00    +0.131 C 
ATOM     12  C   UNL     1      33.212 -14.612 -24.637  0.00  0.00    +0.213 C 
ATOM     13  C   UNL     1      33.072 -13.201 -22.897  0.00  0.00    +0.222 C 
ATOM     14  H   UNL     1      33.048 -12.086 -21.188  0.00  0.00    +0.145 HD
ATOM     15  H   UNL     1      32.371 -11.315 -22.550  0.00  0.00    +0.145 HD
ENDBRANCH   4  10
BRANCH   2  16
ATOM     16  C   UNL     1      34.482 -19.898 -20.228  0.00  0.00    +0.035 C 
ATOM     17  C   UNL     1      33.371 -21.759 -18.472  0.00  0.00    +0.122 C 
ATOM     18  C   UNL     1      33.097 -20.024 -20.131  0.00  0.00    +0.004 C 
ATOM     19  C   UNL     1      35.312 -20.703 -19.447  0.00  0.00    +0.004 C 
ATOM     20  C   UNL     1      32.541 -20.954 -19.253  0.00  0.00    +0.020 C 
ATOM     21  C   UNL     1      34.756 -21.633 -18.569  0.00  0.00    +0.020 C 
BRANCH  17  22
ATOM     22  S   UNL     1      32.674 -22.920 -17.370  0.00  0.00    +0.060 S 
ATOM     23  O   UNL     1      31.269 -22.591 -17.168  0.00  0.00    -0.153 OA
ATOM     24  O   UNL     1      33.035 -24.251 -17.840  0.00  0.00    -0.153 OA
BRANCH  22  25
ATOM     25  N   UNL     1      33.523 -22.607 -15.919  0.00  0.00    -0.178 NA
ATOM     26  C   UNL     1      34.395 -23.641 -15.343  0.00  0.00    +0.110 C 
ATOM     27  H   UNL     1      32.826 -22.381 -15.212  0.00  0.00    +0.149 HD
ENDBRANCH  22  25
ENDBRANCH  17  22
ENDBRANCH   2  16
TORSDOF 4
ENDMDL
MODEL 3
REMARK VINA RESULT:     -11.3      2.365      8.927
REMARK  Name = 23647652
REMARK  4 active torsions:
REMARK  status: ('A' for Active; 'I' for Inactive)
REMARK    1  A    between atoms: C_2  and  C_16
REMARK    2  A    between atoms: C_4  and  C_10
REMARK    3  A    between atoms: C_17  and  S_22
REMARK    4  A    between atoms: S_22  and  N_25
REMARK                            x       y       z     vdW  Elec       q    Type
REMARK                         _______ _______ _______ _____ _____    ______ ____
ROOT
ATOM      1  O   UNL     1      34.283 -18.571 -20.746  0.00  0.00    -0.453 OA
ATOM      2  C   UNL     1      35.174 -17.733 -21.336  0.00  0.00    +0.145 C 
ATOM      3  C   UNL     1      36.439 -18.270 -21.302  0.00  0.00    +0.041 C 
ATOM      4  C   UNL     1      34.987 -19.656 -20.328  0.00  0.00    +0.147 C 
ATOM      5  C   UNL     1      36.318 -19.519 -20.647  0.00  0.00    +0.041 C 
ENDROOT
BRANCH   4  10
ATOM      6  S   UNL     1      36.198 -20.821 -17.629  0.00  0.00    -0.027 S 
ATOM      7  O   UNL     1      33.130 -22.977 -18.270  0.00  0.00    -0.209 OA
ATOM      8  N   UNL     1      34.818 -22.805 -16.690  0.00  0.00    -0.311 NA
ATOM      9  N   UNL     1      36.731 -22.190 -15.401  0.00  0.00    -0.327 N 
ATOM     10  C   UNL     1      34.372 -20.742 -19.664  0.00  0.00    +0.057 C 
ATOM     11  C   UNL     1      34.813 -21.300 -18.517  0.00  0.00    +0.131 C 
ATOM     12  C   UNL     1      34.145 -22.442 -17.842  0.00  0.00    +0.213 C 
ATOM     13  C   UNL     1      35.869 -22.081 -16.450  0.00  0.00    +0.222 C 
ATOM     14  H   UNL     1      37.498 -21.577 -15.329  0.00  0.00    +0.145 HD
ATOM     15  H   UNL     1      36.587 -22.882 -14.715  0.00  0.00    +0.145 HD
ENDBRANCH   4  10
BRANCH   2  16
ATOM     16  C   UNL     1      34.620 -16.505 -21.854  0.00  0.00    +0.035 C 
ATOM     17  C   UNL     1      33.554 -14.131 -22.858  0.00  0.00    +0.122 C 
ATOM     18  C   UNL     1      34.214 -15.498 -20.979  0.00  0.00    +0.004 C 
ATOM     19  C   UNL     1      34.494 -16.325 -23.231  0.00  0.00    +0.004 C 
ATOM     20  C   UNL     1      33.681 -14.311 -21.480  0.00  0.00    +0.020 C 
ATOM     21  C   UNL     1      33.960 -15.138 -23.733  0.00  0.00    +0.020 C 
BRANCH  17  22
ATOM     22  S   UNL     1      32.883 -12.646 -23.485  0.00  0.00    +0.060 S 
ATOM     23  O   UNL     1      33.794 -11.552 -23.176  0.00  0.00    -0.153 OA
ATOM     24  O   UNL     1      32.496 -12.884 -24.870  0.00  0.00    -0.153 OA
BRANCH  22  25
ATOM     25  N   UNL     1      31.465 -12.458 -22.549  0.00  0.00    -0.178 NA
ATOM     26  C   UNL     1      31.345 -11.323 -21.622  0.00  0.00    +0.110 C 
ATOM     27  H   UNL     1      31.364 -13.306 -21.992  0.00  0.00    +0.149 HD
ENDBRANCH  22  25
ENDBRANCH  17  22
ENDBRANCH   2  16
TORSDOF 4
ENDMDL
MODEL 4
REMARK VINA RESULT:     -11.2      1.491      2.075
REMARK  Name = 23647652
REMARK  4 active torsions:
REMARK  status: ('A' for Active; 'I' for Inactive)
REMARK    1  A    between atoms: C_2  and  C_16
REMARK    2  A    between atoms: C_4  and  C_10
REMARK    3  A    between atoms: C_17  and  S_22
REMARK    4  A    between atoms: S_22  and  N_25
REMARK                            x       y       z     vdW  Elec       q    Type
REMARK                         _______ _______ _______ _____ _____    ______ ____
ROOT
ATOM      1  O   UNL     1      34.129 -17.280 -20.946  0.00  0.00    -0.453 OA
ATOM      2  C   UNL     1      34.603 -18.498 -21.315  0.00  0.00    +0.145 C 
ATOM      3  C   UNL     1      35.338 -18.400 -22.473  0.00  0.00    +0.041 C 
ATOM      4  C   UNL     1      34.565 -16.394 -21.878  0.00  0.00    +0.147 C 
ATOM      5  C   UNL     1      35.314 -17.033 -22.839  0.00  0.00    +0.041 C 
ENDROOT
BRANCH   4  10
ATOM      6  S   UNL     1      33.365 -14.859 -24.392  0.00  0.00    -0.027 S 
ATOM      7  O   UNL     1      33.606 -12.179 -21.702  0.00  0.00    -0.209 OA
ATOM      8  N   UNL     1      32.920 -12.350 -23.910  0.00  0.00    -0.311 NA
ATOM      9  N   UNL     1      32.367 -13.082 -26.114  0.00  0.00    -0.327 N 
ATOM     10  C   UNL     1      34.255 -15.016 -21.810  0.00  0.00    +0.057 C 
ATOM     11  C   UNL     1      33.744 -14.284 -22.822  0.00  0.00    +0.131 C 
ATOM     12  C   UNL     1      33.429 -12.836 -22.720  0.00  0.00    +0.213 C 
ATOM     13  C   UNL     1      32.827 -13.248 -24.843  0.00  0.00    +0.222 C 
ATOM     14  H   UNL     1      32.346 -13.846 -26.734  0.00  0.00    +0.145 HD
ATOM     15  H   UNL     1      32.055 -12.197 -26.413  0.00  0.00    +0.145 HD
ENDBRANCH   4  10
BRANCH   2  16
ATOM     16  C   UNL     1      34.246 -19.591 -20.443  0.00  0.00    +0.035 C 
ATOM     17  C   UNL     1      33.560 -21.709 -18.762  0.00  0.00    +0.122 C 
ATOM     18  C   UNL     1      32.904 -19.904 -20.227  0.00  0.00    +0.004 C 
ATOM     19  C   UNL     1      35.245 -20.338 -19.819  0.00  0.00    +0.004 C 
ATOM     20  C   UNL     1      32.561 -20.963 -19.387  0.00  0.00    +0.020 C 
ATOM     21  C   UNL     1      34.902 -21.397 -18.978  0.00  0.00    +0.020 C 
BRANCH  17  22
ATOM     22  S   UNL     1      33.130 -23.032 -17.707  0.00  0.00    +0.060 S 
ATOM     23  O   UNL     1      33.043 -24.253 -18.497  0.00  0.00    -0.153 OA
ATOM     24  O   UNL     1      34.021 -22.989 -16.555  0.00  0.00    -0.153 OA
BRANCH  22  25
ATOM     25  N   UNL     1      31.558 -22.598 -17.195  0.00  0.00    -0.178 NA
ATOM     26  C   UNL     1      31.138 -22.866 -15.811  0.00  0.00    +0.110 C 
ATOM     27  H   UNL     1      30.903 -23.090 -17.802  0.00  0.00    +0.149 HD
ENDBRANCH  22  25
ENDBRANCH  17  22
ENDBRANCH   2  16
TORSDOF 4
ENDMDL
MODEL 5
REMARK VINA RESULT:     -11.2      4.466     10.401
REMARK  Name = 23647652
REMARK  4 active torsions:
REMARK  status: ('A' for Active; 'I' for Inactive)
REMARK    1  A    between atoms: C_2  and  C_16
REMARK    2  A    between atoms: C_4  and  C_10
REMARK    3  A    between atoms: C_17  and  S_22
REMARK    4  A    between atoms: S_22  and  N_25
REMARK                            x       y       z     vdW  Elec       q    Type
REMARK                         _______ _______ _______ _____ _____    ______ ____
ROOT
ATOM      1  O   UNL     1      34.978 -23.154 -16.472  0.00  0.00    -0.453 OA
ATOM      2  C   UNL     1      33.906 -22.498 -16.988  0.00  0.00    +0.145 C 
ATOM      3  C   UNL     1      32.760 -22.834 -16.307  0.00  0.00    +0.041 C 
ATOM      4  C   UNL     1      34.512 -23.919 -15.451  0.00  0.00    +0.147 C 
ATOM      5  C   UNL     1      33.153 -23.758 -15.309  0.00  0.00    +0.041 C 
ENDROOT
BRANCH   4  10
ATOM      6  S   UNL     1      35.284 -23.141 -12.466  0.00  0.00    -0.027 S 
ATOM      7  O   UNL     1      37.108 -26.425 -13.065  0.00  0.00    -0.209 OA
ATOM      8  N   UNL     1      36.855 -24.879 -11.356  0.00  0.00    -0.311 NA
ATOM      9  N   UNL     1      36.257 -23.019  -9.985  0.00  0.00    -0.327 N 
ATOM     10  C   UNL     1      35.361 -24.745 -14.680  0.00  0.00    +0.057 C 
ATOM     11  C   UNL     1      35.741 -24.496 -13.409  0.00  0.00    +0.131 C 
ATOM     12  C   UNL     1      36.637 -25.384 -12.624  0.00  0.00    +0.213 C 
ATOM     13  C   UNL     1      36.241 -23.758 -11.129  0.00  0.00    +0.222 C 
ATOM     14  H   UNL     1      35.747 -22.179  -9.934  0.00  0.00    +0.145 HD
ATOM     15  H   UNL     1      36.780 -23.325  -9.208  0.00  0.00    +0.145 HD
ENDBRANCH   4  10
BRANCH   2  16
ATOM     16  C   UNL     1      34.193 -21.620 -18.097  0.00  0.00    +0.035 C 
ATOM     17  C   UNL     1      34.744 -19.929 -20.245  0.00  0.00    +0.122 C 
ATOM     18  C   UNL     1      35.509 -21.255 -18.377  0.00  0.00    +0.004 C 
ATOM     19  C   UNL     1      33.152 -21.140 -18.891  0.00  0.00    +0.004 C 
ATOM     20  C   UNL     1      35.785 -20.410 -19.451  0.00  0.00    +0.020 C 
ATOM     21  C   UNL     1      33.427 -20.294 -19.965  0.00  0.00    +0.020 C 
BRANCH  17  22
ATOM     22  S   UNL     1      35.089 -18.866 -21.587  0.00  0.00    +0.060 S 
ATOM     23  O   UNL     1      36.524 -18.877 -21.837  0.00  0.00    -0.153 OA
ATOM     24  O   UNL     1      34.174 -19.206 -22.669  0.00  0.00    -0.153 OA
BRANCH  22  25
ATOM     25  N   UNL     1      34.653 -17.334 -20.966  0.00  0.00    -0.178 NA
ATOM     26  C   UNL     1      34.626 -16.165 -21.856  0.00  0.00    +0.110 C 
ATOM     27  H   UNL     1      35.311 -17.121 -20.218  0.00  0.00    +0.149 HD
ENDBRANCH  22  25
ENDBRANCH  17  22
ENDBRANCH   2  16
TORSDOF 4
ENDMDL
MODEL 6
REMARK VINA RESULT:     -10.6      2.202      9.085
REMARK  Name = 23647652
REMARK  4 active torsions:
REMARK  status: ('A' for Active; 'I' for Inactive)
REMARK    1  A    between atoms: C_2  and  C_16
REMARK    2  A    between atoms: C_4  and  C_10
REMARK    3  A    between atoms: C_17  and  S_22
REMARK    4  A    between atoms: S_22  and  N_25
REMARK                            x       y       z     vdW  Elec       q    Type
REMARK                         _______ _______ _______ _____ _____    ______ ____
ROOT
ATOM      1  O   UNL     1      33.786 -20.314 -19.753  0.00  0.00    -0.453 OA
ATOM      2  C   UNL     1      34.876 -19.818 -20.394  0.00  0.00    +0.145 C 
ATOM      3  C   UNL     1      36.022 -20.431 -19.947  0.00  0.00    +0.041 C 
ATOM      4  C   UNL     1      34.241 -21.255 -18.885  0.00  0.00    +0.147 C 
ATOM      5  C   UNL     1      35.610 -21.366 -18.966  0.00  0.00    +0.041 C 
ENDROOT
BRANCH   4  10
ATOM      6  S   UNL     1      35.170 -22.193 -15.992  0.00  0.00    -0.027 S 
ATOM      7  O   UNL     1      31.605 -23.489 -16.282  0.00  0.00    -0.209 OA
ATOM      8  N   UNL     1      33.325 -23.506 -14.728  0.00  0.00    -0.311 NA
ATOM      9  N   UNL     1      35.375 -23.221 -13.538  0.00  0.00    -0.327 N 
ATOM     10  C   UNL     1      33.372 -21.986 -18.042  0.00  0.00    +0.057 C 
ATOM     11  C   UNL     1      33.678 -22.423 -16.803  0.00  0.00    +0.131 C 
ATOM     12  C   UNL     1      32.742 -23.190 -15.941  0.00  0.00    +0.213 C 
ATOM     13  C   UNL     1      34.543 -23.072 -14.606  0.00  0.00    +0.222 C 
ATOM     14  H   UNL     1      36.283 -22.844 -13.565  0.00  0.00    +0.145 HD
ATOM     15  H   UNL     1      35.067 -23.707 -12.738  0.00  0.00    +0.145 HD
ENDBRANCH   4  10
BRANCH   2  16
ATOM     16  C   UNL     1      34.604 -18.792 -21.372  0.00  0.00    +0.035 C 
ATOM     17  C   UNL     1      34.084 -16.812 -23.266  0.00  0.00    +0.122 C 
ATOM     18  C   UNL     1      34.916 -17.462 -21.094  0.00  0.00    +0.004 C 
ATOM     19  C   UNL     1      34.032 -19.132 -22.598  0.00  0.00    +0.004 C 
ATOM     20  C   UNL     1      34.656 -16.471 -22.041  0.00  0.00    +0.020 C 
ATOM     21  C   UNL     1      33.772 -18.142 -23.545  0.00  0.00    +0.020 C 
BRANCH  17  22
ATOM     22  S   UNL     1      33.754 -15.571 -24.450  0.00  0.00    +0.060 S 
ATOM     23  O   UNL     1      35.019 -15.017 -24.913  0.00  0.00    -0.153 OA
ATOM     24  O   UNL     1      32.818 -16.121 -25.421  0.00  0.00    -0.153 OA
BRANCH  22  25
ATOM     25  N   UNL     1      32.943 -14.384 -23.524  0.00  0.00    -0.178 NA
ATOM     26  C   UNL     1      33.598 -13.097 -23.250  0.00  0.00    +0.110 C 
ATOM     27  H   UNL     1      32.734 -14.807 -22.620  0.00  0.00    +0.149 HD
ENDBRANCH  22  25
ENDBRANCH  17  22
ENDBRANCH   2  16
TORSDOF 4
ENDMDL
MODEL 7
REMARK VINA RESULT:     -10.3      3.363      9.128
REMARK  Name = 23647652
REMARK  4 active torsions:
REMARK  status: ('A' for Active; 'I' for Inactive)
REMARK    1  A    between atoms: C_2  and  C_16
REMARK    2  A    between atoms: C_4  and  C_10
REMARK    3  A    between atoms: C_17  and  S_22
REMARK    4  A    between atoms: S_22  and  N_25
REMARK                            x       y       z     vdW  Elec       q    Type
REMARK                         _______ _______ _______ _____ _____    ______ ____
ROOT
ATOM      1  O   UNL     1      34.400 -16.102 -21.333  0.00  0.00    -0.453 OA
ATOM      2  C   UNL     1      34.037 -15.367 -22.416  0.00  0.00    +0.145 C 
ATOM      3  C   UNL     1      34.417 -15.996 -23.577  0.00  0.00    +0.041 C 
ATOM      4  C   UNL     1      35.020 -17.214 -21.808  0.00  0.00    +0.147 C 
ATOM      5  C   UNL     1      35.055 -17.197 -23.183  0.00  0.00    +0.041 C 
ENDROOT
BRANCH   4  10
ATOM      6  S   UNL     1      33.155 -19.542 -20.704  0.00  0.00    -0.027 S 
ATOM      7  O   UNL     1      36.561 -20.289 -19.184  0.00  0.00    -0.209 OA
ATOM      8  N   UNL     1      34.427 -21.194 -19.163  0.00  0.00    -0.311 NA
ATOM      9  N   UNL     1      32.114 -21.680 -19.494  0.00  0.00    -0.327 N 
ATOM     10  C   UNL     1      35.534 -18.214 -20.950  0.00  0.00    +0.057 C 
ATOM     11  C   UNL     1      34.820 -19.237 -20.435  0.00  0.00    +0.131 C 
ATOM     12  C   UNL     1      35.389 -20.273 -19.536  0.00  0.00    +0.213 C 
ATOM     13  C   UNL     1      33.256 -20.959 -19.672  0.00  0.00    +0.222 C 
ATOM     14  H   UNL     1      31.281 -21.399 -19.937  0.00  0.00    +0.145 HD
ATOM     15  H   UNL     1      32.122 -22.483 -18.924  0.00  0.00    +0.145 HD
ENDBRANCH   4  10
BRANCH   2  16
ATOM     16  C   UNL     1      33.356 -14.129 -22.123  0.00  0.00    +0.035 C 
ATOM     17  C   UNL     1      32.032 -11.740 -21.555  0.00  0.00    +0.122 C 
ATOM     18  C   UNL     1      33.138 -13.195 -23.135  0.00  0.00    +0.004 C 
ATOM     19  C   UNL     1      32.911 -13.869 -20.827  0.00  0.00    +0.004 C 
ATOM     20  C   UNL     1      32.476 -12.000 -22.852  0.00  0.00    +0.020 C 
ATOM     21  C   UNL     1      32.250 -12.674 -20.543  0.00  0.00    +0.020 C 
BRANCH  17  22
ATOM     22  S   UNL     1      31.208 -10.243 -21.199  0.00  0.00    +0.060 S 
ATOM     23  O   UNL     1      29.855 -10.314 -21.734  0.00  0.00    -0.153 OA
ATOM     24  O   UNL     1      31.401  -9.954 -19.785  0.00  0.00    -0.153 OA
BRANCH  22  25
ATOM     25  N   UNL     1      32.099  -9.105 -22.113  0.00  0.00    -0.178 NA
ATOM     26  C   UNL     1      31.427  -8.318 -23.158  0.00  0.00    +0.110 C 
ATOM     27  H   UNL     1      32.852  -9.618 -22.569  0.00  0.00    +0.149 HD
ENDBRANCH  22  25
ENDBRANCH  17  22
ENDBRANCH   2  16
TORSDOF 4
ENDMDL
MODEL 8
REMARK VINA RESULT:     -10.2      7.393      9.496
REMARK  Name = 23647652
REMARK  4 active torsions:
REMARK  status: ('A' for Active; 'I' for Inactive)
REMARK    1  A    between atoms: C_2  and  C_16
REMARK    2  A    between atoms: C_4  and  C_10
REMARK    3  A    between atoms: C_17  and  S_22
REMARK    4  A    between atoms: S_22  and  N_25
REMARK                            x       y       z     vdW  Elec       q    Type
REMARK                         _______ _______ _______ _____ _____    ______ ____
ROOT
ATOM      1  O   UNL     1      32.731 -22.566 -16.097  0.00  0.00    -0.453 OA
ATOM      2  C   UNL     1      33.972 -22.628 -16.646  0.00  0.00    +0.145 C 
ATOM      3  C   UNL     1      33.934 -22.258 -17.970  0.00  0.00    +0.041 C 
ATOM      4  C   UNL     1      31.891 -22.153 -17.081  0.00  0.00    +0.147 C 
ATOM      5  C   UNL     1      32.582 -21.949 -18.253  0.00  0.00    +0.041 C 
ENDROOT
BRANCH   4  10
ATOM      6  S   UNL     1      30.250 -24.177 -15.257  0.00  0.00    -0.027 S 
ATOM      7  O   UNL     1      27.651 -21.641 -16.391  0.00  0.00    -0.209 OA
ATOM      8  N   UNL     1      27.741 -23.550 -15.078  0.00  0.00    -0.311 NA
ATOM      9  N   UNL     1      28.395 -25.502 -13.870  0.00  0.00    -0.327 N 
ATOM     10  C   UNL     1      30.505 -21.977 -16.863  0.00  0.00    +0.057 C 
ATOM     11  C   UNL     1      29.730 -22.782 -16.106  0.00  0.00    +0.131 C 
ATOM     12  C   UNL     1      28.275 -22.571 -15.895  0.00  0.00    +0.213 C 
ATOM     13  C   UNL     1      28.611 -24.426 -14.678  0.00  0.00    +0.222 C 
ATOM     14  H   UNL     1      29.142 -26.098 -13.636  0.00  0.00    +0.145 HD
ATOM     15  H   UNL     1      27.492 -25.682 -13.521  0.00  0.00    +0.145 HD
ENDBRANCH   4  10
BRANCH   2  16
ATOM     16  C   UNL     1      35.024 -23.052 -15.754  0.00  0.00    +0.035 C 
ATOM     17  C   UNL     1      37.053 -23.870 -14.023  0.00  0.00    +0.122 C 
ATOM     18  C   UNL     1      36.250 -22.387 -15.753  0.00  0.00    +0.004 C 
ATOM     19  C   UNL     1      34.812 -24.125 -14.889  0.00  0.00    +0.004 C 
ATOM     20  C   UNL     1      37.264 -22.795 -14.888  0.00  0.00    +0.020 C 
ATOM     21  C   UNL     1      35.827 -24.535 -14.024  0.00  0.00    +0.020 C 
BRANCH  17  22
ATOM     22  S   UNL     1      38.325 -24.384 -12.943  0.00  0.00    +0.060 S 
ATOM     23  O   UNL     1      38.445 -23.413 -11.864  0.00  0.00    -0.153 OA
ATOM     24  O   UNL     1      38.093 -25.785 -12.619  0.00  0.00    -0.153 OA
BRANCH  22  25
ATOM     25  N   UNL     1      39.715 -24.277 -13.933  0.00  0.00    -0.178 NA
ATOM     26  C   UNL     1      40.023 -25.358 -14.881  0.00  0.00    +0.110 C 
ATOM     27  H   UNL     1      40.516 -24.194 -13.309  0.00  0.00    +0.149 HD
ENDBRANCH  22  25
ENDBRANCH  17  22
ENDBRANCH   2  16
TORSDOF 4
ENDMDL
MODEL 9
REMARK VINA RESULT:     -10.1      2.983      8.758
REMARK  Name = 23647652
REMARK  4 active torsions:
REMARK  status: ('A' for Active; 'I' for Inactive)
REMARK    1  A    between atoms: C_2  and  C_16
REMARK    2  A    between atoms: C_4  and  C_10
REMARK    3  A    between atoms: C_17  and  S_22
REMARK    4  A    between atoms: S_22  and  N_25
REMARK                            x       y       z     vdW  Elec       q    Type
REMARK                         _______ _______ _______ _____ _____    ______ ____
ROOT
ATOM      1  O   UNL     1      34.683 -16.977 -20.984  0.00  0.00    -0.453 OA
ATOM      2  C   UNL     1      34.432 -16.288 -22.127  0.00  0.00    +0.145 C 
ATOM      3  C   UNL     1      34.895 -16.981 -23.221  0.00  0.00    +0.041 C 
ATOM      4  C   UNL     1      35.313 -18.123 -21.351  0.00  0.00    +0.147 C 
ATOM      5  C   UNL     1      35.467 -18.173 -22.717  0.00  0.00    +0.041 C 
ENDROOT
BRANCH   4  10
ATOM      6  S   UNL     1      33.221 -20.119 -20.027  0.00  0.00    -0.027 S 
ATOM      7  O   UNL     1      36.547 -21.094 -18.458  0.00  0.00    -0.209 OA
ATOM      8  N   UNL     1      34.327 -21.752 -18.344  0.00  0.00    -0.311 NA
ATOM      9  N   UNL     1      31.970 -22.009 -18.619  0.00  0.00    -0.327 N 
ATOM     10  C   UNL     1      35.727 -19.090 -20.406  0.00  0.00    +0.057 C 
ATOM     11  C   UNL     1      34.913 -19.976 -19.795  0.00  0.00    +0.131 C 
ATOM     12  C   UNL     1      35.378 -20.981 -18.805  0.00  0.00    +0.213 C 
ATOM     13  C   UNL     1      33.182 -21.438 -18.867  0.00  0.00    +0.222 C 
ATOM     14  H   UNL     1      31.167 -21.680 -19.082  0.00  0.00    +0.145 HD
ATOM     15  H   UNL     1      31.898 -22.752 -17.976  0.00  0.00    +0.145 HD
ENDBRANCH   4  10
BRANCH   2  16
ATOM     16  C   UNL     1      33.758 -15.024 -21.953  0.00  0.00    +0.035 C 
ATOM     17  C   UNL     1      32.451 -12.583 -21.614  0.00  0.00    +0.122 C 
ATOM     18  C   UNL     1      33.362 -14.284 -23.067  0.00  0.00    +0.004 C 
ATOM     19  C   UNL     1      33.501 -14.543 -20.669  0.00  0.00    +0.004 C 
ATOM     20  C   UNL     1      32.708 -13.064 -22.898  0.00  0.00    +0.020 C 
ATOM     21  C   UNL     1      32.847 -13.323 -20.500  0.00  0.00    +0.020 C 
BRANCH  17  22
ATOM     22  S   UNL     1      31.636 -11.053 -21.402  0.00  0.00    +0.060 S 
ATOM     23  O   UNL     1      32.282 -10.057 -22.247  0.00  0.00    -0.153 OA
ATOM     24  O   UNL     1      30.206 -11.289 -21.542  0.00  0.00    -0.153 OA
BRANCH  22  25
ATOM     25  N   UNL     1      31.969 -10.682 -19.766  0.00  0.00    -0.178 NA
ATOM     26  C   UNL     1      31.131  -9.709 -19.052  0.00  0.00    +0.110 C 
ATOM     27  H   UNL     1      32.925 -10.330 -19.732  0.00  0.00    +0.149 HD
ENDBRANCH  22  25
ENDBRANCH  17  22
ENDBRANCH   2  16
TORSDOF 4
ENDMDL
