MODEL 1
REMARK VINA RESULT:     -11.6      0.000      0.000
REMARK  Name = 59657596
REMARK  4 active torsions:
REMARK  status: ('A' for Active; 'I' for Inactive)
REMARK    1  A    between atoms: C_13  and  C_19
REMARK    2  A    between atoms: N_18  and  C_27
REMARK    3  A    between atoms: C_27  and  C_28
REMARK    4  A    between atoms: C_28  and  N_29
REMARK                            x       y       z     vdW  Elec       q    Type
REMARK                         _______ _______ _______ _____ _____    ______ ____
ROOT
ATOM      1  O   UNL     1      34.498 -20.083 -22.210  0.00  0.00    -0.350 OA
ATOM      2  O   UNL     1      31.991 -22.221 -17.568  0.00  0.00    -0.270 OA
ATOM      3  N   UNL     1      33.585 -21.482 -19.109  0.00  0.00    -0.276 N 
ATOM      4  C   UNL     1      34.167 -19.356 -20.991  0.00  0.00    +0.115 C 
ATOM      5  C   UNL     1      32.724 -19.711 -20.582  0.00  0.00    +0.053 C 
ATOM      6  C   UNL     1      35.169 -19.774 -19.902  0.00  0.00    +0.053 C 
ATOM      7  C   UNL     1      34.296 -17.921 -21.392  0.00  0.00    +0.001 C 
ATOM      8  C   UNL     1      34.980 -21.235 -19.495  0.00  0.00    +0.096 C 
ATOM      9  C   UNL     1      32.604 -21.173 -20.148  0.00  0.00    +0.096 C 
ATOM     10  C   UNL     1      34.447 -17.841 -22.771  0.00  0.00    +0.005 C 
ATOM     11  C   UNL     1      34.421 -19.202 -23.354  0.00  0.00    +0.169 C 
ATOM     12  C   UNL     1      34.265 -16.775 -20.614  0.00  0.00    -0.002 C 
ATOM     13  C   UNL     1      33.157 -21.993 -17.883  0.00  0.00    +0.250 C 
ATOM     14  C   UNL     1      34.568 -16.622 -23.415  0.00  0.00    -0.002 C 
ATOM     15  C   UNL     1      34.394 -15.537 -21.247  0.00  0.00    -0.000 C 
ATOM     16  C   UNL     1      34.545 -15.461 -22.639  0.00  0.00    -0.000 C 
ENDROOT
BRANCH  13  19
ATOM     17 CL   UNL     1      34.443 -24.193 -11.270  0.00  0.00    -0.082 Cl
ATOM     18  N   UNL     1      36.157 -22.481 -15.889  0.00  0.00    -0.288 N 
ATOM     19  C   UNL     1      34.171 -22.278 -16.860  0.00  0.00    +0.070 C 
ATOM     20  C   UNL     1      33.972 -22.751 -15.532  0.00  0.00    +0.019 C 
ATOM     21  C   UNL     1      35.525 -22.122 -17.049  0.00  0.00    +0.070 C 
ATOM     22  C   UNL     1      35.233 -22.869 -14.945  0.00  0.00    +0.053 C 
ATOM     23  C   UNL     1      32.834 -23.091 -14.772  0.00  0.00    +0.002 C 
ATOM     24  C   UNL     1      35.416 -23.312 -13.630  0.00  0.00    +0.026 C 
ATOM     25  C   UNL     1      33.002 -23.535 -13.455  0.00  0.00    +0.011 C 
ATOM     26  C   UNL     1      34.274 -23.643 -12.895  0.00  0.00    +0.059 C 
BRANCH  18  27
ATOM     27  C   UNL     1      37.591 -22.450 -15.699  0.00  0.00    +0.073 C 
BRANCH  27  28
ATOM     28  C   UNL     1      38.028 -23.385 -14.572  0.00  0.00    -0.055 C 
BRANCH  28  29
ATOM     29  N   UNL     1      38.440 -24.673 -15.116  0.00  0.00    +0.385 N 
ATOM     30  C   UNL     1      37.626 -25.754 -14.557  0.00  0.00    -0.101 C 
ATOM     31  C   UNL     1      39.859 -24.916 -14.848  0.00  0.00    -0.101 C 
ATOM     32  H   UNL     1      38.301 -24.652 -16.126  0.00  0.00    -0.080 HD
ENDBRANCH  28  29
ENDBRANCH  27  28
ENDBRANCH  18  27
ENDBRANCH  13  19
TORSDOF 4
ENDMDL
MODEL 2
REMARK VINA RESULT:     -10.3     10.271     15.923
REMARK  Name = 59657596
REMARK  4 active torsions:
REMARK  status: ('A' for Active; 'I' for Inactive)
REMARK    1  A    between atoms: C_13  and  C_19
REMARK    2  A    between atoms: N_18  and  C_27
REMARK    3  A    between atoms: C_27  and  C_28
REMARK    4  A    between atoms: C_28  and  N_29
REMARK                            x       y       z     vdW  Elec       q    Type
REMARK                         _______ _______ _______ _____ _____    ______ ____
ROOT
ATOM      1  O   UNL     1      33.501 -12.675 -21.202  0.00  0.00    -0.350 OA
ATOM      2  O   UNL     1      29.498  -8.805 -22.389  0.00  0.00    -0.270 OA
ATOM      3  N   UNL     1      31.551  -9.894 -22.135  0.00  0.00    -0.276 N 
ATOM      4  C   UNL     1      32.870 -12.450 -22.496  0.00  0.00    +0.115 C 
ATOM      5  C   UNL     1      31.347 -12.340 -22.288  0.00  0.00    +0.053 C 
ATOM      6  C   UNL     1      33.443 -11.150 -23.084  0.00  0.00    +0.053 C 
ATOM      7  C   UNL     1      33.240 -13.667 -23.283  0.00  0.00    +0.001 C 
ATOM      8  C   UNL     1      33.013  -9.928 -22.273  0.00  0.00    +0.096 C 
ATOM      9  C   UNL     1      30.973 -11.080 -21.505  0.00  0.00    +0.096 C 
ATOM     10  C   UNL     1      33.819 -14.604 -22.436  0.00  0.00    +0.005 C 
ATOM     11  C   UNL     1      33.860 -14.068 -21.056  0.00  0.00    +0.169 C 
ATOM     12  C   UNL     1      33.065 -13.940 -24.630  0.00  0.00    -0.002 C 
ATOM     13  C   UNL     1      30.720  -8.843 -22.525  0.00  0.00    +0.250 C 
ATOM     14  C   UNL     1      34.239 -15.837 -22.903  0.00  0.00    -0.002 C 
ATOM     15  C   UNL     1      33.491 -15.177 -25.118  0.00  0.00    -0.000 C 
ATOM     16  C   UNL     1      34.074 -16.120 -24.260  0.00  0.00    -0.000 C 
ENDROOT
BRANCH  13  19
ATOM     17 CL   UNL     1      31.354  -1.786 -22.618  0.00  0.00    -0.082 Cl
ATOM     18  N   UNL     1      32.573  -6.470 -24.561  0.00  0.00    -0.288 N 
ATOM     19  C   UNL     1      31.336  -7.675 -23.167  0.00  0.00    +0.070 C 
ATOM     20  C   UNL     1      31.173  -6.301 -22.833  0.00  0.00    +0.019 C 
ATOM     21  C   UNL     1      32.203  -7.746 -24.232  0.00  0.00    +0.070 C 
ATOM     22  C   UNL     1      31.960  -5.566 -23.723  0.00  0.00    +0.053 C 
ATOM     23  C   UNL     1      30.428  -5.609 -21.856  0.00  0.00    +0.002 C 
ATOM     24  C   UNL     1      32.039  -4.170 -23.685  0.00  0.00    +0.026 C 
ATOM     25  C   UNL     1      30.499  -4.213 -21.806  0.00  0.00    +0.011 C 
ATOM     26  C   UNL     1      31.292  -3.506 -22.708  0.00  0.00    +0.059 C 
BRANCH  18  27
ATOM     27  C   UNL     1      33.480  -6.136 -25.638  0.00  0.00    +0.073 C 
BRANCH  27  28
ATOM     28  C   UNL     1      32.726  -5.809 -26.926  0.00  0.00    -0.055 C 
BRANCH  28  29
ATOM     29  N   UNL     1      33.579  -5.048 -27.831  0.00  0.00    +0.385 N 
ATOM     30  C   UNL     1      33.457  -5.552 -29.200  0.00  0.00    -0.101 C 
ATOM     31  C   UNL     1      34.975  -5.103 -27.392  0.00  0.00    -0.101 C 
ATOM     32  H   UNL     1      33.273  -4.075 -27.815  0.00  0.00    -0.080 HD
ENDBRANCH  28  29
ENDBRANCH  27  28
ENDBRANCH  18  27
ENDBRANCH  13  19
TORSDOF 4
ENDMDL
MODEL 3
REMARK VINA RESULT:     -10.0      3.861      8.604
REMARK  Name = 59657596
REMARK  4 active torsions:
REMARK  status: ('A' for Active; 'I' for Inactive)
REMARK    1  A    between atoms: C_13  and  C_19
REMARK    2  A    between atoms: N_18  and  C_27
REMARK    3  A    between atoms: C_27  and  C_28
REMARK    4  A    between atoms: C_28  and  N_29
REMARK                            x       y       z     vdW  Elec       q    Type
REMARK                         _______ _______ _______ _____ _____    ______ ____
ROOT
ATOM      1  O   UNL     1      37.038 -22.887 -12.443  0.00  0.00    -0.350 OA
ATOM      2  O   UNL     1      31.654 -24.678 -12.906  0.00  0.00    -0.270 OA
ATOM      3  N   UNL     1      33.676 -23.559 -13.254  0.00  0.00    -0.276 N 
ATOM      4  C   UNL     1      36.548 -23.944 -13.318  0.00  0.00    +0.115 C 
ATOM      5  C   UNL     1      35.619 -24.867 -12.505  0.00  0.00    +0.053 C 
ATOM      6  C   UNL     1      35.790 -23.285 -14.483  0.00  0.00    +0.053 C 
ATOM      7  C   UNL     1      37.795 -24.648 -13.749  0.00  0.00    +0.001 C 
ATOM      8  C   UNL     1      34.505 -22.608 -14.006  0.00  0.00    +0.096 C 
ATOM      9  C   UNL     1      34.334 -24.149 -12.089  0.00  0.00    +0.096 C 
ATOM     10  C   UNL     1      38.868 -24.186 -12.996  0.00  0.00    +0.005 C 
ATOM     11  C   UNL     1      38.395 -23.166 -12.032  0.00  0.00    +0.169 C 
ATOM     12  C   UNL     1      37.974 -25.629 -14.712  0.00  0.00    -0.002 C 
ATOM     13  C   UNL     1      32.355 -23.899 -13.549  0.00  0.00    +0.250 C 
ATOM     14  C   UNL     1      40.146 -24.686 -13.176  0.00  0.00    -0.002 C 
ATOM     15  C   UNL     1      39.259 -26.139 -14.911  0.00  0.00    -0.000 C 
ATOM     16  C   UNL     1      40.338 -25.670 -14.148  0.00  0.00    -0.000 C 
ENDROOT
BRANCH  13  19
ATOM     17 CL   UNL     1      26.347 -21.797 -16.663  0.00  0.00    -0.082 Cl
ATOM     18  N   UNL     1      31.530 -22.373 -16.743  0.00  0.00    -0.288 N 
ATOM     19  C   UNL     1      31.734 -23.296 -14.735  0.00  0.00    +0.070 C 
ATOM     20  C   UNL     1      30.354 -23.030 -14.965  0.00  0.00    +0.019 C 
ATOM     21  C   UNL     1      32.430 -22.881 -15.846  0.00  0.00    +0.070 C 
ATOM     22  C   UNL     1      30.254 -22.451 -16.232  0.00  0.00    +0.053 C 
ATOM     23  C   UNL     1      29.178 -23.227 -14.214  0.00  0.00    +0.002 C 
ATOM     24  C   UNL     1      29.032 -22.058 -16.788  0.00  0.00    +0.026 C 
ATOM     25  C   UNL     1      27.948 -22.838 -14.757  0.00  0.00    +0.011 C 
ATOM     26  C   UNL     1      27.879 -22.263 -16.025  0.00  0.00    +0.059 C 
BRANCH  18  27
ATOM     27  C   UNL     1      31.885 -21.835 -18.038  0.00  0.00    +0.073 C 
BRANCH  27  28
ATOM     28  C   UNL     1      33.367 -22.046 -18.346  0.00  0.00    -0.055 C 
BRANCH  28  29
ATOM     29  N   UNL     1      33.722 -21.383 -19.596  0.00  0.00    +0.385 N 
ATOM     30  C   UNL     1      35.078 -20.836 -19.522  0.00  0.00    -0.101 C 
ATOM     31  C   UNL     1      32.764 -20.322 -19.907  0.00  0.00    -0.101 C 
ATOM     32  H   UNL     1      33.692 -22.076 -20.344  0.00  0.00    -0.080 HD
ENDBRANCH  28  29
ENDBRANCH  27  28
ENDBRANCH  18  27
ENDBRANCH  13  19
TORSDOF 4
ENDMDL
MODEL 4
REMARK VINA RESULT:      -8.8     11.511     16.278
REMARK  Name = 59657596
REMARK  4 active torsions:
REMARK  status: ('A' for Active; 'I' for Inactive)
REMARK    1  A    between atoms: C_13  and  C_19
REMARK    2  A    between atoms: N_18  and  C_27
REMARK    3  A    between atoms: C_27  and  C_28
REMARK    4  A    between atoms: C_28  and  N_29
REMARK                            x       y       z     vdW  Elec       q    Type
REMARK                         _______ _______ _______ _____ _____    ______ ____
ROOT
ATOM      1  O   UNL     1      33.094  -4.374 -28.059  0.00  0.00    -0.350 OA
ATOM      2  O   UNL     1      30.859  -4.631 -22.830  0.00  0.00    -0.270 OA
ATOM      3  N   UNL     1      31.838  -5.202 -24.874  0.00  0.00    -0.276 N 
ATOM      4  C   UNL     1      33.828  -4.347 -26.800  0.00  0.00    +0.115 C 
ATOM      5  C   UNL     1      33.136  -3.354 -25.847  0.00  0.00    +0.053 C 
ATOM      6  C   UNL     1      33.821  -5.770 -26.216  0.00  0.00    +0.053 C 
ATOM      7  C   UNL     1      35.192  -3.881 -27.199  0.00  0.00    +0.001 C 
ATOM      8  C   UNL     1      32.416  -6.195 -25.788  0.00  0.00    +0.096 C 
ATOM      9  C   UNL     1      31.753  -3.849 -25.422  0.00  0.00    +0.096 C 
ATOM     10  C   UNL     1      35.162  -3.449 -28.520  0.00  0.00    +0.005 C 
ATOM     11  C   UNL     1      33.792  -3.600 -29.061  0.00  0.00    +0.169 C 
ATOM     12  C   UNL     1      36.362  -3.820 -26.459  0.00  0.00    -0.002 C 
ATOM     13  C   UNL     1      31.364  -5.458 -23.586  0.00  0.00    +0.250 C 
ATOM     14  C   UNL     1      36.292  -2.945 -29.141  0.00  0.00    -0.002 C 
ATOM     15  C   UNL     1      37.512  -3.320 -27.073  0.00  0.00    -0.000 C 
ATOM     16  C   UNL     1      37.478  -2.886 -28.406  0.00  0.00    -0.000 C 
ENDROOT
BRANCH  13  19
ATOM     17 CL   UNL     1      31.435  -9.627 -17.857  0.00  0.00    -0.082 Cl
ATOM     18  N   UNL     1      31.721  -9.032 -23.031  0.00  0.00    -0.288 N 
ATOM     19  C   UNL     1      31.480  -6.826 -23.066  0.00  0.00    +0.070 C 
ATOM     20  C   UNL     1      31.436  -7.257 -21.710  0.00  0.00    +0.019 C 
ATOM     21  C   UNL     1      31.656  -7.941 -23.853  0.00  0.00    +0.070 C 
ATOM     22  C   UNL     1      31.588  -8.645 -21.716  0.00  0.00    +0.053 C 
ATOM     23  C   UNL     1      31.278  -6.597 -20.475  0.00  0.00    +0.002 C 
ATOM     24  C   UNL     1      31.593  -9.410 -20.544  0.00  0.00    +0.026 C 
ATOM     25  C   UNL     1      31.281  -7.349 -19.294  0.00  0.00    +0.011 C 
ATOM     26  C   UNL     1      31.436  -8.733 -19.331  0.00  0.00    +0.059 C 
BRANCH  18  27
ATOM     27  C   UNL     1      31.902 -10.392 -23.493  0.00  0.00    +0.073 C 
BRANCH  27  28
ATOM     28  C   UNL     1      33.372 -10.807 -23.452  0.00  0.00    -0.055 C 
BRANCH  28  29
ATOM     29  N   UNL     1      33.485 -12.247 -23.249  0.00  0.00    +0.385 N 
ATOM     30  C   UNL     1      32.871 -12.973 -24.363  0.00  0.00    -0.101 C 
ATOM     31  C   UNL     1      32.863 -12.640 -21.984  0.00  0.00    -0.101 C 
ATOM     32  H   UNL     1      34.475 -12.487 -23.212  0.00  0.00    -0.080 HD
ENDBRANCH  28  29
ENDBRANCH  27  28
ENDBRANCH  18  27
ENDBRANCH  13  19
TORSDOF 4
ENDMDL
MODEL 5
REMARK VINA RESULT:      -8.7      4.709      9.264
REMARK  Name = 59657596
REMARK  4 active torsions:
REMARK  status: ('A' for Active; 'I' for Inactive)
REMARK    1  A    between atoms: C_13  and  C_19
REMARK    2  A    between atoms: N_18  and  C_27
REMARK    3  A    between atoms: C_27  and  C_28
REMARK    4  A    between atoms: C_28  and  N_29
REMARK                            x       y       z     vdW  Elec       q    Type
REMARK                         _______ _______ _______ _____ _____    ______ ____
ROOT
ATOM      1  O   UNL     1      36.925 -22.916 -12.250  0.00  0.00    -0.350 OA
ATOM      2  O   UNL     1      31.596 -24.858 -12.743  0.00  0.00    -0.270 OA
ATOM      3  N   UNL     1      33.566 -23.634 -13.032  0.00  0.00    -0.276 N 
ATOM      4  C   UNL     1      36.446 -23.901 -13.212  0.00  0.00    +0.115 C 
ATOM      5  C   UNL     1      35.576 -24.934 -12.469  0.00  0.00    +0.053 C 
ATOM      6  C   UNL     1      35.631 -23.160 -14.285  0.00  0.00    +0.053 C 
ATOM      7  C   UNL     1      37.704 -24.511 -13.744  0.00  0.00    +0.001 C 
ATOM      8  C   UNL     1      34.338 -22.583 -13.709  0.00  0.00    +0.096 C 
ATOM      9  C   UNL     1      34.280 -24.310 -11.950  0.00  0.00    +0.096 C 
ATOM     10  C   UNL     1      38.782 -24.084 -12.978  0.00  0.00    +0.005 C 
ATOM     11  C   UNL     1      38.304 -23.183 -11.905  0.00  0.00    +0.169 C 
ATOM     12  C   UNL     1      37.888 -25.386 -14.803  0.00  0.00    -0.002 C 
ATOM     13  C   UNL     1      32.250 -23.994 -13.324  0.00  0.00    +0.250 C 
ATOM     14  C   UNL     1      40.071 -24.515 -13.241  0.00  0.00    -0.002 C 
ATOM     15  C   UNL     1      39.184 -25.825 -15.086  0.00  0.00    -0.000 C 
ATOM     16  C   UNL     1      40.268 -25.392 -14.310  0.00  0.00    -0.000 C 
ENDROOT
BRANCH  13  19
ATOM     17 CL   UNL     1      32.823 -21.243 -19.829  0.00  0.00    -0.082 Cl
ATOM     18  N   UNL     1      29.967 -22.312 -15.598  0.00  0.00    -0.288 N 
ATOM     19  C   UNL     1      31.572 -23.302 -14.428  0.00  0.00    +0.070 C 
ATOM     20  C   UNL     1      32.117 -22.899 -15.679  0.00  0.00    +0.019 C 
ATOM     21  C   UNL     1      30.248 -22.927 -14.409  0.00  0.00    +0.070 C 
ATOM     22  C   UNL     1      31.089 -22.281 -16.394  0.00  0.00    +0.053 C 
ATOM     23  C   UNL     1      33.391 -23.003 -16.274  0.00  0.00    +0.002 C 
ATOM     24  C   UNL     1      31.272 -21.758 -17.679  0.00  0.00    +0.026 C 
ATOM     25  C   UNL     1      33.588 -22.484 -17.559  0.00  0.00    +0.011 C 
ATOM     26  C   UNL     1      32.544 -21.872 -18.249  0.00  0.00    +0.059 C 
BRANCH  18  27
ATOM     27  C   UNL     1      28.670 -21.777 -15.952  0.00  0.00    +0.073 C 
BRANCH  27  28
ATOM     28  C   UNL     1      27.808 -22.819 -16.665  0.00  0.00    -0.055 C 
BRANCH  28  29
ATOM     29  N   UNL     1      26.405 -22.426 -16.626  0.00  0.00    +0.385 N 
ATOM     30  C   UNL     1      26.085 -21.543 -17.750  0.00  0.00    -0.101 C 
ATOM     31  C   UNL     1      26.089 -21.766 -15.358  0.00  0.00    -0.101 C 
ATOM     32  H   UNL     1      25.835 -23.269 -16.703  0.00  0.00    -0.080 HD
ENDBRANCH  28  29
ENDBRANCH  27  28
ENDBRANCH  18  27
ENDBRANCH  13  19
TORSDOF 4
ENDMDL
