MODEL 1
REMARK VINA RESULT:     -12.8      0.000      0.000
REMARK  Name = 118513932
REMARK  2 active torsions:
REMARK  status: ('A' for Active; 'I' for Inactive)
REMARK    1  A    between atoms: C_4  and  N_24
REMARK    2  A    between atoms: C_10  and  C_15
REMARK                            x       y       z     vdW  Elec       q    Type
REMARK                         _______ _______ _______ _____ _____    ______ ____
ROOT
ATOM      1  O   UNL     1      31.947 -22.289 -18.200  0.00  0.00    -0.274 OA
ATOM      2  N   UNL     1      34.204 -21.851 -17.711  0.00  0.00    -0.209 N 
ATOM      3  N   UNL     1      35.391 -20.289 -19.073  0.00  0.00    -0.389 NA
ATOM      4  C   UNL     1      35.340 -22.931 -15.887  0.00  0.00    +0.063 C 
ATOM      5  C   UNL     1      34.240 -22.727 -16.632  0.00  0.00    +0.089 C 
ATOM      6  C   UNL     1      36.540 -22.199 -16.235  0.00  0.00    +0.020 C 
ATOM      7  C   UNL     1      36.570 -21.343 -17.262  0.00  0.00    +0.050 C 
ATOM      8  C   UNL     1      35.345 -21.124 -18.079  0.00  0.00    +0.193 C 
ATOM      9  C   UNL     1      33.007 -21.709 -18.425  0.00  0.00    +0.242 C 
ATOM     10  C   UNL     1      34.237 -20.130 -19.787  0.00  0.00    +0.139 C 
ATOM     11  C   UNL     1      33.077 -20.752 -19.555  0.00  0.00    +0.146 C 
ENDROOT
BRANCH  10  15
ATOM     12  N   UNL     1      34.314 -17.173 -21.856  0.00  0.00    -0.178 N 
ATOM     13  N   UNL     1      34.292 -17.906 -20.713  0.00  0.00    -0.173 NA
ATOM     14  N   UNL     1      34.336 -16.654 -24.023  0.00  0.00    -0.392 NA
ATOM     15  C   UNL     1      34.263 -19.193 -20.915  0.00  0.00    +0.124 C 
ATOM     16  C   UNL     1      34.254 -19.843 -22.260  0.00  0.00    +0.023 C 
ATOM     17  C   UNL     1      34.278 -19.060 -23.356  0.00  0.00    +0.025 C 
ATOM     18  C   UNL     1      34.309 -17.648 -23.156  0.00  0.00    +0.198 C 
ATOM     19  C   UNL     1      34.347 -15.806 -21.925  0.00  0.00    +0.173 C 
ATOM     20  C   UNL     1      34.360 -15.511 -23.266  0.00  0.00    +0.111 C 
ATOM     21  C   UNL     1      34.269 -19.693 -24.723  0.00  0.00    +0.035 C 
ATOM     22  C   UNL     1      34.394 -14.189 -23.909  0.00  0.00    +0.063 C 
ENDBRANCH  10  15
BRANCH   4  24
ATOM     23  N   UNL     1      35.769 -24.965 -12.237  0.00  0.00    +0.389 N 
ATOM     24  N   UNL     1      35.391 -23.786 -14.824  0.00  0.00    -0.311 N 
ATOM     25  C   UNL     1      36.900 -24.788 -13.184  0.00  0.00    -0.027 C 
ATOM     26  C   UNL     1      38.217 -25.452 -12.849  0.00  0.00    -0.020 C 
ATOM     27  C   UNL     1      38.089 -23.962 -12.739  0.00  0.00    -0.020 C 
ATOM     28  C   UNL     1      36.496 -24.733 -14.643  0.00  0.00    +0.071 C 
ATOM     29  C   UNL     1      34.761 -23.925 -12.455  0.00  0.00    -0.060 C 
ATOM     30  C   UNL     1      34.263 -23.942 -13.900  0.00  0.00    +0.067 C 
ATOM     31  H   UNL     1      36.116 -24.902 -11.280  0.00  0.00    -0.084 HD
ATOM     32  H   UNL     1      35.344 -25.879 -12.393  0.00  0.00    -0.084 HD
ENDBRANCH   4  24
TORSDOF 2
ENDMDL
MODEL 2
REMARK VINA RESULT:     -12.4      6.071     10.782
REMARK  Name = 118513932
REMARK  2 active torsions:
REMARK  status: ('A' for Active; 'I' for Inactive)
REMARK    1  A    between atoms: C_4  and  N_24
REMARK    2  A    between atoms: C_10  and  C_15
REMARK                            x       y       z     vdW  Elec       q    Type
REMARK                         _______ _______ _______ _____ _____    ______ ____
ROOT
ATOM      1  O   UNL     1      32.688 -13.015 -25.735  0.00  0.00    -0.274 OA
ATOM      2  N   UNL     1      33.180 -13.392 -23.468  0.00  0.00    -0.209 N 
ATOM      3  N   UNL     1      32.833 -11.618 -21.908  0.00  0.00    -0.389 NA
ATOM      4  C   UNL     1      34.021 -15.506 -22.686  0.00  0.00    +0.063 C 
ATOM      5  C   UNL     1      33.590 -14.705 -23.676  0.00  0.00    +0.089 C 
ATOM      6  C   UNL     1      34.055 -14.966 -21.343  0.00  0.00    +0.020 C 
ATOM      7  C   UNL     1      33.675 -13.712 -21.078  0.00  0.00    +0.050 C 
ATOM      8  C   UNL     1      33.199 -12.834 -22.182  0.00  0.00    +0.193 C 
ATOM      9  C   UNL     1      32.749 -12.638 -24.567  0.00  0.00    +0.242 C 
ATOM     10  C   UNL     1      32.406 -10.859 -22.961  0.00  0.00    +0.139 C 
ATOM     11  C   UNL     1      32.334 -11.254 -24.236  0.00  0.00    +0.146 C 
ENDROOT
BRANCH  10  15
ATOM     12  N   UNL     1      31.402  -7.402 -23.220  0.00  0.00    -0.178 N 
ATOM     13  N   UNL     1      31.786  -8.633 -23.645  0.00  0.00    -0.173 NA
ATOM     14  N   UNL     1      30.840  -5.723 -21.869  0.00  0.00    -0.392 NA
ATOM     15  C   UNL     1      31.988  -9.483 -22.678  0.00  0.00    +0.124 C 
ATOM     16  C   UNL     1      31.824  -9.172 -21.225  0.00  0.00    +0.023 C 
ATOM     17  C   UNL     1      31.441  -7.931 -20.869  0.00  0.00    +0.025 C 
ATOM     18  C   UNL     1      31.215  -6.986 -21.915  0.00  0.00    +0.198 C 
ATOM     19  C   UNL     1      31.127  -6.331 -24.029  0.00  0.00    +0.173 C 
ATOM     20  C   UNL     1      30.784  -5.312 -23.175  0.00  0.00    +0.111 C 
ATOM     21  C   UNL     1      31.269  -7.594 -19.411  0.00  0.00    +0.035 C 
ATOM     22  C   UNL     1      30.394  -3.934 -23.510  0.00  0.00    +0.063 C 
ENDBRANCH  10  15
BRANCH   4  24
ATOM     23  N   UNL     1      34.566 -19.657 -23.031  0.00  0.00    +0.389 N 
ATOM     24  N   UNL     1      34.425 -16.796 -22.874  0.00  0.00    -0.311 N 
ATOM     25  C   UNL     1      34.733 -18.939 -21.741  0.00  0.00    -0.027 C 
ATOM     26  C   UNL     1      35.209 -19.732 -20.545  0.00  0.00    -0.020 C 
ATOM     27  C   UNL     1      33.785 -19.268 -20.607  0.00  0.00    -0.020 C 
ATOM     28  C   UNL     1      35.224 -17.512 -21.874  0.00  0.00    +0.071 C 
ATOM     29  C   UNL     1      33.694 -18.891 -23.925  0.00  0.00    -0.060 C 
ATOM     30  C   UNL     1      34.247 -17.485 -24.156  0.00  0.00    +0.067 C 
ATOM     31  H   UNL     1      34.151 -20.571 -22.858  0.00  0.00    -0.084 HD
ATOM     32  H   UNL     1      35.480 -19.767 -23.472  0.00  0.00    -0.084 HD
ENDBRANCH   4  24
TORSDOF 2
ENDMDL
MODEL 3
REMARK VINA RESULT:     -11.6      6.029     10.716
REMARK  Name = 118513932
REMARK  2 active torsions:
REMARK  status: ('A' for Active; 'I' for Inactive)
REMARK    1  A    between atoms: C_4  and  N_24
REMARK    2  A    between atoms: C_10  and  C_15
REMARK                            x       y       z     vdW  Elec       q    Type
REMARK                         _______ _______ _______ _____ _____    ______ ____
ROOT
ATOM      1  O   UNL     1      32.670 -13.126 -25.783  0.00  0.00    -0.274 OA
ATOM      2  N   UNL     1      33.184 -13.438 -23.511  0.00  0.00    -0.209 N 
ATOM      3  N   UNL     1      32.848 -11.621 -21.998  0.00  0.00    -0.389 NA
ATOM      4  C   UNL     1      34.037 -15.528 -22.678  0.00  0.00    +0.063 C 
ATOM      5  C   UNL     1      33.595 -14.755 -23.686  0.00  0.00    +0.089 C 
ATOM      6  C   UNL     1      34.083 -14.950 -21.351  0.00  0.00    +0.020 C 
ATOM      7  C   UNL     1      33.702 -13.690 -21.118  0.00  0.00    +0.050 C 
ATOM      8  C   UNL     1      33.214 -12.844 -22.241  0.00  0.00    +0.193 C 
ATOM      9  C   UNL     1      32.741 -12.716 -24.626  0.00  0.00    +0.242 C 
ATOM     10  C   UNL     1      32.410 -10.893 -23.068  0.00  0.00    +0.139 C 
ATOM     11  C   UNL     1      32.326 -11.324 -24.330  0.00  0.00    +0.146 C 
ENDROOT
BRANCH  10  15
ATOM     12  N   UNL     1      31.531  -7.742 -21.542  0.00  0.00    -0.178 N 
ATOM     13  N   UNL     1      31.934  -9.037 -21.606  0.00  0.00    -0.173 NA
ATOM     14  N   UNL     1      30.844  -5.719 -22.172  0.00  0.00    -0.392 NA
ATOM     15  C   UNL     1      31.991  -9.510 -22.819  0.00  0.00    +0.124 C 
ATOM     16  C   UNL     1      31.653  -8.735 -24.051  0.00  0.00    +0.023 C 
ATOM     17  C   UNL     1      31.258  -7.454 -23.920  0.00  0.00    +0.025 C 
ATOM     18  C   UNL     1      31.190  -6.918 -22.599  0.00  0.00    +0.198 C 
ATOM     19  C   UNL     1      31.387  -7.009 -20.394  0.00  0.00    +0.173 C 
ATOM     20  C   UNL     1      30.964  -5.769 -20.807  0.00  0.00    +0.111 C 
ATOM     21  C   UNL     1      30.911  -6.652 -25.147  0.00  0.00    +0.035 C 
ATOM     22  C   UNL     1      30.656  -4.591 -19.984  0.00  0.00    +0.063 C 
ENDBRANCH  10  15
BRANCH   4  24
ATOM     23  N   UNL     1      34.578 -19.685 -22.943  0.00  0.00    +0.389 N 
ATOM     24  N   UNL     1      34.442 -16.822 -22.834  0.00  0.00    -0.311 N 
ATOM     25  C   UNL     1      34.708 -18.947 -21.659  0.00  0.00    -0.027 C 
ATOM     26  C   UNL     1      35.145 -19.723 -20.436  0.00  0.00    -0.020 C 
ATOM     27  C   UNL     1      33.724 -19.256 -20.550  0.00  0.00    -0.020 C 
ATOM     28  C   UNL     1      35.208 -17.524 -21.799  0.00  0.00    +0.071 C 
ATOM     29  C   UNL     1      33.736 -18.931 -23.874  0.00  0.00    -0.060 C 
ATOM     30  C   UNL     1      34.301 -17.530 -24.110  0.00  0.00    +0.067 C 
ATOM     31  H   UNL     1      34.155 -20.595 -22.768  0.00  0.00    -0.084 HD
ATOM     32  H   UNL     1      35.504 -19.804 -23.353  0.00  0.00    -0.084 HD
ENDBRANCH   4  24
TORSDOF 2
ENDMDL
MODEL 4
REMARK VINA RESULT:     -10.8      7.442     14.746
REMARK  Name = 118513932
REMARK  2 active torsions:
REMARK  status: ('A' for Active; 'I' for Inactive)
REMARK    1  A    between atoms: C_4  and  N_24
REMARK    2  A    between atoms: C_10  and  C_15
REMARK                            x       y       z     vdW  Elec       q    Type
REMARK                         _______ _______ _______ _____ _____    ______ ____
ROOT
ATOM      1  O   UNL     1      30.256 -10.024 -20.270  0.00  0.00    -0.274 OA
ATOM      2  N   UNL     1      31.822  -9.195 -21.815  0.00  0.00    -0.209 N 
ATOM      3  N   UNL     1      33.288 -10.735 -22.901  0.00  0.00    -0.389 NA
ATOM      4  C   UNL     1      31.983  -6.849 -22.323  0.00  0.00    +0.063 C 
ATOM      5  C   UNL     1      31.421  -7.873 -21.657  0.00  0.00    +0.089 C 
ATOM      6  C   UNL     1      33.057  -7.150 -23.247  0.00  0.00    +0.020 C 
ATOM      7  C   UNL     1      33.488  -8.400 -23.442  0.00  0.00    +0.050 C 
ATOM      8  C   UNL     1      32.858  -9.526 -22.700  0.00  0.00    +0.193 C 
ATOM      9  C   UNL     1      31.173 -10.190 -21.073  0.00  0.00    +0.242 C 
ATOM     10  C   UNL     1      32.673 -11.727 -22.191  0.00  0.00    +0.139 C 
ATOM     11  C   UNL     1      31.676 -11.563 -21.316  0.00  0.00    +0.146 C 
ENDROOT
BRANCH  10  15
ATOM     12  N   UNL     1      33.986 -15.061 -21.762  0.00  0.00    -0.178 N 
ATOM     13  N   UNL     1      33.592 -13.811 -21.406  0.00  0.00    -0.173 NA
ATOM     14  N   UNL     1      34.413 -16.858 -23.007  0.00  0.00    -0.392 NA
ATOM     15  C   UNL     1      33.141 -13.100 -22.401  0.00  0.00    +0.124 C 
ATOM     16  C   UNL     1      33.049 -13.577 -23.814  0.00  0.00    +0.023 C 
ATOM     17  C   UNL     1      33.456 -14.827 -24.102  0.00  0.00    +0.025 C 
ATOM     18  C   UNL     1      33.953 -15.622 -23.026  0.00  0.00    +0.198 C 
ATOM     19  C   UNL     1      34.495 -16.006 -20.913  0.00  0.00    +0.173 C 
ATOM     20  C   UNL     1      34.750 -17.102 -21.701  0.00  0.00    +0.111 C 
ATOM     21  C   UNL     1      33.373 -15.330 -25.520  0.00  0.00    +0.035 C 
ATOM     22  C   UNL     1      35.306 -18.403 -21.302  0.00  0.00    +0.063 C 
ENDBRANCH  10  15
BRANCH   4  24
ATOM     23  N   UNL     1      30.258  -3.020 -22.379  0.00  0.00    +0.389 N 
ATOM     24  N   UNL     1      31.600  -5.547 -22.180  0.00  0.00    -0.311 N 
ATOM     25  C   UNL     1      31.236  -3.465 -23.405  0.00  0.00    -0.027 C 
ATOM     26  C   UNL     1      31.686  -2.458 -24.440  0.00  0.00    -0.020 C 
ATOM     27  C   UNL     1      30.771  -3.576 -24.841  0.00  0.00    -0.020 C 
ATOM     28  C   UNL     1      32.264  -4.459 -22.905  0.00  0.00    +0.071 C 
ATOM     29  C   UNL     1      29.602  -4.180 -21.771  0.00  0.00    -0.060 C 
ATOM     30  C   UNL     1      30.630  -5.132 -21.161  0.00  0.00    +0.067 C 
ATOM     31  H   UNL     1      29.555  -2.426 -22.817  0.00  0.00    -0.084 HD
ATOM     32  H   UNL     1      30.750  -2.498 -21.653  0.00  0.00    -0.084 HD
ENDBRANCH   4  24
TORSDOF 2
ENDMDL
MODEL 5
REMARK VINA RESULT:     -10.5      5.815     12.822
REMARK  Name = 118513932
REMARK  2 active torsions:
REMARK  status: ('A' for Active; 'I' for Inactive)
REMARK    1  A    between atoms: C_4  and  N_24
REMARK    2  A    between atoms: C_10  and  C_15
REMARK                            x       y       z     vdW  Elec       q    Type
REMARK                         _______ _______ _______ _____ _____    ______ ____
ROOT
ATOM      1  O   UNL     1      33.346 -11.797 -25.131  0.00  0.00    -0.274 OA
ATOM      2  N   UNL     1      32.530 -11.721 -22.927  0.00  0.00    -0.209 N 
ATOM      3  N   UNL     1      32.779 -13.651 -21.544  0.00  0.00    -0.389 NA
ATOM      4  C   UNL     1      31.459  -9.759 -22.038  0.00  0.00    +0.063 C 
ATOM      5  C   UNL     1      32.069 -10.414 -23.041  0.00  0.00    +0.089 C 
ATOM      6  C   UNL     1      31.279 -10.458 -20.783  0.00  0.00    +0.020 C 
ATOM      7  C   UNL     1      31.700 -11.715 -20.610  0.00  0.00    +0.050 C 
ATOM      8  C   UNL     1      32.375 -12.430 -21.728  0.00  0.00    +0.193 C 
ATOM      9  C   UNL     1      33.153 -12.315 -24.032  0.00  0.00    +0.242 C 
ATOM     10  C   UNL     1      33.391 -14.256 -22.605  0.00  0.00    +0.139 C 
ATOM     11  C   UNL     1      33.608 -13.707 -23.804  0.00  0.00    +0.146 C 
ENDROOT
BRANCH  10  15
ATOM     12  N   UNL     1      34.824 -17.304 -21.309  0.00  0.00    -0.178 N 
ATOM     13  N   UNL     1      34.458 -15.997 -21.325  0.00  0.00    -0.173 NA
ATOM     14  N   UNL     1      35.111 -19.418 -21.952  0.00  0.00    -0.392 NA
ATOM     15  C   UNL     1      33.855 -15.635 -22.423  0.00  0.00    +0.124 C 
ATOM     16  C   UNL     1      33.574 -16.541 -23.577  0.00  0.00    +0.023 C 
ATOM     17  C   UNL     1      33.964 -17.827 -23.499  0.00  0.00    +0.025 C 
ATOM     18  C   UNL     1      34.626 -18.243 -22.305  0.00  0.00    +0.198 C 
ATOM     19  C   UNL     1      35.470 -17.937 -20.280  0.00  0.00    +0.173 C 
ATOM     20  C   UNL     1      35.635 -19.234 -20.699  0.00  0.00    +0.111 C 
ATOM     21  C   UNL     1      33.692 -18.760 -24.651  0.00  0.00    +0.035 C 
ATOM     22  C   UNL     1      36.269 -20.350 -19.982  0.00  0.00    +0.063 C 
ENDBRANCH  10  15
BRANCH   4  24
ATOM     23  N   UNL     1      30.671  -5.697 -22.758  0.00  0.00    +0.389 N 
ATOM     24  N   UNL     1      31.001  -8.477 -22.135  0.00  0.00    -0.311 N 
ATOM     25  C   UNL     1      31.582  -6.149 -21.675  0.00  0.00    -0.027 C 
ATOM     26  C   UNL     1      32.159  -5.100 -20.750  0.00  0.00    -0.020 C 
ATOM     27  C   UNL     1      33.045  -5.768 -21.760  0.00  0.00    -0.020 C 
ATOM     28  C   UNL     1      31.225  -7.492 -21.072  0.00  0.00    +0.071 C 
ATOM     29  C   UNL     1      30.578  -6.722 -23.800  0.00  0.00    -0.060 C 
ATOM     30  C   UNL     1      30.105  -8.053 -23.215  0.00  0.00    +0.067 C 
ATOM     31  H   UNL     1      31.031  -4.835 -23.165  0.00  0.00    -0.084 HD
ATOM     32  H   UNL     1      29.743  -5.535 -22.367  0.00  0.00    -0.084 HD
ENDBRANCH   4  24
TORSDOF 2
ENDMDL
MODEL 6
REMARK VINA RESULT:     -10.1      1.446      1.779
REMARK  Name = 118513932
REMARK  2 active torsions:
REMARK  status: ('A' for Active; 'I' for Inactive)
REMARK    1  A    between atoms: C_4  and  N_24
REMARK    2  A    between atoms: C_10  and  C_15
REMARK                            x       y       z     vdW  Elec       q    Type
REMARK                         _______ _______ _______ _____ _____    ______ ____
ROOT
ATOM      1  O   UNL     1      32.105 -22.884 -17.570  0.00  0.00    -0.274 OA
ATOM      2  N   UNL     1      34.311 -22.357 -16.956  0.00  0.00    -0.209 N 
ATOM      3  N   UNL     1      35.571 -20.887 -18.355  0.00  0.00    -0.389 NA
ATOM      4  C   UNL     1      35.325 -23.255 -14.968  0.00  0.00    +0.063 C 
ATOM      5  C   UNL     1      34.281 -23.138 -15.806  0.00  0.00    +0.089 C 
ATOM      6  C   UNL     1      36.535 -22.528 -15.288  0.00  0.00    +0.020 C 
ATOM      7  C   UNL     1      36.629 -21.760 -16.379  0.00  0.00    +0.050 C 
ATOM      8  C   UNL     1      35.465 -21.638 -17.299  0.00  0.00    +0.193 C 
ATOM      9  C   UNL     1      33.169 -22.302 -17.765  0.00  0.00    +0.242 C 
ATOM     10  C   UNL     1      34.472 -20.814 -19.163  0.00  0.00    +0.139 C 
ATOM     11  C   UNL     1      33.308 -21.441 -18.964  0.00  0.00    +0.146 C 
ENDROOT
BRANCH  10  15
ATOM     12  N   UNL     1      33.783 -18.994 -22.203  0.00  0.00    -0.178 N 
ATOM     13  N   UNL     1      33.535 -19.799 -21.137  0.00  0.00    -0.173 NA
ATOM     14  N   UNL     1      34.859 -17.666 -23.631  0.00  0.00    -0.392 NA
ATOM     15  C   UNL     1      34.567 -19.974 -20.361  0.00  0.00    +0.124 C 
ATOM     16  C   UNL     1      35.914 -19.367 -20.586  0.00  0.00    +0.023 C 
ATOM     17  C   UNL     1      36.095 -18.579 -21.662  0.00  0.00    +0.025 C 
ATOM     18  C   UNL     1      34.977 -18.374 -22.524  0.00  0.00    +0.198 C 
ATOM     19  C   UNL     1      32.875 -18.649 -23.168  0.00  0.00    +0.173 C 
ATOM     20  C   UNL     1      33.559 -17.833 -24.034  0.00  0.00    +0.111 C 
ATOM     21  C   UNL     1      37.444 -17.955 -21.910  0.00  0.00    +0.035 C 
ATOM     22  C   UNL     1      33.064 -17.176 -25.253  0.00  0.00    +0.063 C 
ENDBRANCH  10  15
BRANCH   4  24
ATOM     23  N   UNL     1      35.607 -24.999 -11.158  0.00  0.00    +0.389 N 
ATOM     24  N   UNL     1      35.309 -24.017 -13.836  0.00  0.00    -0.311 N 
ATOM     25  C   UNL     1      36.739 -25.006 -12.119  0.00  0.00    -0.027 C 
ATOM     26  C   UNL     1      37.995 -25.754 -11.731  0.00  0.00    -0.020 C 
ATOM     27  C   UNL     1      38.001 -24.255 -11.749  0.00  0.00    -0.020 C 
ATOM     28  C   UNL     1      36.327 -25.041 -13.577  0.00  0.00    +0.071 C 
ATOM     29  C   UNL     1      34.693 -23.896 -11.462  0.00  0.00    -0.060 C 
ATOM     30  C   UNL     1      34.181 -23.992 -12.900  0.00  0.00    +0.067 C 
ATOM     31  H   UNL     1      35.968 -24.886 -10.211  0.00  0.00    -0.084 HD
ATOM     32  H   UNL     1      35.101 -25.882 -11.234  0.00  0.00    -0.084 HD
ENDBRANCH   4  24
TORSDOF 2
ENDMDL
MODEL 7
REMARK VINA RESULT:     -10.1      7.991     15.430
REMARK  Name = 118513932
REMARK  2 active torsions:
REMARK  status: ('A' for Active; 'I' for Inactive)
REMARK    1  A    between atoms: C_4  and  N_24
REMARK    2  A    between atoms: C_10  and  C_15
REMARK                            x       y       z     vdW  Elec       q    Type
REMARK                         _______ _______ _______ _____ _____    ______ ____
ROOT
ATOM      1  O   UNL     1      30.093  -9.100 -22.192  0.00  0.00    -0.274 OA
ATOM      2  N   UNL     1      32.235  -8.587 -23.013  0.00  0.00    -0.209 N 
ATOM      3  N   UNL     1      33.778 -10.371 -23.387  0.00  0.00    -0.389 NA
ATOM      4  C   UNL     1      32.908  -6.325 -23.481  0.00  0.00    +0.063 C 
ATOM      5  C   UNL     1      31.994  -7.219 -23.063  0.00  0.00    +0.089 C 
ATOM      6  C   UNL     1      34.202  -6.823 -23.894  0.00  0.00    +0.020 C 
ATOM      7  C   UNL     1      34.497  -8.127 -23.869  0.00  0.00    +0.050 C 
ATOM      8  C   UNL     1      33.477  -9.107 -23.406  0.00  0.00    +0.193 C 
ATOM      9  C   UNL     1      31.217  -9.436 -22.561  0.00  0.00    +0.242 C 
ATOM     10  C   UNL     1      32.803 -11.223 -22.952  0.00  0.00    +0.139 C 
ATOM     11  C   UNL     1      31.577 -10.873 -22.548  0.00  0.00    +0.146 C 
ENDROOT
BRANCH  10  15
ATOM     12  N   UNL     1      33.408 -14.674 -23.817  0.00  0.00    -0.178 N 
ATOM     13  N   UNL     1      33.090 -13.368 -24.011  0.00  0.00    -0.173 NA
ATOM     14  N   UNL     1      33.992 -16.570 -22.803  0.00  0.00    -0.392 NA
ATOM     15  C   UNL     1      33.119 -12.654 -22.921  0.00  0.00    +0.124 C 
ATOM     16  C   UNL     1      33.463 -13.183 -21.566  0.00  0.00    +0.023 C 
ATOM     17  C   UNL     1      33.768 -14.488 -21.441  0.00  0.00    +0.025 C 
ATOM     18  C   UNL     1      33.743 -15.287 -22.623  0.00  0.00    +0.198 C 
ATOM     19  C   UNL     1      33.454 -15.635 -24.792  0.00  0.00    +0.173 C 
ATOM     20  C   UNL     1      33.815 -16.791 -24.144  0.00  0.00    +0.111 C 
ATOM     21  C   UNL     1      34.118 -15.045 -20.085  0.00  0.00    +0.035 C 
ATOM     22  C   UNL     1      34.012 -18.132 -24.714  0.00  0.00    +0.063 C 
ENDBRANCH  10  15
BRANCH   4  24
ATOM     23  N   UNL     1      31.618  -2.372 -24.074  0.00  0.00    +0.389 N 
ATOM     24  N   UNL     1      32.685  -4.980 -23.536  0.00  0.00    -0.311 N 
ATOM     25  C   UNL     1      32.449  -3.094 -25.072  0.00  0.00    -0.027 C 
ATOM     26  C   UNL     1      32.915  -2.332 -26.293  0.00  0.00    -0.020 C 
ATOM     27  C   UNL     1      31.851  -3.378 -26.434  0.00  0.00    -0.020 C 
ATOM     28  C   UNL     1      33.400  -4.114 -24.480  0.00  0.00    +0.071 C 
ATOM     29  C   UNL     1      30.893  -3.328 -23.235  0.00  0.00    -0.060 C 
ATOM     30  C   UNL     1      31.859  -4.289 -22.541  0.00  0.00    +0.067 C 
ATOM     31  H   UNL     1      30.950  -1.774 -24.559  0.00  0.00    -0.084 HD
ATOM     32  H   UNL     1      32.227  -1.805 -23.484  0.00  0.00    -0.084 HD
ENDBRANCH   4  24
TORSDOF 2
ENDMDL
