MODEL 1
REMARK VINA RESULT:     -14.0      0.000      0.000
REMARK  Name = 25243853
REMARK  6 active torsions:
REMARK  status: ('A' for Active; 'I' for Inactive)
REMARK    1  A    between atoms: N_1  and  C_6
REMARK    2  A    between atoms: N_1  and  C_21
REMARK    3  A    between atoms: C_3  and  C_16
REMARK    4  A    between atoms: C_11  and  C_18
REMARK    5  A    between atoms: C_18  and  O_19
REMARK    6  A    between atoms: C_21  and  C_28
REMARK                            x       y       z     vdW  Elec       q    Type
REMARK                         _______ _______ _______ _____ _____    ______ ____
ROOT
ATOM      1  N   UNL     1      34.860 -19.040 -21.557  0.00  0.00    -0.327 N 
ATOM      2  H   UNL     1      34.945 -19.405 -22.467  0.00  0.00    +0.147 HD
ENDROOT
BRANCH   1   6
ATOM      3  C   UNL     1      33.825 -21.654 -18.436  0.00  0.00    +0.054 C 
ATOM      4  C   UNL     1      32.826 -21.021 -19.175  0.00  0.00    +0.006 C 
ATOM      5  C   UNL     1      35.167 -21.420 -18.734  0.00  0.00    +0.006 C 
ATOM      6  C   UNL     1      34.512 -19.919 -20.509  0.00  0.00    +0.045 C 
ATOM      7  C   UNL     1      33.170 -20.153 -20.212  0.00  0.00    +0.014 C 
ATOM      8  C   UNL     1      35.511 -20.552 -19.770  0.00  0.00    +0.014 C 
BRANCH   3  16
ATOM      9  O   UNL     1      32.306 -22.982 -17.345  0.00  0.00    -0.270 OA
ATOM     10  N   UNL     1      34.447 -22.893 -16.406  0.00  0.00    -0.276 N 
ATOM     11  C   UNL     1      35.777 -22.498 -13.855  0.00  0.00    +0.102 C 
ATOM     12  C   UNL     1      34.367 -23.090 -13.955  0.00  0.00    +0.033 C 
ATOM     13  C   UNL     1      36.146 -21.679 -15.095  0.00  0.00    +0.033 C 
ATOM     14  C   UNL     1      34.117 -23.781 -15.294  0.00  0.00    +0.094 C 
ATOM     15  C   UNL     1      35.828 -22.397 -16.407  0.00  0.00    +0.094 C 
ATOM     16  C   UNL     1      33.464 -22.567 -17.345  0.00  0.00    +0.249 C 
BRANCH  11  18
ATOM     17  O   UNL     1      37.943 -23.546 -13.985  0.00  0.00    -0.250 OA
ATOM     18  C   UNL     1      36.781 -23.587 -13.605  0.00  0.00    +0.317 C 
BRANCH  18  19
ATOM     19  O   UNL     1      36.192 -24.597 -12.905  0.00  0.00    -0.444 OA
ATOM     20  C   UNL     1      36.766 -25.894 -13.100  0.00  0.00    +0.256 C 
ENDBRANCH  18  19
ENDBRANCH  11  18
ENDBRANCH   3  16
ENDBRANCH   1   6
BRANCH   1  21
ATOM     21  C   UNL     1      35.095 -17.645 -21.354  0.00  0.00    +0.145 C 
BRANCH  21  28
ATOM     22  N   UNL     1      34.346 -15.530 -22.310  0.00  0.00    -0.392 NA
ATOM     23  N   UNL     1      33.742 -16.735 -24.729  0.00  0.00    -0.200 NA
ATOM     24  N   UNL     1      33.044 -14.700 -25.584  0.00  0.00    -0.271 NA
ATOM     25  N   UNL     1      33.116 -12.710 -24.248  0.00  0.00    -0.310 NA
ATOM     26  N   UNL     1      33.908 -12.824 -22.025  0.00  0.00    -0.329 N 
ATOM     27  N   UNL     1      32.334 -12.638 -26.454  0.00  0.00    -0.283 N 
ATOM     28  C   UNL     1      34.540 -16.845 -22.499  0.00  0.00    +0.133 C 
ATOM     29  C   UNL     1      34.242 -17.439 -23.695  0.00  0.00    +0.193 C 
ATOM     30  C   UNL     1      33.847 -14.827 -23.345  0.00  0.00    +0.248 C 
ATOM     31  C   UNL     1      33.538 -15.421 -24.571  0.00  0.00    +0.131 C 
ATOM     32  C   UNL     1      33.611 -13.469 -23.254  0.00  0.00    +0.231 C 
ATOM     33  C   UNL     1      32.857 -13.383 -25.375  0.00  0.00    +0.207 C 
ATOM     34  H   UNL     1      33.752 -11.857 -21.926  0.00  0.00    +0.145 HD
ATOM     35  H   UNL     1      34.270 -13.343 -21.271  0.00  0.00    +0.145 HD
ATOM     36  H   UNL     1      32.126 -13.086 -27.305  0.00  0.00    +0.156 HD
ATOM     37  H   UNL     1      32.177 -11.671 -26.356  0.00  0.00    +0.156 HD
ENDBRANCH  21  28
ENDBRANCH   1  21
TORSDOF 6
ENDMDL
MODEL 2
REMARK VINA RESULT:     -13.4      1.180      2.021
REMARK  Name = 25243853
REMARK  6 active torsions:
REMARK  status: ('A' for Active; 'I' for Inactive)
REMARK    1  A    between atoms: N_1  and  C_6
REMARK    2  A    between atoms: N_1  and  C_21
REMARK    3  A    between atoms: C_3  and  C_16
REMARK    4  A    between atoms: C_11  and  C_18
REMARK    5  A    between atoms: C_18  and  O_19
REMARK    6  A    between atoms: C_21  and  C_28
REMARK                            x       y       z     vdW  Elec       q    Type
REMARK                         _______ _______ _______ _____ _____    ______ ____
ROOT
ATOM      1  N   UNL     1      34.163 -18.790 -22.276  0.00  0.00    -0.327 N 
ATOM      2  H   UNL     1      33.572 -18.921 -23.052  0.00  0.00    +0.147 HD
ENDROOT
BRANCH   1   6
ATOM      3  C   UNL     1      33.659 -21.277 -18.928  0.00  0.00    +0.054 C 
ATOM      4  C   UNL     1      32.550 -20.669 -19.519  0.00  0.00    +0.006 C 
ATOM      5  C   UNL     1      34.934 -21.059 -19.450  0.00  0.00    +0.006 C 
ATOM      6  C   UNL     1      33.993 -19.626 -21.152  0.00  0.00    +0.045 C 
ATOM      7  C   UNL     1      32.718 -19.844 -20.631  0.00  0.00    +0.014 C 
ATOM      8  C   UNL     1      35.101 -20.233 -20.561  0.00  0.00    +0.014 C 
BRANCH   3  16
ATOM      9  O   UNL     1      32.338 -22.539 -17.542  0.00  0.00    -0.270 OA
ATOM     10  N   UNL     1      34.611 -22.457 -16.994  0.00  0.00    -0.276 N 
ATOM     11  C   UNL     1      36.371 -22.000 -14.730  0.00  0.00    +0.102 C 
ATOM     12  C   UNL     1      34.958 -22.568 -14.561  0.00  0.00    +0.033 C 
ATOM     13  C   UNL     1      36.528 -21.230 -16.044  0.00  0.00    +0.033 C 
ATOM     14  C   UNL     1      34.470 -23.300 -15.810  0.00  0.00    +0.094 C 
ATOM     15  C   UNL     1      35.976 -21.986 -17.254  0.00  0.00    +0.094 C 
ATOM     16  C   UNL     1      33.483 -22.145 -17.758  0.00  0.00    +0.249 C 
BRANCH  11  18
ATOM     17  O   UNL     1      38.452 -23.108 -15.227  0.00  0.00    -0.250 OA
ATOM     18  C   UNL     1      37.390 -23.097 -14.619  0.00  0.00    +0.317 C 
BRANCH  18  19
ATOM     19  O   UNL     1      36.942 -24.049 -13.753  0.00  0.00    -0.444 OA
ATOM     20  C   UNL     1      37.329 -25.392 -14.062  0.00  0.00    +0.256 C 
ENDBRANCH  18  19
ENDBRANCH  11  18
ENDBRANCH   3  16
ENDBRANCH   1   6
BRANCH   1  21
ATOM     21  C   UNL     1      35.156 -17.763 -22.337  0.00  0.00    +0.145 C 
BRANCH  21  28
ATOM     22  N   UNL     1      34.063 -15.735 -23.137  0.00  0.00    -0.392 NA
ATOM     23  N   UNL     1      33.913 -14.697 -20.575  0.00  0.00    -0.200 NA
ATOM     24  N   UNL     1      32.879 -12.794 -21.391  0.00  0.00    -0.271 NA
ATOM     25  N   UNL     1      32.434 -12.539 -23.735  0.00  0.00    -0.310 NA
ATOM     26  N   UNL     1      33.061 -14.253 -25.235  0.00  0.00    -0.329 N 
ATOM     27  N   UNL     1      31.831 -10.862 -22.216  0.00  0.00    -0.283 N 
ATOM     28  C   UNL     1      34.537 -16.416 -22.083  0.00  0.00    +0.133 C 
ATOM     29  C   UNL     1      34.462 -15.903 -20.816  0.00  0.00    +0.193 C 
ATOM     30  C   UNL     1      33.513 -14.529 -22.894  0.00  0.00    +0.248 C 
ATOM     31  C   UNL     1      33.430 -13.994 -21.607  0.00  0.00    +0.131 C 
ATOM     32  C   UNL     1      32.996 -13.749 -23.910  0.00  0.00    +0.231 C 
ATOM     33  C   UNL     1      32.408 -12.126 -22.462  0.00  0.00    +0.207 C 
ATOM     34  H   UNL     1      32.703 -13.722 -25.982  0.00  0.00    +0.145 HD
ATOM     35  H   UNL     1      33.466 -15.133 -25.407  0.00  0.00    +0.145 HD
ATOM     36  H   UNL     1      31.787 -10.511 -21.297  0.00  0.00    +0.156 HD
ATOM     37  H   UNL     1      31.471 -10.330 -22.963  0.00  0.00    +0.156 HD
ENDBRANCH  21  28
ENDBRANCH   1  21
TORSDOF 6
ENDMDL
MODEL 3
REMARK VINA RESULT:     -13.4      4.522     11.204
REMARK  Name = 25243853
REMARK  6 active torsions:
REMARK  status: ('A' for Active; 'I' for Inactive)
REMARK    1  A    between atoms: N_1  and  C_6
REMARK    2  A    between atoms: N_1  and  C_21
REMARK    3  A    between atoms: C_3  and  C_16
REMARK    4  A    between atoms: C_11  and  C_18
REMARK    5  A    between atoms: C_18  and  O_19
REMARK    6  A    between atoms: C_21  and  C_28
REMARK                            x       y       z     vdW  Elec       q    Type
REMARK                         _______ _______ _______ _____ _____    ______ ____
ROOT
ATOM      1  N   UNL     1      35.538 -19.591 -20.157  0.00  0.00    -0.327 N 
ATOM      2  H   UNL     1      36.041 -19.254 -19.381  0.00  0.00    +0.147 HD
ENDROOT
BRANCH   1   6
ATOM      3  C   UNL     1      34.249 -16.840 -23.058  0.00  0.00    +0.054 C 
ATOM      4  C   UNL     1      34.084 -18.208 -23.273  0.00  0.00    +0.006 C 
ATOM      5  C   UNL     1      34.841 -16.386 -21.880  0.00  0.00    +0.006 C 
ATOM      6  C   UNL     1      35.104 -18.667 -21.132  0.00  0.00    +0.045 C 
ATOM      7  C   UNL     1      34.512 -19.122 -22.309  0.00  0.00    +0.014 C 
ATOM      8  C   UNL     1      35.269 -17.298 -20.917  0.00  0.00    +0.014 C 
BRANCH   3  16
ATOM      9  O   UNL     1      33.944 -16.219 -25.245  0.00  0.00    -0.270 OA
ATOM     10  N   UNL     1      33.246 -14.672 -23.636  0.00  0.00    -0.276 N 
ATOM     11  C   UNL     1      33.462 -11.852 -22.974  0.00  0.00    +0.102 C 
ATOM     12  C   UNL     1      33.545 -12.358 -24.418  0.00  0.00    +0.033 C 
ATOM     13  C   UNL     1      33.799 -12.949 -21.959  0.00  0.00    +0.033 C 
ATOM     14  C   UNL     1      32.809 -13.681 -24.616  0.00  0.00    +0.094 C 
ATOM     15  C   UNL     1      33.074 -14.267 -22.236  0.00  0.00    +0.094 C 
ATOM     16  C   UNL     1      33.799 -15.878 -24.072  0.00  0.00    +0.249 C 
BRANCH  11  18
ATOM     17  O   UNL     1      31.251 -11.802 -22.015  0.00  0.00    -0.250 OA
ATOM     18  C   UNL     1      32.106 -11.264 -22.706  0.00  0.00    +0.317 C 
BRANCH  18  19
ATOM     19  O   UNL     1      31.995 -10.065 -23.345  0.00  0.00    -0.444 OA
ATOM     20  C   UNL     1      31.249  -9.064 -22.647  0.00  0.00    +0.256 C 
ENDBRANCH  18  19
ENDBRANCH  11  18
ENDBRANCH   3  16
ENDBRANCH   1   6
BRANCH   1  21
ATOM     21  C   UNL     1      35.279 -20.994 -20.248  0.00  0.00    +0.145 C 
BRANCH  21  28
ATOM     22  N   UNL     1      34.591 -21.939 -18.108  0.00  0.00    -0.392 NA
ATOM     23  N   UNL     1      31.913 -21.575 -18.706  0.00  0.00    -0.200 NA
ATOM     24  N   UNL     1      31.318 -22.480 -16.660  0.00  0.00    -0.271 NA
ATOM     25  N   UNL     1      32.988 -23.239 -15.114  0.00  0.00    -0.310 NA
ATOM     26  N   UNL     1      35.273 -23.062 -15.685  0.00  0.00    -0.329 N 
ATOM     27  N   UNL     1      30.712 -23.399 -14.587  0.00  0.00    -0.283 N 
ATOM     28  C   UNL     1      34.207 -21.397 -19.274  0.00  0.00    +0.133 C 
ATOM     29  C   UNL     1      32.883 -21.217 -19.569  0.00  0.00    +0.193 C 
ATOM     30  C   UNL     1      33.619 -22.296 -17.246  0.00  0.00    +0.248 C 
ATOM     31  C   UNL     1      32.264 -22.118 -17.534  0.00  0.00    +0.131 C 
ATOM     32  C   UNL     1      33.909 -22.861 -16.019  0.00  0.00    +0.231 C 
ATOM     33  C   UNL     1      31.724 -23.022 -15.496  0.00  0.00    +0.207 C 
ATOM     34  H   UNL     1      35.514 -23.463 -14.819  0.00  0.00    +0.145 HD
ATOM     35  H   UNL     1      35.979 -22.802 -16.319  0.00  0.00    +0.145 HD
ATOM     36  H   UNL     1      29.765 -23.261 -14.820  0.00  0.00    +0.156 HD
ATOM     37  H   UNL     1      30.952 -23.800 -13.720  0.00  0.00    +0.156 HD
ENDBRANCH  21  28
ENDBRANCH   1  21
TORSDOF 6
ENDMDL
MODEL 4
REMARK VINA RESULT:     -13.3      4.433     11.517
REMARK  Name = 25243853
REMARK  6 active torsions:
REMARK  status: ('A' for Active; 'I' for Inactive)
REMARK    1  A    between atoms: N_1  and  C_6
REMARK    2  A    between atoms: N_1  and  C_21
REMARK    3  A    between atoms: C_3  and  C_16
REMARK    4  A    between atoms: C_11  and  C_18
REMARK    5  A    between atoms: C_18  and  O_19
REMARK    6  A    between atoms: C_21  and  C_28
REMARK                            x       y       z     vdW  Elec       q    Type
REMARK                         _______ _______ _______ _____ _____    ______ ____
ROOT
ATOM      1  N   UNL     1      35.381 -19.698 -20.346  0.00  0.00    -0.327 N 
ATOM      2  H   UNL     1      36.243 -19.591 -19.883  0.00  0.00    +0.147 HD
ENDROOT
BRANCH   1   6
ATOM      3  C   UNL     1      34.218 -16.773 -23.127  0.00  0.00    +0.054 C 
ATOM      4  C   UNL     1      34.924 -16.404 -21.982  0.00  0.00    +0.006 C 
ATOM      5  C   UNL     1      33.899 -18.113 -23.349  0.00  0.00    +0.006 C 
ATOM      6  C   UNL     1      34.991 -18.715 -21.280  0.00  0.00    +0.045 C 
ATOM      7  C   UNL     1      35.311 -17.376 -21.058  0.00  0.00    +0.014 C 
ATOM      8  C   UNL     1      34.285 -19.084 -22.426  0.00  0.00    +0.014 C 
BRANCH   3  16
ATOM      9  O   UNL     1      34.009 -16.019 -25.283  0.00  0.00    -0.270 OA
ATOM     10  N   UNL     1      33.236 -14.573 -23.615  0.00  0.00    -0.276 N 
ATOM     11  C   UNL     1      33.414 -11.800 -22.772  0.00  0.00    +0.102 C 
ATOM     12  C   UNL     1      33.563 -12.216 -24.239  0.00  0.00    +0.033 C 
ATOM     13  C   UNL     1      33.709 -12.957 -21.813  0.00  0.00    +0.033 C 
ATOM     14  C   UNL     1      32.840 -13.524 -24.551  0.00  0.00    +0.094 C 
ATOM     15  C   UNL     1      33.001 -14.255 -22.201  0.00  0.00    +0.094 C 
ATOM     16  C   UNL     1      33.811 -15.751 -24.099  0.00  0.00    +0.249 C 
BRANCH  11  18
ATOM     17  O   UNL     1      31.228 -11.716 -21.760  0.00  0.00    -0.250 OA
ATOM     18  C   UNL     1      32.046 -11.229 -22.529  0.00  0.00    +0.317 C 
BRANCH  18  19
ATOM     19  O   UNL     1      31.878 -10.111 -23.290  0.00  0.00    -0.444 OA
ATOM     20  C   UNL     1      31.526  -8.926 -22.569  0.00  0.00    +0.256 C 
ENDBRANCH  18  19
ENDBRANCH  11  18
ENDBRANCH   3  16
ENDBRANCH   1   6
BRANCH   1  21
ATOM     21  C   UNL     1      34.580 -20.844 -20.044  0.00  0.00    +0.145 C 
BRANCH  21  28
ATOM     22  N   UNL     1      33.873 -21.904 -17.965  0.00  0.00    -0.392 NA
ATOM     23  N   UNL     1      36.408 -21.670 -16.878  0.00  0.00    -0.200 NA
ATOM     24  N   UNL     1      35.681 -22.683 -14.928  0.00  0.00    -0.271 NA
ATOM     25  N   UNL     1      33.405 -23.402 -14.685  0.00  0.00    -0.310 NA
ATOM     26  N   UNL     1      31.881 -23.071 -16.459  0.00  0.00    -0.329 N 
ATOM     27  N   UNL     1      34.946 -23.709 -12.948  0.00  0.00    -0.283 N 
ATOM     28  C   UNL     1      34.876 -21.343 -18.657  0.00  0.00    +0.133 C 
ATOM     29  C   UNL     1      36.129 -21.228 -18.120  0.00  0.00    +0.193 C 
ATOM     30  C   UNL     1      34.153 -22.346 -16.724  0.00  0.00    +0.248 C 
ATOM     31  C   UNL     1      35.428 -22.235 -16.163  0.00  0.00    +0.131 C 
ATOM     32  C   UNL     1      33.191 -22.940 -15.930  0.00  0.00    +0.231 C 
ATOM     33  C   UNL     1      34.661 -23.243 -14.250  0.00  0.00    +0.207 C 
ATOM     34  H   UNL     1      31.172 -23.489 -15.919  0.00  0.00    +0.145 HD
ATOM     35  H   UNL     1      31.681 -22.744 -17.365  0.00  0.00    +0.145 HD
ATOM     36  H   UNL     1      35.854 -23.615 -12.580  0.00  0.00    +0.156 HD
ATOM     37  H   UNL     1      34.237 -24.127 -12.408  0.00  0.00    +0.156 HD
ENDBRANCH  21  28
ENDBRANCH   1  21
TORSDOF 6
ENDMDL
MODEL 5
REMARK VINA RESULT:     -13.2      4.407     11.376
REMARK  Name = 25243853
REMARK  6 active torsions:
REMARK  status: ('A' for Active; 'I' for Inactive)
REMARK    1  A    between atoms: N_1  and  C_6
REMARK    2  A    between atoms: N_1  and  C_21
REMARK    3  A    between atoms: C_3  and  C_16
REMARK    4  A    between atoms: C_11  and  C_18
REMARK    5  A    between atoms: C_18  and  O_19
REMARK    6  A    between atoms: C_21  and  C_28
REMARK                            x       y       z     vdW  Elec       q    Type
REMARK                         _______ _______ _______ _____ _____    ______ ____
ROOT
ATOM      1  N   UNL     1      35.337 -19.783 -20.245  0.00  0.00    -0.327 N 
ATOM      2  H   UNL     1      35.955 -19.534 -19.520  0.00  0.00    +0.147 HD
ENDROOT
BRANCH   1   6
ATOM      3  C   UNL     1      34.251 -16.853 -23.052  0.00  0.00    +0.054 C 
ATOM      4  C   UNL     1      34.960 -16.492 -21.906  0.00  0.00    +0.006 C 
ATOM      5  C   UNL     1      33.904 -18.187 -23.266  0.00  0.00    +0.006 C 
ATOM      6  C   UNL     1      34.973 -18.799 -21.188  0.00  0.00    +0.045 C 
ATOM      7  C   UNL     1      35.321 -17.466 -20.974  0.00  0.00    +0.014 C 
ATOM      8  C   UNL     1      34.264 -19.160 -22.334  0.00  0.00    +0.014 C 
BRANCH   3  16
ATOM      9  O   UNL     1      34.103 -16.095 -25.212  0.00  0.00    -0.270 OA
ATOM     10  N   UNL     1      33.283 -14.653 -23.563  0.00  0.00    -0.276 N 
ATOM     11  C   UNL     1      33.436 -11.881 -22.710  0.00  0.00    +0.102 C 
ATOM     12  C   UNL     1      33.626 -12.294 -24.173  0.00  0.00    +0.033 C 
ATOM     13  C   UNL     1      33.704 -13.039 -21.745  0.00  0.00    +0.033 C 
ATOM     14  C   UNL     1      32.913 -13.602 -24.508  0.00  0.00    +0.094 C 
ATOM     15  C   UNL     1      33.008 -14.338 -22.156  0.00  0.00    +0.094 C 
ATOM     16  C   UNL     1      33.872 -15.829 -24.033  0.00  0.00    +0.249 C 
BRANCH  11  18
ATOM     17  O   UNL     1      31.182 -11.863 -21.858  0.00  0.00    -0.250 OA
ATOM     18  C   UNL     1      32.062 -11.311 -22.505  0.00  0.00    +0.317 C 
BRANCH  18  19
ATOM     19  O   UNL     1      31.966 -10.112 -23.145  0.00  0.00    -0.444 OA
ATOM     20  C   UNL     1      31.206  -9.110 -22.461  0.00  0.00    +0.256 C 
ENDBRANCH  18  19
ENDBRANCH  11  18
ENDBRANCH   3  16
ENDBRANCH   1   6
BRANCH   1  21
ATOM     21  C   UNL     1      34.849 -21.126 -20.297  0.00  0.00    +0.145 C 
BRANCH  21  28
ATOM     22  N   UNL     1      35.464 -21.656 -17.997  0.00  0.00    -0.392 NA
ATOM     23  N   UNL     1      32.877 -22.430 -17.389  0.00  0.00    -0.200 NA
ATOM     24  N   UNL     1      33.518 -22.917 -15.218  0.00  0.00    -0.271 NA
ATOM     25  N   UNL     1      35.786 -22.605 -14.502  0.00  0.00    -0.310 NA
ATOM     26  N   UNL     1      37.392 -21.791 -16.031  0.00  0.00    -0.329 N 
ATOM     27  N   UNL     1      34.166 -23.412 -13.017  0.00  0.00    -0.283 N 
ATOM     28  C   UNL     1      34.490 -21.611 -18.919  0.00  0.00    +0.133 C 
ATOM     29  C   UNL     1      33.211 -21.993 -18.617  0.00  0.00    +0.193 C 
ATOM     30  C   UNL     1      35.128 -22.094 -16.768  0.00  0.00    +0.248 C 
ATOM     31  C   UNL     1      33.827 -22.487 -16.447  0.00  0.00    +0.131 C 
ATOM     32  C   UNL     1      36.056 -22.178 -15.749  0.00  0.00    +0.231 C 
ATOM     33  C   UNL     1      34.509 -22.955 -14.307  0.00  0.00    +0.207 C 
ATOM     34  H   UNL     1      38.078 -21.839 -15.327  0.00  0.00    +0.145 HD
ATOM     35  H   UNL     1      37.633 -21.474 -16.932  0.00  0.00    +0.145 HD
ATOM     36  H   UNL     1      33.240 -23.683 -12.821  0.00  0.00    +0.156 HD
ATOM     37  H   UNL     1      34.852 -23.461 -12.312  0.00  0.00    +0.156 HD
ENDBRANCH  21  28
ENDBRANCH   1  21
TORSDOF 6
ENDMDL
MODEL 6
REMARK VINA RESULT:     -12.7      1.503      2.170
REMARK  Name = 25243853
REMARK  6 active torsions:
REMARK  status: ('A' for Active; 'I' for Inactive)
REMARK    1  A    between atoms: N_1  and  C_6
REMARK    2  A    between atoms: N_1  and  C_21
REMARK    3  A    between atoms: C_3  and  C_16
REMARK    4  A    between atoms: C_11  and  C_18
REMARK    5  A    between atoms: C_18  and  O_19
REMARK    6  A    between atoms: C_21  and  C_28
REMARK                            x       y       z     vdW  Elec       q    Type
REMARK                         _______ _______ _______ _____ _____    ______ ____
ROOT
ATOM      1  N   UNL     1      35.454 -20.442 -20.236  0.00  0.00    -0.327 N 
ATOM      2  H   UNL     1      35.323 -20.917 -21.088  0.00  0.00    +0.147 HD
ENDROOT
BRANCH   1   6
ATOM      3  C   UNL     1      34.213 -22.312 -16.685  0.00  0.00    +0.054 C 
ATOM      4  C   UNL     1      33.358 -22.271 -17.787  0.00  0.00    +0.006 C 
ATOM      5  C   UNL     1      35.480 -21.734 -16.764  0.00  0.00    +0.006 C 
ATOM      6  C   UNL     1      35.037 -21.071 -19.044  0.00  0.00    +0.045 C 
ATOM      7  C   UNL     1      33.771 -21.650 -18.966  0.00  0.00    +0.014 C 
ATOM      8  C   UNL     1      35.892 -21.113 -17.942  0.00  0.00    +0.014 C 
BRANCH   3  16
ATOM      9  O   UNL     1      32.606 -22.793 -15.122  0.00  0.00    -0.270 OA
ATOM     10  N   UNL     1      34.717 -23.724 -14.737  0.00  0.00    -0.276 N 
ATOM     11  C   UNL     1      36.701 -24.025 -12.638  0.00  0.00    +0.102 C 
ATOM     12  C   UNL     1      35.206 -23.890 -12.331  0.00  0.00    +0.033 C 
ATOM     13  C   UNL     1      37.061 -23.457 -14.014  0.00  0.00    +0.033 C 
ATOM     14  C   UNL     1      34.328 -24.369 -13.486  0.00  0.00    +0.094 C 
ATOM     15  C   UNL     1      36.118 -23.928 -15.123  0.00  0.00    +0.094 C 
ATOM     16  C   UNL     1      33.780 -22.966 -15.444  0.00  0.00    +0.249 C 
BRANCH  11  18
ATOM     17  O   UNL     1      36.804 -26.194 -11.592  0.00  0.00    -0.250 OA
ATOM     18  C   UNL     1      37.131 -25.459 -12.514  0.00  0.00    +0.317 C 
BRANCH  18  19
ATOM     19  O   UNL     1      37.922 -25.790 -13.574  0.00  0.00    -0.444 OA
ATOM     20  C   UNL     1      39.313 -25.492 -13.417  0.00  0.00    +0.256 C 
ENDBRANCH  18  19
ENDBRANCH  11  18
ENDBRANCH   3  16
ENDBRANCH   1   6
BRANCH   1  21
ATOM     21  C   UNL     1      36.060 -19.148 -20.260  0.00  0.00    +0.145 C 
BRANCH  21  28
ATOM     22  N   UNL     1      35.015 -17.064 -20.977  0.00  0.00    -0.392 NA
ATOM     23  N   UNL     1      34.727 -17.995 -23.568  0.00  0.00    -0.200 NA
ATOM     24  N   UNL     1      33.742 -15.995 -24.193  0.00  0.00    -0.271 NA
ATOM     25  N   UNL     1      33.424 -14.227 -22.604  0.00  0.00    -0.310 NA
ATOM     26  N   UNL     1      34.125 -14.527 -20.368  0.00  0.00    -0.329 N 
ATOM     27  N   UNL     1      32.742 -13.969 -24.829  0.00  0.00    -0.283 N 
ATOM     28  C   UNL     1      35.432 -18.291 -21.324  0.00  0.00    +0.133 C 
ATOM     29  C   UNL     1      35.289 -18.751 -22.606  0.00  0.00    +0.193 C 
ATOM     30  C   UNL     1      34.454 -16.309 -21.942  0.00  0.00    +0.248 C 
ATOM     31  C   UNL     1      34.303 -16.765 -23.253  0.00  0.00    +0.131 C 
ATOM     32  C   UNL     1      33.994 -15.031 -21.688  0.00  0.00    +0.231 C 
ATOM     33  C   UNL     1      33.331 -14.767 -23.825  0.00  0.00    +0.207 C 
ATOM     34  H   UNL     1      33.806 -13.621 -20.153  0.00  0.00    +0.145 HD
ATOM     35  H   UNL     1      34.533 -15.084 -19.666  0.00  0.00    +0.145 HD
ATOM     36  H   UNL     1      32.648 -14.320 -25.744  0.00  0.00    +0.156 HD
ATOM     37  H   UNL     1      32.423 -13.063 -24.615  0.00  0.00    +0.156 HD
ENDBRANCH  21  28
ENDBRANCH   1  21
TORSDOF 6
ENDMDL
MODEL 7
REMARK VINA RESULT:     -12.5      1.518      2.968
REMARK  Name = 25243853
REMARK  6 active torsions:
REMARK  status: ('A' for Active; 'I' for Inactive)
REMARK    1  A    between atoms: N_1  and  C_6
REMARK    2  A    between atoms: N_1  and  C_21
REMARK    3  A    between atoms: C_3  and  C_16
REMARK    4  A    between atoms: C_11  and  C_18
REMARK    5  A    between atoms: C_18  and  O_19
REMARK    6  A    between atoms: C_21  and  C_28
REMARK                            x       y       z     vdW  Elec       q    Type
REMARK                         _______ _______ _______ _____ _____    ______ ____
ROOT
ATOM      1  N   UNL     1      34.047 -20.661 -20.104  0.00  0.00    -0.327 N 
ATOM      2  H   UNL     1      33.273 -20.657 -20.712  0.00  0.00    +0.147 HD
ENDROOT
BRANCH   1   6
ATOM      3  C   UNL     1      33.690 -22.643 -16.417  0.00  0.00    +0.054 C 
ATOM      4  C   UNL     1      34.923 -22.126 -16.814  0.00  0.00    +0.006 C 
ATOM      5  C   UNL     1      32.576 -22.500 -17.244  0.00  0.00    +0.006 C 
ATOM      6  C   UNL     1      33.927 -21.326 -18.865  0.00  0.00    +0.045 C 
ATOM      7  C   UNL     1      35.041 -21.467 -18.039  0.00  0.00    +0.014 C 
ATOM      8  C   UNL     1      32.694 -21.843 -18.468  0.00  0.00    +0.014 C 
BRANCH   3  16
ATOM      9  O   UNL     1      32.419 -23.567 -14.747  0.00  0.00    -0.270 OA
ATOM     10  N   UNL     1      34.736 -23.678 -14.449  0.00  0.00    -0.276 N 
ATOM     11  C   UNL     1      36.783 -23.149 -12.457  0.00  0.00    +0.102 C 
ATOM     12  C   UNL     1      35.349 -23.528 -12.070  0.00  0.00    +0.033 C 
ATOM     13  C   UNL     1      36.863 -22.569 -13.872  0.00  0.00    +0.033 C 
ATOM     14  C   UNL     1      34.650 -24.347 -13.153  0.00  0.00    +0.094 C 
ATOM     15  C   UNL     1      36.103 -23.401 -14.906  0.00  0.00    +0.094 C 
ATOM     16  C   UNL     1      33.565 -23.336 -15.129  0.00  0.00    +0.249 C 
BRANCH  11  18
ATOM     17  O   UNL     1      37.413 -25.334 -11.657  0.00  0.00    -0.250 OA
ATOM     18  C   UNL     1      37.693 -24.334 -12.304  0.00  0.00    +0.317 C 
BRANCH  18  19
ATOM     19  O   UNL     1      38.851 -24.109 -12.988  0.00  0.00    -0.444 OA
ATOM     20  C   UNL     1      39.387 -25.244 -13.676  0.00  0.00    +0.256 C 
ENDBRANCH  18  19
ENDBRANCH  11  18
ENDBRANCH   3  16
ENDBRANCH   1   6
BRANCH   1  21
ATOM     21  C   UNL     1      35.243 -19.995 -20.514  0.00  0.00    +0.145 C 
BRANCH  21  28
ATOM     22  N   UNL     1      34.280 -18.891 -22.464  0.00  0.00    -0.392 NA
ATOM     23  N   UNL     1      34.963 -16.389 -21.497  0.00  0.00    -0.200 NA
ATOM     24  N   UNL     1      34.034 -15.396 -23.370  0.00  0.00    -0.271 NA
ATOM     25  N   UNL     1      33.026 -16.720 -25.098  0.00  0.00    -0.310 NA
ATOM     26  N   UNL     1      32.982 -19.073 -24.889  0.00  0.00    -0.329 N 
ATOM     27  N   UNL     1      33.093 -14.386 -25.268  0.00  0.00    -0.283 N 
ATOM     28  C   UNL     1      34.914 -18.750 -21.290  0.00  0.00    +0.133 C 
ATOM     29  C   UNL     1      35.251 -17.512 -20.812  0.00  0.00    +0.193 C 
ATOM     30  C   UNL     1      33.993 -17.767 -23.148  0.00  0.00    +0.248 C 
ATOM     31  C   UNL     1      34.331 -16.498 -22.672  0.00  0.00    +0.131 C 
ATOM     32  C   UNL     1      33.342 -17.804 -24.366  0.00  0.00    +0.231 C 
ATOM     33  C   UNL     1      33.398 -15.559 -24.546  0.00  0.00    +0.207 C 
ATOM     34  H   UNL     1      32.518 -19.134 -25.755  0.00  0.00    +0.145 HD
ATOM     35  H   UNL     1      33.197 -19.891 -24.387  0.00  0.00    +0.145 HD
ATOM     36  H   UNL     1      33.345 -13.505 -24.907  0.00  0.00    +0.156 HD
ATOM     37  H   UNL     1      32.628 -14.447 -26.135  0.00  0.00    +0.156 HD
ENDBRANCH  21  28
ENDBRANCH   1  21
TORSDOF 6
ENDMDL
MODEL 8
REMARK VINA RESULT:     -12.4      5.737      9.462
REMARK  Name = 25243853
REMARK  6 active torsions:
REMARK  status: ('A' for Active; 'I' for Inactive)
REMARK    1  A    between atoms: N_1  and  C_6
REMARK    2  A    between atoms: N_1  and  C_21
REMARK    3  A    between atoms: C_3  and  C_16
REMARK    4  A    between atoms: C_11  and  C_18
REMARK    5  A    between atoms: C_18  and  O_19
REMARK    6  A    between atoms: C_21  and  C_28
REMARK                            x       y       z     vdW  Elec       q    Type
REMARK                         _______ _______ _______ _____ _____    ______ ____
ROOT
ATOM      1  N   UNL     1      32.216 -10.261 -22.753  0.00  0.00    -0.327 N 
ATOM      2  H   UNL     1      32.471  -9.536 -23.368  0.00  0.00    +0.147 HD
ENDROOT
BRANCH   1   6
ATOM      3  C   UNL     1      33.109 -14.219 -23.841  0.00  0.00    +0.054 C 
ATOM      4  C   UNL     1      32.889 -13.897 -22.502  0.00  0.00    +0.006 C 
ATOM      5  C   UNL     1      33.033 -13.226 -24.819  0.00  0.00    +0.006 C 
ATOM      6  C   UNL     1      32.516 -11.591 -23.118  0.00  0.00    +0.045 C 
ATOM      7  C   UNL     1      32.591 -12.582 -22.141  0.00  0.00    +0.014 C 
ATOM      8  C   UNL     1      32.737 -11.913 -24.458  0.00  0.00    +0.014 C 
BRANCH   3  16
ATOM      9  O   UNL     1      32.919 -16.002 -25.271  0.00  0.00    -0.270 OA
ATOM     10  N   UNL     1      34.256 -16.343 -23.382  0.00  0.00    -0.276 N 
ATOM     11  C   UNL     1      34.675 -18.247 -21.228  0.00  0.00    +0.102 C 
ATOM     12  C   UNL     1      34.132 -18.673 -22.597  0.00  0.00    +0.033 C 
ATOM     13  C   UNL     1      34.448 -16.757 -20.957  0.00  0.00    +0.033 C 
ATOM     14  C   UNL     1      34.569 -17.730 -23.716  0.00  0.00    +0.094 C 
ATOM     15  C   UNL     1      34.854 -15.864 -22.131  0.00  0.00    +0.094 C 
ATOM     16  C   UNL     1      33.422 -15.601 -24.222  0.00  0.00    +0.249 C 
BRANCH  11  18
ATOM     17  O   UNL     1      36.974 -18.317 -21.948  0.00  0.00    -0.250 OA
ATOM     18  C   UNL     1      36.129 -18.604 -21.111  0.00  0.00    +0.317 C 
BRANCH  18  19
ATOM     19  O   UNL     1      36.338 -19.283 -19.947  0.00  0.00    -0.444 OA
ATOM     20  C   UNL     1      35.584 -20.490 -19.797  0.00  0.00    +0.256 C 
ENDBRANCH  18  19
ENDBRANCH  11  18
ENDBRANCH   3  16
ENDBRANCH   1   6
BRANCH   1  21
ATOM     21  C   UNL     1      31.561  -9.921 -21.529  0.00  0.00    +0.145 C 
BRANCH  21  28
ATOM     22  N   UNL     1      31.039  -7.761 -22.534  0.00  0.00    -0.392 NA
ATOM     23  N   UNL     1      31.400  -6.451 -20.122  0.00  0.00    -0.200 NA
ATOM     24  N   UNL     1      30.897  -4.428 -21.129  0.00  0.00    -0.271 NA
ATOM     25  N   UNL     1      30.358  -4.313 -23.464  0.00  0.00    -0.310 NA
ATOM     26  N   UNL     1      30.342  -6.289 -24.757  0.00  0.00    -0.329 N 
ATOM     27  N   UNL     1      30.387  -2.376 -22.148  0.00  0.00    -0.283 N 
ATOM     28  C   UNL     1      31.380  -8.433 -21.423  0.00  0.00    +0.133 C 
ATOM     29  C   UNL     1      31.558  -7.784 -20.231  0.00  0.00    +0.193 C 
ATOM     30  C   UNL     1      30.882  -6.428 -22.423  0.00  0.00    +0.248 C 
ATOM     31  C   UNL     1      31.060  -5.754 -21.213  0.00  0.00    +0.131 C 
ATOM     32  C   UNL     1      30.531  -5.646 -23.507  0.00  0.00    +0.231 C 
ATOM     33  C   UNL     1      30.555  -3.773 -22.255  0.00  0.00    +0.207 C 
ATOM     34  H   UNL     1      30.093  -5.761 -25.550  0.00  0.00    +0.145 HD
ATOM     35  H   UNL     1      30.461  -7.263 -24.833  0.00  0.00    +0.145 HD
ATOM     36  H   UNL     1      30.521  -1.929 -21.281  0.00  0.00    +0.156 HD
ATOM     37  H   UNL     1      30.138  -1.847 -22.940  0.00  0.00    +0.156 HD
ENDBRANCH  21  28
ENDBRANCH   1  21
TORSDOF 6
ENDMDL
MODEL 9
REMARK VINA RESULT:     -12.1      5.530      9.088
REMARK  Name = 25243853
REMARK  6 active torsions:
REMARK  status: ('A' for Active; 'I' for Inactive)
REMARK    1  A    between atoms: N_1  and  C_6
REMARK    2  A    between atoms: N_1  and  C_21
REMARK    3  A    between atoms: C_3  and  C_16
REMARK    4  A    between atoms: C_11  and  C_18
REMARK    5  A    between atoms: C_18  and  O_19
REMARK    6  A    between atoms: C_21  and  C_28
REMARK                            x       y       z     vdW  Elec       q    Type
REMARK                         _______ _______ _______ _____ _____    ______ ____
ROOT
ATOM      1  N   UNL     1      32.560 -10.642 -23.108  0.00  0.00    -0.327 N 
ATOM      2  H   UNL     1      33.035  -9.954 -23.627  0.00  0.00    +0.147 HD
ENDROOT
BRANCH   1   6
ATOM      3  C   UNL     1      33.375 -14.682 -23.918  0.00  0.00    +0.054 C 
ATOM      4  C   UNL     1      33.605 -14.167 -22.642  0.00  0.00    +0.006 C 
ATOM      5  C   UNL     1      32.874 -13.856 -24.924  0.00  0.00    +0.006 C 
ATOM      6  C   UNL     1      32.834 -12.000 -23.379  0.00  0.00    +0.045 C 
ATOM      7  C   UNL     1      33.334 -12.825 -22.373  0.00  0.00    +0.014 C 
ATOM      8  C   UNL     1      32.604 -12.515 -24.655  0.00  0.00    +0.014 C 
BRANCH   3  16
ATOM      9  O   UNL     1      33.186 -16.544 -25.244  0.00  0.00    -0.270 OA
ATOM     10  N   UNL     1      34.437 -16.806 -23.285  0.00  0.00    -0.276 N 
ATOM     11  C   UNL     1      34.714 -18.585 -21.006  0.00  0.00    +0.102 C 
ATOM     12  C   UNL     1      34.213 -19.079 -22.367  0.00  0.00    +0.033 C 
ATOM     13  C   UNL     1      34.522 -17.075 -20.834  0.00  0.00    +0.033 C 
ATOM     14  C   UNL     1      34.721 -18.219 -23.523  0.00  0.00    +0.094 C 
ATOM     15  C   UNL     1      35.001 -16.268 -22.042  0.00  0.00    +0.094 C 
ATOM     16  C   UNL     1      33.660 -16.094 -24.202  0.00  0.00    +0.249 C 
BRANCH  11  18
ATOM     17  O   UNL     1      37.067 -18.600 -21.526  0.00  0.00    -0.250 OA
ATOM     18  C   UNL     1      36.150 -18.975 -20.808  0.00  0.00    +0.317 C 
BRANCH  18  19
ATOM     19  O   UNL     1      36.254 -19.795 -19.724  0.00  0.00    -0.444 OA
ATOM     20  C   UNL     1      35.195 -20.745 -19.569  0.00  0.00    +0.256 C 
ENDBRANCH  18  19
ENDBRANCH  11  18
ENDBRANCH   3  16
ENDBRANCH   1   6
BRANCH   1  21
ATOM     21  C   UNL     1      31.627 -10.223 -22.109  0.00  0.00    +0.145 C 
BRANCH  21  28
ATOM     22  N   UNL     1      31.720  -7.928 -21.291  0.00  0.00    -0.392 NA
ATOM     23  N   UNL     1      30.345  -6.989 -23.502  0.00  0.00    -0.200 NA
ATOM     24  N   UNL     1      30.463  -4.829 -22.677  0.00  0.00    -0.271 NA
ATOM     25  N   UNL     1      31.548  -4.364 -20.589  0.00  0.00    -0.310 NA
ATOM     26  N   UNL     1      32.509  -6.133 -19.353  0.00  0.00    -0.329 N 
ATOM     27  N   UNL     1      30.581  -2.638 -21.842  0.00  0.00    -0.283 N 
ATOM     28  C   UNL     1      31.313  -8.761 -22.261  0.00  0.00    +0.133 C 
ATOM     29  C   UNL     1      30.633  -8.296 -23.355  0.00  0.00    +0.193 C 
ATOM     30  C   UNL     1      31.430  -6.620 -21.441  0.00  0.00    +0.248 C 
ATOM     31  C   UNL     1      30.738  -6.132 -22.551  0.00  0.00    +0.131 C 
ATOM     32  C   UNL     1      31.806  -5.681 -20.500  0.00  0.00    +0.231 C 
ATOM     33  C   UNL     1      30.880  -4.009 -21.693  0.00  0.00    +0.207 C 
ATOM     34  H   UNL     1      32.791  -5.490 -18.663  0.00  0.00    +0.145 HD
ATOM     35  H   UNL     1      32.716  -7.090 -19.248  0.00  0.00    +0.145 HD
ATOM     36  H   UNL     1      30.091  -2.325 -22.636  0.00  0.00    +0.156 HD
ATOM     37  H   UNL     1      30.863  -1.994 -21.152  0.00  0.00    +0.156 HD
ENDBRANCH  21  28
ENDBRANCH   1  21
TORSDOF 6
ENDMDL
