MODEL 1
REMARK VINA RESULT:     -11.3      0.000      0.000
REMARK  Name = 5280443
REMARK  4 active torsions:
REMARK  status: ('A' for Active; 'I' for Inactive)
REMARK    1  A    between atoms: C_5  and  C_12
REMARK    2  A    between atoms: C_8  and  O_20
REMARK    3  A    between atoms: C_10  and  O_22
REMARK    4  A    between atoms: C_17  and  O_18
REMARK                            x       y       z     vdW  Elec       q    Type
REMARK                         _______ _______ _______ _____ _____    ______ ____
ROOT
ATOM      1  O   UNL     1      34.269 -17.336 -21.041  0.00  0.00    -0.453 OA
ATOM      2  O   UNL     1      33.702 -18.197 -24.982  0.00  0.00    -0.286 OA
ATOM      3  C   UNL     1      33.918 -16.542 -23.310  0.00  0.00    +0.107 C 
ATOM      4  C   UNL     1      34.116 -16.319 -21.949  0.00  0.00    +0.154 C 
ATOM      5  C   UNL     1      34.216 -18.644 -21.500  0.00  0.00    +0.148 C 
ATOM      6  C   UNL     1      33.870 -17.928 -23.802  0.00  0.00    +0.205 C 
ATOM      7  C   UNL     1      34.038 -18.987 -22.786  0.00  0.00    +0.080 C 
ATOM      8  C   UNL     1      33.769 -15.467 -24.188  0.00  0.00    +0.143 C 
ATOM      9  C   UNL     1      34.167 -15.015 -21.457  0.00  0.00    +0.074 C 
ATOM     10  C   UNL     1      34.019 -13.937 -22.330  0.00  0.00    +0.140 C 
ATOM     11  C   UNL     1      33.819 -14.163 -23.694  0.00  0.00    +0.073 C 
ENDROOT
BRANCH   5  12
ATOM     12  C   UNL     1      34.398 -19.658 -20.443  0.00  0.00    +0.035 C 
ATOM     13  C   UNL     1      33.289 -20.317 -19.904  0.00  0.00    +0.006 C 
ATOM     14  C   UNL     1      35.678 -19.965 -19.977  0.00  0.00    +0.006 C 
ATOM     15  C   UNL     1      33.461 -21.276 -18.906  0.00  0.00    +0.037 C 
ATOM     16  C   UNL     1      35.849 -20.924 -18.979  0.00  0.00    +0.037 C 
ATOM     17  C   UNL     1      34.741 -21.579 -18.443  0.00  0.00    +0.134 C 
BRANCH  17  18
ATOM     18  O   UNL     1      34.909 -22.515 -17.470  0.00  0.00    -0.506 OA
ATOM     19  H   UNL     1      34.219 -23.119 -17.276  0.00  0.00    +0.292 HD
ENDBRANCH  17  18
ENDBRANCH   5  12
BRANCH   8  20
ATOM     20  O   UNL     1      33.573 -15.633 -25.526  0.00  0.00    -0.505 OA
ATOM     21  H   UNL     1      33.142 -14.965 -26.023  0.00  0.00    +0.292 HD
ENDBRANCH   8  20
BRANCH  10  22
ATOM     22  O   UNL     1      34.068 -12.663 -21.853  0.00  0.00    -0.505 OA
ATOM     23  H   UNL     1      34.726 -12.072 -22.162  0.00  0.00    +0.292 HD
ENDBRANCH  10  22
TORSDOF 4
ENDMDL
MODEL 2
REMARK VINA RESULT:     -11.3      0.003      1.080
REMARK  Name = 5280443
REMARK  4 active torsions:
REMARK  status: ('A' for Active; 'I' for Inactive)
REMARK    1  A    between atoms: C_5  and  C_12
REMARK    2  A    between atoms: C_8  and  O_20
REMARK    3  A    between atoms: C_10  and  O_22
REMARK    4  A    between atoms: C_17  and  O_18
REMARK                            x       y       z     vdW  Elec       q    Type
REMARK                         _______ _______ _______ _____ _____    ______ ____
ROOT
ATOM      1  O   UNL     1      34.270 -17.338 -21.042  0.00  0.00    -0.453 OA
ATOM      2  O   UNL     1      33.703 -18.199 -24.983  0.00  0.00    -0.286 OA
ATOM      3  C   UNL     1      33.918 -16.544 -23.310  0.00  0.00    +0.107 C 
ATOM      4  C   UNL     1      34.116 -16.320 -21.949  0.00  0.00    +0.154 C 
ATOM      5  C   UNL     1      34.216 -18.646 -21.501  0.00  0.00    +0.148 C 
ATOM      6  C   UNL     1      33.871 -17.929 -23.803  0.00  0.00    +0.205 C 
ATOM      7  C   UNL     1      34.039 -18.989 -22.787  0.00  0.00    +0.080 C 
ATOM      8  C   UNL     1      33.769 -15.468 -24.188  0.00  0.00    +0.143 C 
ATOM      9  C   UNL     1      34.167 -15.016 -21.457  0.00  0.00    +0.074 C 
ATOM     10  C   UNL     1      34.018 -13.938 -22.330  0.00  0.00    +0.140 C 
ATOM     11  C   UNL     1      33.819 -14.164 -23.694  0.00  0.00    +0.073 C 
ENDROOT
BRANCH   5  12
ATOM     12  C   UNL     1      34.398 -19.660 -20.444  0.00  0.00    +0.035 C 
ATOM     13  C   UNL     1      35.680 -19.964 -19.977  0.00  0.00    +0.006 C 
ATOM     14  C   UNL     1      33.291 -20.319 -19.905  0.00  0.00    +0.006 C 
ATOM     15  C   UNL     1      35.852 -20.922 -18.977  0.00  0.00    +0.037 C 
ATOM     16  C   UNL     1      33.464 -21.276 -18.906  0.00  0.00    +0.037 C 
ATOM     17  C   UNL     1      34.744 -21.579 -18.442  0.00  0.00    +0.134 C 
BRANCH  17  18
ATOM     18  O   UNL     1      34.912 -22.512 -17.467  0.00  0.00    -0.506 OA
ATOM     19  H   UNL     1      35.012 -23.416 -17.694  0.00  0.00    +0.292 HD
ENDBRANCH  17  18
ENDBRANCH   5  12
BRANCH   8  20
ATOM     20  O   UNL     1      33.574 -15.634 -25.526  0.00  0.00    -0.505 OA
ATOM     21  H   UNL     1      33.861 -14.975 -26.127  0.00  0.00    +0.292 HD
ENDBRANCH   8  20
BRANCH  10  22
ATOM     22  O   UNL     1      34.067 -12.664 -21.853  0.00  0.00    -0.505 OA
ATOM     23  H   UNL     1      34.705 -12.064 -22.185  0.00  0.00    +0.292 HD
ENDBRANCH  10  22
TORSDOF 4
ENDMDL
MODEL 3
REMARK VINA RESULT:     -11.2      3.177      7.967
REMARK  Name = 5280443
REMARK  4 active torsions:
REMARK  status: ('A' for Active; 'I' for Inactive)
REMARK    1  A    between atoms: C_5  and  C_12
REMARK    2  A    between atoms: C_8  and  O_20
REMARK    3  A    between atoms: C_10  and  O_22
REMARK    4  A    between atoms: C_17  and  O_18
REMARK                            x       y       z     vdW  Elec       q    Type
REMARK                         _______ _______ _______ _____ _____    ______ ____
ROOT
ATOM      1  O   UNL     1      33.238 -13.149 -22.058  0.00  0.00    -0.453 OA
ATOM      2  O   UNL     1      33.018 -14.527 -25.886  0.00  0.00    -0.286 OA
ATOM      3  C   UNL     1      33.645 -14.942 -23.645  0.00  0.00    +0.107 C 
ATOM      4  C   UNL     1      33.690 -14.409 -22.359  0.00  0.00    +0.154 C 
ATOM      5  C   UNL     1      32.722 -12.370 -23.083  0.00  0.00    +0.148 C 
ATOM      6  C   UNL     1      33.090 -14.123 -24.734  0.00  0.00    +0.205 C 
ATOM      7  C   UNL     1      32.620 -12.773 -24.360  0.00  0.00    +0.080 C 
ATOM      8  C   UNL     1      34.119 -16.232 -23.892  0.00  0.00    +0.143 C 
ATOM      9  C   UNL     1      34.209 -15.166 -21.308  0.00  0.00    +0.074 C 
ATOM     10  C   UNL     1      34.684 -16.455 -21.550  0.00  0.00    +0.140 C 
ATOM     11  C   UNL     1      34.640 -16.987 -22.841  0.00  0.00    +0.073 C 
ENDROOT
BRANCH   5  12
ATOM     12  C   UNL     1      32.261 -11.037 -22.649  0.00  0.00    +0.035 C 
ATOM     13  C   UNL     1      31.355 -10.918 -21.592  0.00  0.00    +0.006 C 
ATOM     14  C   UNL     1      32.727  -9.889 -23.293  0.00  0.00    +0.006 C 
ATOM     15  C   UNL     1      30.920  -9.658 -21.181  0.00  0.00    +0.037 C 
ATOM     16  C   UNL     1      32.291  -8.629 -22.882  0.00  0.00    +0.037 C 
ATOM     17  C   UNL     1      31.387  -8.514 -21.826  0.00  0.00    +0.134 C 
BRANCH  17  18
ATOM     18  O   UNL     1      30.963  -7.285 -21.425  0.00  0.00    -0.506 OA
ATOM     19  H   UNL     1      30.460  -7.195 -20.639  0.00  0.00    +0.292 HD
ENDBRANCH  17  18
ENDBRANCH   5  12
BRANCH   8  20
ATOM     20  O   UNL     1      34.098 -16.797 -25.132  0.00  0.00    -0.505 OA
ATOM     21  H   UNL     1      33.448 -17.439 -25.343  0.00  0.00    +0.292 HD
ENDBRANCH   8  20
BRANCH  10  22
ATOM     22  O   UNL     1      35.192 -17.197 -20.527  0.00  0.00    -0.505 OA
ATOM     23  H   UNL     1      35.023 -18.117 -20.488  0.00  0.00    +0.292 HD
ENDBRANCH  10  22
TORSDOF 4
ENDMDL
MODEL 4
REMARK VINA RESULT:     -11.2      3.179      8.016
REMARK  Name = 5280443
REMARK  4 active torsions:
REMARK  status: ('A' for Active; 'I' for Inactive)
REMARK    1  A    between atoms: C_5  and  C_12
REMARK    2  A    between atoms: C_8  and  O_20
REMARK    3  A    between atoms: C_10  and  O_22
REMARK    4  A    between atoms: C_17  and  O_18
REMARK                            x       y       z     vdW  Elec       q    Type
REMARK                         _______ _______ _______ _____ _____    ______ ____
ROOT
ATOM      1  O   UNL     1      33.238 -13.147 -22.059  0.00  0.00    -0.453 OA
ATOM      2  O   UNL     1      33.017 -14.524 -25.887  0.00  0.00    -0.286 OA
ATOM      3  C   UNL     1      33.644 -14.940 -23.647  0.00  0.00    +0.107 C 
ATOM      4  C   UNL     1      33.690 -14.408 -22.360  0.00  0.00    +0.154 C 
ATOM      5  C   UNL     1      32.723 -12.368 -23.084  0.00  0.00    +0.148 C 
ATOM      6  C   UNL     1      33.089 -14.120 -24.735  0.00  0.00    +0.205 C 
ATOM      7  C   UNL     1      32.620 -12.770 -24.361  0.00  0.00    +0.080 C 
ATOM      8  C   UNL     1      34.118 -16.230 -23.895  0.00  0.00    +0.143 C 
ATOM      9  C   UNL     1      34.209 -15.165 -21.310  0.00  0.00    +0.074 C 
ATOM     10  C   UNL     1      34.683 -16.454 -21.553  0.00  0.00    +0.140 C 
ATOM     11  C   UNL     1      34.638 -16.986 -22.844  0.00  0.00    +0.073 C 
ENDROOT
BRANCH   5  12
ATOM     12  C   UNL     1      32.262 -11.035 -22.650  0.00  0.00    +0.035 C 
ATOM     13  C   UNL     1      32.730  -9.886 -23.295  0.00  0.00    +0.006 C 
ATOM     14  C   UNL     1      31.357 -10.914 -21.593  0.00  0.00    +0.006 C 
ATOM     15  C   UNL     1      32.293  -8.626 -22.886  0.00  0.00    +0.037 C 
ATOM     16  C   UNL     1      30.922  -9.654 -21.184  0.00  0.00    +0.037 C 
ATOM     17  C   UNL     1      31.390  -8.510 -21.829  0.00  0.00    +0.134 C 
BRANCH  17  18
ATOM     18  O   UNL     1      30.964  -7.281 -21.430  0.00  0.00    -0.506 OA
ATOM     19  H   UNL     1      30.310  -6.827 -21.925  0.00  0.00    +0.292 HD
ENDBRANCH  17  18
ENDBRANCH   5  12
BRANCH   8  20
ATOM     20  O   UNL     1      34.095 -16.795 -25.134  0.00  0.00    -0.505 OA
ATOM     21  H   UNL     1      33.381 -17.349 -25.383  0.00  0.00    +0.292 HD
ENDBRANCH   8  20
BRANCH  10  22
ATOM     22  O   UNL     1      35.191 -17.196 -20.530  0.00  0.00    -0.505 OA
ATOM     23  H   UNL     1      34.845 -18.048 -20.354  0.00  0.00    +0.292 HD
ENDBRANCH  10  22
TORSDOF 4
ENDMDL
MODEL 5
REMARK VINA RESULT:     -10.7      1.932      7.390
REMARK  Name = 5280443
REMARK  4 active torsions:
REMARK  status: ('A' for Active; 'I' for Inactive)
REMARK    1  A    between atoms: C_5  and  C_12
REMARK    2  A    between atoms: C_8  and  O_20
REMARK    3  A    between atoms: C_10  and  O_22
REMARK    4  A    between atoms: C_17  and  O_18
REMARK                            x       y       z     vdW  Elec       q    Type
REMARK                         _______ _______ _______ _____ _____    ______ ____
ROOT
ATOM      1  O   UNL     1      35.243 -20.077 -19.505  0.00  0.00    -0.453 OA
ATOM      2  O   UNL     1      31.763 -21.935 -18.488  0.00  0.00    -0.286 OA
ATOM      3  C   UNL     1      34.065 -21.626 -18.051  0.00  0.00    +0.107 C 
ATOM      4  C   UNL     1      35.219 -20.956 -18.451  0.00  0.00    +0.154 C 
ATOM      5  C   UNL     1      34.067 -19.854 -20.205  0.00  0.00    +0.148 C 
ATOM      6  C   UNL     1      32.813 -21.384 -18.785  0.00  0.00    +0.205 C 
ATOM      7  C   UNL     1      32.892 -20.432 -19.912  0.00  0.00    +0.080 C 
ATOM      8  C   UNL     1      34.100 -22.509 -16.971  0.00  0.00    +0.143 C 
ATOM      9  C   UNL     1      36.419 -21.166 -17.771  0.00  0.00    +0.074 C 
ATOM     10  C   UNL     1      36.458 -22.048 -16.691  0.00  0.00    +0.140 C 
ATOM     11  C   UNL     1      35.300 -22.719 -16.292  0.00  0.00    +0.073 C 
ENDROOT
BRANCH   5  12
ATOM     12  C   UNL     1      34.204 -18.888 -21.313  0.00  0.00    +0.035 C 
ATOM     13  C   UNL     1      33.724 -19.208 -22.586  0.00  0.00    +0.006 C 
ATOM     14  C   UNL     1      34.812 -17.650 -21.094  0.00  0.00    +0.006 C 
ATOM     15  C   UNL     1      33.852 -18.295 -23.633  0.00  0.00    +0.037 C 
ATOM     16  C   UNL     1      34.940 -16.737 -22.141  0.00  0.00    +0.037 C 
ATOM     17  C   UNL     1      34.461 -17.059 -23.411  0.00  0.00    +0.134 C 
BRANCH  17  18
ATOM     18  O   UNL     1      34.585 -16.169 -24.431  0.00  0.00    -0.506 OA
ATOM     19  H   UNL     1      34.939 -16.444 -25.254  0.00  0.00    +0.292 HD
ENDBRANCH  17  18
ENDBRANCH   5  12
BRANCH   8  20
ATOM     20  O   UNL     1      32.999 -23.187 -16.541  0.00  0.00    -0.505 OA
ATOM     21  H   UNL     1      32.805 -23.233 -15.625  0.00  0.00    +0.292 HD
ENDBRANCH   8  20
BRANCH  10  22
ATOM     22  O   UNL     1      37.627 -22.256 -16.024  0.00  0.00    -0.505 OA
ATOM     23  H   UNL     1      38.419 -21.863 -16.335  0.00  0.00    +0.292 HD
ENDBRANCH  10  22
TORSDOF 4
ENDMDL
MODEL 6
REMARK VINA RESULT:     -10.5      1.551      2.313
REMARK  Name = 5280443
REMARK  4 active torsions:
REMARK  status: ('A' for Active; 'I' for Inactive)
REMARK    1  A    between atoms: C_5  and  C_12
REMARK    2  A    between atoms: C_8  and  O_20
REMARK    3  A    between atoms: C_10  and  O_22
REMARK    4  A    between atoms: C_17  and  O_18
REMARK                            x       y       z     vdW  Elec       q    Type
REMARK                         _______ _______ _______ _____ _____    ______ ____
ROOT
ATOM      1  O   UNL     1      33.922 -15.668 -21.416  0.00  0.00    -0.453 OA
ATOM      2  O   UNL     1      33.852 -15.401 -25.481  0.00  0.00    -0.286 OA
ATOM      3  C   UNL     1      33.422 -14.362 -23.402  0.00  0.00    +0.107 C 
ATOM      4  C   UNL     1      33.474 -14.519 -22.019  0.00  0.00    +0.154 C 
ATOM      5  C   UNL     1      34.333 -16.719 -22.222  0.00  0.00    +0.148 C 
ATOM      6  C   UNL     1      33.867 -15.471 -24.261  0.00  0.00    +0.205 C 
ATOM      7  C   UNL     1      34.337 -16.686 -23.564  0.00  0.00    +0.080 C 
ATOM      8  C   UNL     1      32.957 -13.169 -23.961  0.00  0.00    +0.143 C 
ATOM      9  C   UNL     1      33.060 -13.482 -21.183  0.00  0.00    +0.074 C 
ATOM     10  C   UNL     1      32.594 -12.289 -21.737  0.00  0.00    +0.140 C 
ATOM     11  C   UNL     1      32.543 -12.133 -23.124  0.00  0.00    +0.073 C 
ENDROOT
BRANCH   5  12
ATOM     12  C   UNL     1      34.800 -17.901 -21.471  0.00  0.00    +0.035 C 
ATOM     13  C   UNL     1      33.888 -18.878 -21.063  0.00  0.00    +0.006 C 
ATOM     14  C   UNL     1      36.155 -18.050 -21.168  0.00  0.00    +0.006 C 
ATOM     15  C   UNL     1      34.329 -19.996 -20.355  0.00  0.00    +0.037 C 
ATOM     16  C   UNL     1      36.596 -19.168 -20.460  0.00  0.00    +0.037 C 
ATOM     17  C   UNL     1      35.683 -20.141 -20.053  0.00  0.00    +0.134 C 
BRANCH  17  18
ATOM     18  O   UNL     1      36.114 -21.232 -19.363  0.00  0.00    -0.506 OA
ATOM     19  H   UNL     1      36.277 -21.170 -18.442  0.00  0.00    +0.292 HD
ENDBRANCH  17  18
ENDBRANCH   5  12
BRANCH   8  20
ATOM     20  O   UNL     1      32.888 -12.966 -25.306  0.00  0.00    -0.505 OA
ATOM     21  H   UNL     1      32.861 -13.699 -25.890  0.00  0.00    +0.292 HD
ENDBRANCH   8  20
BRANCH  10  22
ATOM     22  O   UNL     1      32.190 -11.274 -20.924  0.00  0.00    -0.505 OA
ATOM     23  H   UNL     1      31.344 -10.890 -21.041  0.00  0.00    +0.292 HD
ENDBRANCH  10  22
TORSDOF 4
ENDMDL
MODEL 7
REMARK VINA RESULT:     -10.2      4.692     10.610
REMARK  Name = 5280443
REMARK  4 active torsions:
REMARK  status: ('A' for Active; 'I' for Inactive)
REMARK    1  A    between atoms: C_5  and  C_12
REMARK    2  A    between atoms: C_8  and  O_20
REMARK    3  A    between atoms: C_10  and  O_22
REMARK    4  A    between atoms: C_17  and  O_18
REMARK                            x       y       z     vdW  Elec       q    Type
REMARK                         _______ _______ _______ _____ _____    ______ ____
ROOT
ATOM      1  O   UNL     1      36.070 -23.297 -15.720  0.00  0.00    -0.453 OA
ATOM      2  O   UNL     1      33.154 -23.390 -12.876  0.00  0.00    -0.286 OA
ATOM      3  C   UNL     1      35.344 -24.008 -13.514  0.00  0.00    +0.107 C 
ATOM      4  C   UNL     1      36.296 -23.938 -14.528  0.00  0.00    +0.154 C 
ATOM      5  C   UNL     1      34.834 -22.702 -15.925  0.00  0.00    +0.148 C 
ATOM      6  C   UNL     1      34.035 -23.369 -13.723  0.00  0.00    +0.205 C 
ATOM      7  C   UNL     1      33.839 -22.696 -15.023  0.00  0.00    +0.080 C 
ATOM      8  C   UNL     1      35.631 -24.673 -12.320  0.00  0.00    +0.143 C 
ATOM      9  C   UNL     1      37.546 -24.533 -14.353  0.00  0.00    +0.074 C 
ATOM     10  C   UNL     1      37.837 -25.199 -13.162  0.00  0.00    +0.140 C 
ATOM     11  C   UNL     1      36.880 -25.269 -12.147  0.00  0.00    +0.073 C 
ENDROOT
BRANCH   5  12
ATOM     12  C   UNL     1      34.699 -22.038 -17.236  0.00  0.00    +0.035 C 
ATOM     13  C   UNL     1      33.462 -22.014 -17.887  0.00  0.00    +0.006 C 
ATOM     14  C   UNL     1      35.805 -21.429 -17.832  0.00  0.00    +0.006 C 
ATOM     15  C   UNL     1      33.334 -21.385 -19.125  0.00  0.00    +0.037 C 
ATOM     16  C   UNL     1      35.677 -20.800 -19.070  0.00  0.00    +0.037 C 
ATOM     17  C   UNL     1      34.441 -20.779 -19.718  0.00  0.00    +0.134 C 
BRANCH  17  18
ATOM     18  O   UNL     1      34.316 -20.165 -20.925  0.00  0.00    -0.506 OA
ATOM     19  H   UNL     1      33.536 -19.689 -21.131  0.00  0.00    +0.292 HD
ENDBRANCH  17  18
ENDBRANCH   5  12
BRANCH   8  20
ATOM     20  O   UNL     1      34.734 -24.769 -11.299  0.00  0.00    -0.505 OA
ATOM     21  H   UNL     1      34.968 -24.475 -10.440  0.00  0.00    +0.292 HD
ENDBRANCH   8  20
BRANCH  10  22
ATOM     22  O   UNL     1      39.056 -25.781 -12.989  0.00  0.00    -0.505 OA
ATOM     23  H   UNL     1      39.830 -25.339 -13.275  0.00  0.00    +0.292 HD
ENDBRANCH  10  22
TORSDOF 4
ENDMDL
MODEL 8
REMARK VINA RESULT:     -10.2      4.024      9.264
REMARK  Name = 5280443
REMARK  4 active torsions:
REMARK  status: ('A' for Active; 'I' for Inactive)
REMARK    1  A    between atoms: C_5  and  C_12
REMARK    2  A    between atoms: C_8  and  O_20
REMARK    3  A    between atoms: C_10  and  O_22
REMARK    4  A    between atoms: C_17  and  O_18
REMARK                            x       y       z     vdW  Elec       q    Type
REMARK                         _______ _______ _______ _____ _____    ______ ____
ROOT
ATOM      1  O   UNL     1      31.489 -22.077 -17.398  0.00  0.00    -0.453 OA
ATOM      2  O   UNL     1      33.858 -24.007 -14.705  0.00  0.00    -0.286 OA
ATOM      3  C   UNL     1      31.671 -23.433 -15.392  0.00  0.00    +0.107 C 
ATOM      4  C   UNL     1      30.920 -22.754 -16.349  0.00  0.00    +0.154 C 
ATOM      5  C   UNL     1      32.871 -22.063 -17.504  0.00  0.00    +0.148 C 
ATOM      6  C   UNL     1      33.138 -23.430 -15.506  0.00  0.00    +0.205 C 
ATOM      7  C   UNL     1      33.701 -22.686 -16.651  0.00  0.00    +0.080 C 
ATOM      8  C   UNL     1      31.038 -24.106 -14.345  0.00  0.00    +0.143 C 
ATOM      9  C   UNL     1      29.528 -22.743 -16.264  0.00  0.00    +0.074 C 
ATOM     10  C   UNL     1      28.891 -23.414 -15.220  0.00  0.00    +0.140 C 
ATOM     11  C   UNL     1      29.645 -24.094 -14.261  0.00  0.00    +0.073 C 
ENDROOT
BRANCH   5  12
ATOM     12  C   UNL     1      33.376 -21.313 -18.671  0.00  0.00    +0.035 C 
ATOM     13  C   UNL     1      32.490 -20.599 -19.482  0.00  0.00    +0.006 C 
ATOM     14  C   UNL     1      34.740 -21.311 -18.968  0.00  0.00    +0.006 C 
ATOM     15  C   UNL     1      32.967 -19.888 -20.584  0.00  0.00    +0.037 C 
ATOM     16  C   UNL     1      35.216 -20.601 -20.070  0.00  0.00    +0.037 C 
ATOM     17  C   UNL     1      34.330 -19.890 -20.879  0.00  0.00    +0.134 C 
BRANCH  17  18
ATOM     18  O   UNL     1      34.795 -19.196 -21.953  0.00  0.00    -0.506 OA
ATOM     19  H   UNL     1      34.687 -19.543 -22.817  0.00  0.00    +0.292 HD
ENDBRANCH  17  18
ENDBRANCH   5  12
BRANCH   8  20
ATOM     20  O   UNL     1      31.727 -24.786 -13.385  0.00  0.00    -0.505 OA
ATOM     21  H   UNL     1      31.304 -25.019 -12.582  0.00  0.00    +0.292 HD
ENDBRANCH   8  20
BRANCH  10  22
ATOM     22  O   UNL     1      27.532 -23.405 -15.135  0.00  0.00    -0.505 OA
ATOM     23  H   UNL     1      27.110 -23.734 -14.366  0.00  0.00    +0.292 HD
ENDBRANCH  10  22
TORSDOF 4
ENDMDL
MODEL 9
REMARK VINA RESULT:     -10.1      1.768      7.323
REMARK  Name = 5280443
REMARK  4 active torsions:
REMARK  status: ('A' for Active; 'I' for Inactive)
REMARK    1  A    between atoms: C_5  and  C_12
REMARK    2  A    between atoms: C_8  and  O_20
REMARK    3  A    between atoms: C_10  and  O_22
REMARK    4  A    between atoms: C_17  and  O_18
REMARK                            x       y       z     vdW  Elec       q    Type
REMARK                         _______ _______ _______ _____ _____    ______ ____
ROOT
ATOM      1  O   UNL     1      33.059 -19.988 -20.106  0.00  0.00    -0.453 OA
ATOM      2  O   UNL     1      36.494 -21.452 -18.478  0.00  0.00    -0.286 OA
ATOM      3  C   UNL     1      34.133 -21.382 -18.432  0.00  0.00    +0.107 C 
ATOM      4  C   UNL     1      32.998 -20.846 -19.037  0.00  0.00    +0.154 C 
ATOM      5  C   UNL     1      34.306 -19.633 -20.598  0.00  0.00    +0.148 C 
ATOM      6  C   UNL     1      35.458 -21.017 -18.958  0.00  0.00    +0.205 C 
ATOM      7  C   UNL     1      35.470 -20.088 -20.106  0.00  0.00    +0.080 C 
ATOM      8  C   UNL     1      34.010 -22.253 -17.347  0.00  0.00    +0.143 C 
ATOM      9  C   UNL     1      31.730 -21.178 -18.560  0.00  0.00    +0.074 C 
ATOM     10  C   UNL     1      31.603 -22.047 -17.476  0.00  0.00    +0.140 C 
ATOM     11  C   UNL     1      32.741 -22.584 -16.870  0.00  0.00    +0.073 C 
ENDROOT
BRANCH   5  12
ATOM     12  C   UNL     1      34.257 -18.711 -21.750  0.00  0.00    +0.035 C 
ATOM     13  C   UNL     1      34.724 -17.400 -21.619  0.00  0.00    +0.006 C 
ATOM     14  C   UNL     1      33.744 -19.144 -22.974  0.00  0.00    +0.006 C 
ATOM     15  C   UNL     1      34.678 -16.529 -22.708  0.00  0.00    +0.037 C 
ATOM     16  C   UNL     1      33.698 -18.273 -24.062  0.00  0.00    +0.037 C 
ATOM     17  C   UNL     1      34.165 -16.965 -23.929  0.00  0.00    +0.134 C 
BRANCH  17  18
ATOM     18  O   UNL     1      34.120 -16.116 -24.991  0.00  0.00    -0.506 OA
ATOM     19  H   UNL     1      34.914 -15.855 -25.417  0.00  0.00    +0.292 HD
ENDBRANCH  17  18
ENDBRANCH   5  12
BRANCH   8  20
ATOM     20  O   UNL     1      35.088 -22.804 -16.722  0.00  0.00    -0.505 OA
ATOM     21  H   UNL     1      35.337 -22.507 -15.869  0.00  0.00    +0.292 HD
ENDBRANCH   8  20
BRANCH  10  22
ATOM     22  O   UNL     1      30.367 -22.374 -17.008  0.00  0.00    -0.505 OA
ATOM     23  H   UNL     1      30.279 -22.989 -16.307  0.00  0.00    +0.292 HD
ENDBRANCH  10  22
TORSDOF 4
ENDMDL
