MODEL 1
REMARK VINA RESULT:     -13.1      0.000      0.000
REMARK  Name = 24776445
REMARK  4 active torsions:
REMARK  status: ('A' for Active; 'I' for Inactive)
REMARK    1  A    between atoms: N_2  and  C_17
REMARK    2  A    between atoms: C_3  and  C_7
REMARK    3  A    between atoms: C_6  and  S_12
REMARK    4  A    between atoms: C_18  and  C_24
REMARK                            x       y       z     vdW  Elec       q    Type
REMARK                         _______ _______ _______ _____ _____    ______ ____
ROOT
ATOM      1  O   UNL     1      33.210 -21.077 -19.874  0.00  0.00    -0.270 OA
ATOM      2  N   UNL     1      35.086 -19.670 -20.040  0.00  0.00    -0.280 N 
ATOM      3  C   UNL     1      34.302 -20.684 -19.476  0.00  0.00    +0.250 C 
ATOM      4  H   UNL     1      35.940 -19.483 -19.588  0.00  0.00    +0.155 HD
ENDROOT
BRANCH   3   7
ATOM      5 CL   UNL     1      32.392 -22.331 -17.691  0.00  0.00    -0.082 Cl
ATOM      6  C   UNL     1      35.997 -22.470 -15.980  0.00  0.00    +0.107 C 
ATOM      7  C   UNL     1      34.862 -21.318 -18.254  0.00  0.00    +0.064 C 
ATOM      8  C   UNL     1      34.642 -22.655 -16.254  0.00  0.00    +0.030 C 
ATOM      9  C   UNL     1      36.786 -21.708 -16.845  0.00  0.00    +0.019 C 
ATOM     10  C   UNL     1      34.075 -22.079 -17.390  0.00  0.00    +0.063 C 
ATOM     11  C   UNL     1      36.218 -21.133 -17.981  0.00  0.00    +0.007 C 
BRANCH   6  12
ATOM     12  S   UNL     1      36.710 -23.192 -14.559  0.00  0.00    +0.010 S 
ATOM     13  O   UNL     1      38.149 -23.258 -14.765  0.00  0.00    -0.169 OA
ATOM     14  O   UNL     1      36.179 -22.529 -13.377  0.00  0.00    -0.169 OA
ATOM     15  C   UNL     1      36.082 -24.856 -14.548  0.00  0.00    +0.182 C 
ENDBRANCH   6  12
ENDBRANCH   3   7
BRANCH   2  17
ATOM     16 CL   UNL     1      33.903 -16.417 -24.836  0.00  0.00    -0.082 Cl
ATOM     17  C   UNL     1      34.805 -18.890 -21.163  0.00  0.00    +0.051 C 
ATOM     18  C   UNL     1      34.326 -16.738 -22.151  0.00  0.00    +0.029 C 
ATOM     19  C   UNL     1      34.605 -17.516 -21.027  0.00  0.00    +0.017 C 
ATOM     20  C   UNL     1      34.725 -19.486 -22.422  0.00  0.00    +0.016 C 
ATOM     21  C   UNL     1      34.246 -17.334 -23.409  0.00  0.00    +0.059 C 
ATOM     22  C   UNL     1      34.445 -18.707 -23.545  0.00  0.00    +0.013 C 
BRANCH  18  24
ATOM     23  N   UNL     1      34.022 -14.913 -20.678  0.00  0.00    -0.244 NA
ATOM     24  C   UNL     1      34.127 -15.313 -21.965  0.00  0.00    +0.082 C 
ATOM     25  C   UNL     1      34.052 -14.456 -23.052  0.00  0.00    +0.019 C 
ATOM     26  C   UNL     1      33.861 -13.102 -22.800  0.00  0.00    +0.003 C 
ATOM     27  C   UNL     1      33.836 -13.590 -20.473  0.00  0.00    +0.099 C 
ATOM     28  C   UNL     1      33.749 -12.653 -21.490  0.00  0.00    +0.021 C 
ENDBRANCH  18  24
ENDBRANCH   2  17
TORSDOF 4
ENDMDL
MODEL 2
REMARK VINA RESULT:     -11.7      5.578      9.256
REMARK  Name = 24776445
REMARK  4 active torsions:
REMARK  status: ('A' for Active; 'I' for Inactive)
REMARK    1  A    between atoms: N_2  and  C_17
REMARK    2  A    between atoms: C_3  and  C_7
REMARK    3  A    between atoms: C_6  and  S_12
REMARK    4  A    between atoms: C_18  and  C_24
REMARK                            x       y       z     vdW  Elec       q    Type
REMARK                         _______ _______ _______ _____ _____    ______ ____
ROOT
ATOM      1  O   UNL     1      33.483 -11.956 -24.131  0.00  0.00    -0.270 OA
ATOM      2  N   UNL     1      32.589 -11.838 -21.960  0.00  0.00    -0.280 N 
ATOM      3  C   UNL     1      33.230 -12.458 -23.041  0.00  0.00    +0.250 C 
ATOM      4  H   UNL     1      32.466 -12.393 -21.155  0.00  0.00    +0.155 HD
ENDROOT
BRANCH   3   7
ATOM      5 CL   UNL     1      33.172 -14.355 -25.477  0.00  0.00    -0.082 Cl
ATOM      6  C   UNL     1      34.336 -16.527 -22.336  0.00  0.00    +0.107 C 
ATOM      7  C   UNL     1      33.610 -13.878 -22.828  0.00  0.00    +0.064 C 
ATOM      8  C   UNL     1      33.976 -16.130 -23.624  0.00  0.00    +0.030 C 
ATOM      9  C   UNL     1      34.333 -15.599 -21.293  0.00  0.00    +0.019 C 
ATOM     10  C   UNL     1      33.613 -14.806 -23.869  0.00  0.00    +0.063 C 
ATOM     11  C   UNL     1      33.970 -14.276 -21.539  0.00  0.00    +0.007 C 
BRANCH   6  12
ATOM     12  S   UNL     1      34.793 -18.184 -22.027  0.00  0.00    +0.010 S 
ATOM     13  O   UNL     1      34.283 -18.551 -20.714  0.00  0.00    -0.169 OA
ATOM     14  O   UNL     1      34.448 -18.993 -23.188  0.00  0.00    -0.169 OA
ATOM     15  C   UNL     1      36.568 -18.142 -21.934  0.00  0.00    +0.182 C 
ENDBRANCH   6  12
ENDBRANCH   3   7
BRANCH   2  17
ATOM     16 CL   UNL     1      30.496  -6.320 -21.577  0.00  0.00    -0.082 Cl
ATOM     17  C   UNL     1      32.103 -10.533 -21.882  0.00  0.00    +0.051 C 
ATOM     18  C   UNL     1      31.886  -8.320 -22.826  0.00  0.00    +0.029 C 
ATOM     19  C   UNL     1      32.375  -9.624 -22.905  0.00  0.00    +0.017 C 
ATOM     20  C   UNL     1      31.343 -10.138 -20.781  0.00  0.00    +0.016 C 
ATOM     21  C   UNL     1      31.126  -7.925 -21.725  0.00  0.00    +0.059 C 
ATOM     22  C   UNL     1      30.855  -8.832 -20.703  0.00  0.00    +0.013 C 
BRANCH  18  24
ATOM     23  N   UNL     1      33.468  -6.964 -23.945  0.00  0.00    -0.244 NA
ATOM     24  C   UNL     1      32.191  -7.407 -23.912  0.00  0.00    +0.082 C 
ATOM     25  C   UNL     1      31.218  -7.038 -24.828  0.00  0.00    +0.019 C 
ATOM     26  C   UNL     1      31.581  -6.160 -25.843  0.00  0.00    +0.003 C 
ATOM     27  C   UNL     1      33.783  -6.112 -24.946  0.00  0.00    +0.099 C 
ATOM     28  C   UNL     1      32.885  -5.683 -25.910  0.00  0.00    +0.021 C 
ENDBRANCH  18  24
ENDBRANCH   2  17
TORSDOF 4
ENDMDL
MODEL 3
REMARK VINA RESULT:     -11.7      3.990      9.813
REMARK  Name = 24776445
REMARK  4 active torsions:
REMARK  status: ('A' for Active; 'I' for Inactive)
REMARK    1  A    between atoms: N_2  and  C_17
REMARK    2  A    between atoms: C_3  and  C_7
REMARK    3  A    between atoms: C_6  and  S_12
REMARK    4  A    between atoms: C_18  and  C_24
REMARK                            x       y       z     vdW  Elec       q    Type
REMARK                         _______ _______ _______ _____ _____    ______ ____
ROOT
ATOM      1  O   UNL     1      33.268 -23.280 -18.960  0.00  0.00    -0.270 OA
ATOM      2  N   UNL     1      33.046 -21.717 -17.218  0.00  0.00    -0.280 N 
ATOM      3  C   UNL     1      33.320 -22.133 -18.527  0.00  0.00    +0.250 C 
ATOM      4  H   UNL     1      33.139 -20.752 -17.044  0.00  0.00    +0.155 HD
ENDROOT
BRANCH   3   7
ATOM      5 CL   UNL     1      36.309 -21.357 -18.596  0.00  0.00    -0.082 Cl
ATOM      6  C   UNL     1      34.439 -19.031 -21.248  0.00  0.00    +0.107 C 
ATOM      7  C   UNL     1      33.740 -21.059 -19.463  0.00  0.00    +0.064 C 
ATOM      8  C   UNL     1      35.417 -19.630 -20.455  0.00  0.00    +0.030 C 
ATOM      9  C   UNL     1      33.110 -19.446 -21.149  0.00  0.00    +0.019 C 
ATOM     10  C   UNL     1      35.068 -20.643 -19.563  0.00  0.00    +0.063 C 
ATOM     11  C   UNL     1      32.761 -20.460 -20.258  0.00  0.00    +0.007 C 
BRANCH   6  12
ATOM     12  S   UNL     1      34.875 -17.763 -22.367  0.00  0.00    +0.010 S 
ATOM     13  O   UNL     1      36.315 -17.820 -22.569  0.00  0.00    -0.169 OA
ATOM     14  O   UNL     1      33.981 -17.821 -23.516  0.00  0.00    -0.169 OA
ATOM     15  C   UNL     1      34.503 -16.258 -21.496  0.00  0.00    +0.182 C 
ENDBRANCH   6  12
ENDBRANCH   3   7
BRANCH   2  17
ATOM     16 CL   UNL     1      31.344 -25.035 -12.628  0.00  0.00    -0.082 Cl
ATOM     17  C   UNL     1      32.659 -22.500 -16.130  0.00  0.00    +0.051 C 
ATOM     18  C   UNL     1      33.203 -23.633 -14.067  0.00  0.00    +0.029 C 
ATOM     19  C   UNL     1      33.592 -22.851 -15.154  0.00  0.00    +0.017 C 
ATOM     20  C   UNL     1      31.337 -22.931 -16.018  0.00  0.00    +0.016 C 
ATOM     21  C   UNL     1      31.881 -24.064 -13.955  0.00  0.00    +0.059 C 
ATOM     22  C   UNL     1      30.949 -23.714 -14.930  0.00  0.00    +0.013 C 
BRANCH  18  24
ATOM     23  N   UNL     1      33.960 -23.502 -11.830  0.00  0.00    -0.244 NA
ATOM     24  C   UNL     1      34.205 -23.973 -13.074  0.00  0.00    +0.082 C 
ATOM     25  C   UNL     1      35.318 -24.725 -13.413  0.00  0.00    +0.019 C 
ATOM     26  C   UNL     1      36.237 -25.014 -12.411  0.00  0.00    +0.003 C 
ATOM     27  C   UNL     1      34.876 -23.803 -10.883  0.00  0.00    +0.099 C 
ATOM     28  C   UNL     1      36.020 -24.548 -11.120  0.00  0.00    +0.021 C 
ENDBRANCH  18  24
ENDBRANCH   2  17
TORSDOF 4
ENDMDL
MODEL 4
REMARK VINA RESULT:     -11.7      5.584      9.172
REMARK  Name = 24776445
REMARK  4 active torsions:
REMARK  status: ('A' for Active; 'I' for Inactive)
REMARK    1  A    between atoms: N_2  and  C_17
REMARK    2  A    between atoms: C_3  and  C_7
REMARK    3  A    between atoms: C_6  and  S_12
REMARK    4  A    between atoms: C_18  and  C_24
REMARK                            x       y       z     vdW  Elec       q    Type
REMARK                         _______ _______ _______ _____ _____    ______ ____
ROOT
ATOM      1  O   UNL     1      32.803 -12.381 -24.578  0.00  0.00    -0.270 OA
ATOM      2  N   UNL     1      32.652 -12.004 -22.263  0.00  0.00    -0.280 N 
ATOM      3  C   UNL     1      32.945 -12.744 -23.415  0.00  0.00    +0.250 C 
ATOM      4  H   UNL     1      32.827 -12.454 -21.404  0.00  0.00    +0.155 HD
ENDROOT
BRANCH   3   7
ATOM      5 CL   UNL     1      33.912 -13.459 -20.569  0.00  0.00    -0.082 Cl
ATOM      6  C   UNL     1      34.401 -16.720 -22.821  0.00  0.00    +0.107 C 
ATOM      7  C   UNL     1      33.456 -14.119 -23.177  0.00  0.00    +0.064 C 
ATOM      8  C   UNL     1      34.385 -15.830 -21.746  0.00  0.00    +0.030 C 
ATOM      9  C   UNL     1      33.945 -16.309 -24.074  0.00  0.00    +0.019 C 
ATOM     10  C   UNL     1      33.912 -14.531 -21.924  0.00  0.00    +0.063 C 
ATOM     11  C   UNL     1      33.472 -15.009 -24.251  0.00  0.00    +0.007 C 
BRANCH   6  12
ATOM     12  S   UNL     1      34.990 -18.349 -22.599  0.00  0.00    +0.010 S 
ATOM     13  O   UNL     1      34.421 -19.178 -23.651  0.00  0.00    -0.169 OA
ATOM     14  O   UNL     1      36.434 -18.307 -22.414  0.00  0.00    -0.169 OA
ATOM     15  C   UNL     1      34.284 -18.866 -21.051  0.00  0.00    +0.182 C 
ENDBRANCH   6  12
ENDBRANCH   3   7
BRANCH   2  17
ATOM     16 CL   UNL     1      30.446  -6.531 -21.865  0.00  0.00    -0.082 Cl
ATOM     17  C   UNL     1      32.140 -10.708 -22.180  0.00  0.00    +0.051 C 
ATOM     18  C   UNL     1      32.027  -8.445 -23.018  0.00  0.00    +0.029 C 
ATOM     19  C   UNL     1      32.540  -9.739 -23.101  0.00  0.00    +0.017 C 
ATOM     20  C   UNL     1      31.227 -10.383 -21.177  0.00  0.00    +0.016 C 
ATOM     21  C   UNL     1      31.114  -8.119 -22.015  0.00  0.00    +0.059 C 
ATOM     22  C   UNL     1      30.715  -9.087 -21.094  0.00  0.00    +0.013 C 
BRANCH  18  24
ATOM     23  N   UNL     1      31.516  -7.057 -24.863  0.00  0.00    -0.244 NA
ATOM     24  C   UNL     1      32.469  -7.468 -23.996  0.00  0.00    +0.082 C 
ATOM     25  C   UNL     1      33.778  -7.015 -24.010  0.00  0.00    +0.019 C 
ATOM     26  C   UNL     1      34.132  -6.079 -24.975  0.00  0.00    +0.003 C 
ATOM     27  C   UNL     1      31.898  -6.147 -25.787  0.00  0.00    +0.099 C 
ATOM     28  C   UNL     1      33.180  -5.632 -25.884  0.00  0.00    +0.021 C 
ENDBRANCH  18  24
ENDBRANCH   2  17
TORSDOF 4
ENDMDL
MODEL 5
REMARK VINA RESULT:     -11.7      1.466      1.831
REMARK  Name = 24776445
REMARK  4 active torsions:
REMARK  status: ('A' for Active; 'I' for Inactive)
REMARK    1  A    between atoms: N_2  and  C_17
REMARK    2  A    between atoms: C_3  and  C_7
REMARK    3  A    between atoms: C_6  and  S_12
REMARK    4  A    between atoms: C_18  and  C_24
REMARK                            x       y       z     vdW  Elec       q    Type
REMARK                         _______ _______ _______ _____ _____    ______ ____
ROOT
ATOM      1  O   UNL     1      32.248 -20.672 -20.200  0.00  0.00    -0.270 OA
ATOM      2  N   UNL     1      34.421 -19.778 -20.259  0.00  0.00    -0.280 N 
ATOM      3  C   UNL     1      33.389 -20.582 -19.759  0.00  0.00    +0.250 C 
ATOM      4  H   UNL     1      35.279 -19.829 -19.778  0.00  0.00    +0.155 HD
ENDROOT
BRANCH   3   7
ATOM      5 CL   UNL     1      36.322 -20.566 -18.790  0.00  0.00    -0.082 Cl
ATOM      6  C   UNL     1      34.279 -22.908 -16.283  0.00  0.00    +0.107 C 
ATOM      7  C   UNL     1      33.729 -21.380 -18.553  0.00  0.00    +0.064 C 
ATOM      8  C   UNL     1      35.302 -22.195 -16.909  0.00  0.00    +0.030 C 
ATOM      9  C   UNL     1      32.980 -22.857 -16.792  0.00  0.00    +0.019 C 
ATOM     10  C   UNL     1      35.027 -21.432 -18.043  0.00  0.00    +0.063 C 
ATOM     11  C   UNL     1      32.706 -22.093 -17.926  0.00  0.00    +0.007 C 
BRANCH   6  12
ATOM     12  S   UNL     1      34.620 -23.862 -14.862  0.00  0.00    +0.010 S 
ATOM     13  O   UNL     1      34.941 -25.214 -15.296  0.00  0.00    -0.169 OA
ATOM     14  O   UNL     1      35.557 -23.133 -14.018  0.00  0.00    -0.169 OA
ATOM     15  C   UNL     1      33.073 -23.921 -13.988  0.00  0.00    +0.182 C 
ENDBRANCH   6  12
ENDBRANCH   3   7
BRANCH   2  17
ATOM     16 CL   UNL     1      34.274 -16.160 -24.935  0.00  0.00    -0.082 Cl
ATOM     17  C   UNL     1      34.383 -18.913 -21.353  0.00  0.00    +0.051 C 
ATOM     18  C   UNL     1      34.195 -16.677 -22.248  0.00  0.00    +0.029 C 
ATOM     19  C   UNL     1      34.230 -17.540 -21.153  0.00  0.00    +0.017 C 
ATOM     20  C   UNL     1      34.500 -19.421 -22.646  0.00  0.00    +0.016 C 
ATOM     21  C   UNL     1      34.312 -17.185 -23.542  0.00  0.00    +0.059 C 
ATOM     22  C   UNL     1      34.463 -18.556 -23.741  0.00  0.00    +0.013 C 
BRANCH  18  24
ATOM     23  N   UNL     1      34.022 -14.906 -20.690  0.00  0.00    -0.244 NA
ATOM     24  C   UNL     1      34.036 -15.256 -21.996  0.00  0.00    +0.082 C 
ATOM     25  C   UNL     1      33.909 -14.356 -23.042  0.00  0.00    +0.019 C 
ATOM     26  C   UNL     1      33.761 -13.011 -22.727  0.00  0.00    +0.003 C 
ATOM     27  C   UNL     1      33.875 -13.589 -20.424  0.00  0.00    +0.099 C 
ATOM     28  C   UNL     1      33.742 -12.611 -21.396  0.00  0.00    +0.021 C 
ENDBRANCH  18  24
ENDBRANCH   2  17
TORSDOF 4
ENDMDL
MODEL 6
REMARK VINA RESULT:     -11.3      9.361     14.626
REMARK  Name = 24776445
REMARK  4 active torsions:
REMARK  status: ('A' for Active; 'I' for Inactive)
REMARK    1  A    between atoms: N_2  and  C_17
REMARK    2  A    between atoms: C_3  and  C_7
REMARK    3  A    between atoms: C_6  and  S_12
REMARK    4  A    between atoms: C_18  and  C_24
REMARK                            x       y       z     vdW  Elec       q    Type
REMARK                         _______ _______ _______ _____ _____    ______ ____
ROOT
ATOM      1  O   UNL     1      33.075  -7.284 -21.771  0.00  0.00    -0.270 OA
ATOM      2  N   UNL     1      32.159  -8.815 -23.302  0.00  0.00    -0.280 N 
ATOM      3  C   UNL     1      32.641  -7.569 -22.883  0.00  0.00    +0.250 C 
ATOM      4  H   UNL     1      31.847  -8.865 -24.235  0.00  0.00    +0.155 HD
ENDROOT
BRANCH   3   7
ATOM      5 CL   UNL     1      30.036  -5.924 -23.116  0.00  0.00    -0.082 Cl
ATOM      6  C   UNL     1      32.573  -4.482 -25.841  0.00  0.00    +0.107 C 
ATOM      7  C   UNL     1      32.587  -6.488 -23.901  0.00  0.00    +0.064 C 
ATOM      8  C   UNL     1      31.446  -4.692 -25.046  0.00  0.00    +0.030 C 
ATOM      9  C   UNL     1      33.708  -5.276 -25.666  0.00  0.00    +0.019 C 
ATOM     10  C   UNL     1      31.453  -5.695 -24.077  0.00  0.00    +0.063 C 
ATOM     11  C   UNL     1      33.715  -6.278 -24.696  0.00  0.00    +0.007 C 
BRANCH   6  12
ATOM     12  S   UNL     1      32.567  -3.226 -27.054  0.00  0.00    +0.010 S 
ATOM     13  O   UNL     1      32.918  -3.833 -28.329  0.00  0.00    -0.169 OA
ATOM     14  O   UNL     1      31.334  -2.460 -26.933  0.00  0.00    -0.169 OA
ATOM     15  C   UNL     1      33.897  -2.146 -26.576  0.00  0.00    +0.182 C 
ENDBRANCH   6  12
ENDBRANCH   3   7
BRANCH   2  17
ATOM     16 CL   UNL     1      31.733 -13.780 -20.118  0.00  0.00    -0.082 Cl
ATOM     17  C   UNL     1      32.065  -9.994 -22.562  0.00  0.00    +0.051 C 
ATOM     18  C   UNL     1      32.535 -12.350 -22.309  0.00  0.00    +0.029 C 
ATOM     19  C   UNL     1      32.629 -11.173 -23.051  0.00  0.00    +0.017 C 
ATOM     20  C   UNL     1      31.409  -9.993 -21.331  0.00  0.00    +0.016 C 
ATOM     21  C   UNL     1      31.878 -12.349 -21.079  0.00  0.00    +0.059 C 
ATOM     22  C   UNL     1      31.315 -11.172 -20.590  0.00  0.00    +0.013 C 
BRANCH  18  24
ATOM     23  N   UNL     1      32.832 -13.809 -24.146  0.00  0.00    -0.244 NA
ATOM     24  C   UNL     1      33.137 -13.553 -22.854  0.00  0.00    +0.082 C 
ATOM     25  C   UNL     1      33.956 -14.356 -22.076  0.00  0.00    +0.019 C 
ATOM     26  C   UNL     1      34.499 -15.493 -22.664  0.00  0.00    +0.003 C 
ATOM     27  C   UNL     1      33.377 -14.924 -24.682  0.00  0.00    +0.099 C 
ATOM     28  C   UNL     1      34.208 -15.790 -23.990  0.00  0.00    +0.021 C 
ENDBRANCH  18  24
ENDBRANCH   2  17
TORSDOF 4
ENDMDL
MODEL 7
REMARK VINA RESULT:     -11.0      3.701      9.978
REMARK  Name = 24776445
REMARK  4 active torsions:
REMARK  status: ('A' for Active; 'I' for Inactive)
REMARK    1  A    between atoms: N_2  and  C_17
REMARK    2  A    between atoms: C_3  and  C_7
REMARK    3  A    between atoms: C_6  and  S_12
REMARK    4  A    between atoms: C_18  and  C_24
REMARK                            x       y       z     vdW  Elec       q    Type
REMARK                         _______ _______ _______ _____ _____    ______ ____
ROOT
ATOM      1  O   UNL     1      33.787 -22.975 -18.208  0.00  0.00    -0.270 OA
ATOM      2  N   UNL     1      35.212 -21.652 -16.888  0.00  0.00    -0.280 N 
ATOM      3  C   UNL     1      34.457 -21.964 -18.025  0.00  0.00    +0.250 C 
ATOM      4  H   UNL     1      35.692 -20.791 -16.911  0.00  0.00    +0.155 HD
ENDROOT
BRANCH   3   7
ATOM      5 CL   UNL     1      31.782 -20.892 -19.137  0.00  0.00    -0.082 Cl
ATOM      6  C   UNL     1      34.700 -19.085 -21.177  0.00  0.00    +0.107 C 
ATOM      7  C   UNL     1      34.509 -20.961 -19.120  0.00  0.00    +0.064 C 
ATOM      8  C   UNL     1      33.447 -19.484 -20.711  0.00  0.00    +0.030 C 
ATOM      9  C   UNL     1      35.858 -19.624 -20.614  0.00  0.00    +0.019 C 
ATOM     10  C   UNL     1      33.352 -20.422 -19.684  0.00  0.00    +0.063 C 
ATOM     11  C   UNL     1      35.762 -20.561 -19.586  0.00  0.00    +0.007 C 
BRANCH   6  12
ATOM     12  S   UNL     1      34.822 -17.908 -22.462  0.00  0.00    +0.010 S 
ATOM     13  O   UNL     1      36.202 -17.893 -22.925  0.00  0.00    -0.169 OA
ATOM     14  O   UNL     1      33.743 -18.136 -23.413  0.00  0.00    -0.169 OA
ATOM     15  C   UNL     1      34.493 -16.352 -21.667  0.00  0.00    +0.182 C 
ENDBRANCH   6  12
ENDBRANCH   3   7
BRANCH   2  17
ATOM     16 CL   UNL     1      35.828 -24.837 -11.943  0.00  0.00    -0.082 Cl
ATOM     17  C   UNL     1      35.371 -22.408 -15.726  0.00  0.00    +0.051 C 
ATOM     18  C   UNL     1      36.691 -23.909 -14.370  0.00  0.00    +0.029 C 
ATOM     19  C   UNL     1      36.534 -23.154 -15.532  0.00  0.00    +0.017 C 
ATOM     20  C   UNL     1      34.366 -22.418 -14.759  0.00  0.00    +0.016 C 
ATOM     21  C   UNL     1      35.686 -23.919 -13.402  0.00  0.00    +0.059 C 
ATOM     22  C   UNL     1      34.524 -23.174 -13.597  0.00  0.00    +0.013 C 
BRANCH  18  24
ATOM     23  N   UNL     1      39.037 -23.924 -14.074  0.00  0.00    -0.244 NA
ATOM     24  C   UNL     1      37.916 -24.669 -14.206  0.00  0.00    +0.082 C 
ATOM     25  C   UNL     1      37.900 -26.055 -14.193  0.00  0.00    +0.019 C 
ATOM     26  C   UNL     1      39.111 -26.718 -14.032  0.00  0.00    +0.003 C 
ATOM     27  C   UNL     1      40.195 -24.604 -13.921  0.00  0.00    +0.099 C 
ATOM     28  C   UNL     1      40.285 -25.987 -13.894  0.00  0.00    +0.021 C 
ENDBRANCH  18  24
ENDBRANCH   2  17
TORSDOF 4
ENDMDL
MODEL 8
REMARK VINA RESULT:     -10.8      6.269      9.947
REMARK  Name = 24776445
REMARK  4 active torsions:
REMARK  status: ('A' for Active; 'I' for Inactive)
REMARK    1  A    between atoms: N_2  and  C_17
REMARK    2  A    between atoms: C_3  and  C_7
REMARK    3  A    between atoms: C_6  and  S_12
REMARK    4  A    between atoms: C_18  and  C_24
REMARK                            x       y       z     vdW  Elec       q    Type
REMARK                         _______ _______ _______ _____ _____    ______ ____
ROOT
ATOM      1  O   UNL     1      31.817 -11.259 -22.783  0.00  0.00    -0.270 OA
ATOM      2  N   UNL     1      34.026 -10.673 -23.334  0.00  0.00    -0.280 N 
ATOM      3  C   UNL     1      32.993 -11.549 -22.979  0.00  0.00    +0.250 C 
ATOM      4  H   UNL     1      34.915 -11.080 -23.452  0.00  0.00    +0.155 HD
ENDROOT
BRANCH   3   7
ATOM      5 CL   UNL     1      32.925 -13.393 -25.457  0.00  0.00    -0.082 Cl
ATOM      6  C   UNL     1      34.157 -15.620 -22.380  0.00  0.00    +0.107 C 
ATOM      7  C   UNL     1      33.393 -12.970 -22.803  0.00  0.00    +0.064 C 
ATOM      8  C   UNL     1      33.776 -15.198 -23.654  0.00  0.00    +0.030 C 
ATOM      9  C   UNL     1      34.157 -14.716 -21.317  0.00  0.00    +0.019 C 
ATOM     10  C   UNL     1      33.393 -13.874 -23.865  0.00  0.00    +0.063 C 
ATOM     11  C   UNL     1      33.775 -13.391 -21.529  0.00  0.00    +0.007 C 
BRANCH   6  12
ATOM     12  S   UNL     1      34.638 -17.277 -22.115  0.00  0.00    +0.010 S 
ATOM     13  O   UNL     1      36.066 -17.377 -22.380  0.00  0.00    -0.169 OA
ATOM     14  O   UNL     1      34.109 -17.722 -20.833  0.00  0.00    -0.169 OA
ATOM     15  C   UNL     1      33.781 -18.193 -23.376  0.00  0.00    +0.182 C 
ENDBRANCH   6  12
ENDBRANCH   3   7
BRANCH   2  17
ATOM     16 CL   UNL     1      33.761  -4.837 -24.252  0.00  0.00    -0.082 Cl
ATOM     17  C   UNL     1      33.952  -9.295 -23.541  0.00  0.00    +0.051 C 
ATOM     18  C   UNL     1      32.976  -7.149 -23.015  0.00  0.00    +0.029 C 
ATOM     19  C   UNL     1      33.047  -8.527 -22.808  0.00  0.00    +0.017 C 
ATOM     20  C   UNL     1      34.784  -8.687 -24.481  0.00  0.00    +0.016 C 
ATOM     21  C   UNL     1      33.808  -6.541 -23.955  0.00  0.00    +0.059 C 
ATOM     22  C   UNL     1      34.710  -7.309 -24.688  0.00  0.00    +0.013 C 
BRANCH  18  24
ATOM     23  N   UNL     1      30.882  -6.058 -22.877  0.00  0.00    -0.244 NA
ATOM     24  C   UNL     1      32.023  -6.387 -22.230  0.00  0.00    +0.082 C 
ATOM     25  C   UNL     1      32.297  -6.039 -20.917  0.00  0.00    +0.019 C 
ATOM     26  C   UNL     1      31.338  -5.308 -20.224  0.00  0.00    +0.003 C 
ATOM     27  C   UNL     1      29.974  -5.347 -22.171  0.00  0.00    +0.099 C 
ATOM     28  C   UNL     1      30.153  -4.951 -20.856  0.00  0.00    +0.021 C 
ENDBRANCH  18  24
ENDBRANCH   2  17
TORSDOF 4
ENDMDL
MODEL 9
REMARK VINA RESULT:     -10.8      6.445     10.529
REMARK  Name = 24776445
REMARK  4 active torsions:
REMARK  status: ('A' for Active; 'I' for Inactive)
REMARK    1  A    between atoms: N_2  and  C_17
REMARK    2  A    between atoms: C_3  and  C_7
REMARK    3  A    between atoms: C_6  and  S_12
REMARK    4  A    between atoms: C_18  and  C_24
REMARK                            x       y       z     vdW  Elec       q    Type
REMARK                         _______ _______ _______ _____ _____    ______ ____
ROOT
ATOM      1  O   UNL     1      32.644 -12.800 -24.930  0.00  0.00    -0.270 OA
ATOM      2  N   UNL     1      33.158 -13.846 -22.889  0.00  0.00    -0.280 N 
ATOM      3  C   UNL     1      32.779 -12.778 -23.711  0.00  0.00    +0.250 C 
ATOM      4  H   UNL     1      33.218 -13.649 -21.925  0.00  0.00    +0.155 HD
ENDROOT
BRANCH   3   7
ATOM      5 CL   UNL     1      31.516 -12.860 -20.893  0.00  0.00    -0.082 Cl
ATOM      6  C   UNL     1      32.144  -9.017 -21.778  0.00  0.00    +0.107 C 
ATOM      7  C   UNL     1      32.547 -11.487 -23.013  0.00  0.00    +0.064 C 
ATOM      8  C   UNL     1      31.781 -10.193 -21.122  0.00  0.00    +0.030 C 
ATOM      9  C   UNL     1      32.709  -9.076 -23.053  0.00  0.00    +0.019 C 
ATOM     10  C   UNL     1      31.982 -11.427 -21.739  0.00  0.00    +0.063 C 
ATOM     11  C   UNL     1      32.910 -10.310 -23.670  0.00  0.00    +0.007 C 
BRANCH   6  12
ATOM     12  S   UNL     1      31.894  -7.471 -21.006  0.00  0.00    +0.010 S 
ATOM     13  O   UNL     1      30.696  -6.874 -21.577  0.00  0.00    -0.169 OA
ATOM     14  O   UNL     1      32.000  -7.642 -19.564  0.00  0.00    -0.169 OA
ATOM     15  C   UNL     1      33.290  -6.494 -21.516  0.00  0.00    +0.182 C 
ENDBRANCH   6  12
ENDBRANCH   3   7
BRANCH   2  17
ATOM     16 CL   UNL     1      34.426 -19.381 -24.542  0.00  0.00    -0.082 Cl
ATOM     17  C   UNL     1      33.463 -15.155 -23.265  0.00  0.00    +0.051 C 
ATOM     18  C   UNL     1      34.282 -17.358 -22.705  0.00  0.00    +0.029 C 
ATOM     19  C   UNL     1      33.979 -16.049 -22.327  0.00  0.00    +0.017 C 
ATOM     20  C   UNL     1      33.249 -15.569 -24.580  0.00  0.00    +0.016 C 
ATOM     21  C   UNL     1      34.068 -17.771 -24.019  0.00  0.00    +0.059 C 
ATOM     22  C   UNL     1      33.553 -16.878 -24.957  0.00  0.00    +0.013 C 
BRANCH  18  24
ATOM     23  N   UNL     1      33.940 -19.171 -21.226  0.00  0.00    -0.244 NA
ATOM     24  C   UNL     1      34.816 -18.256 -21.697  0.00  0.00    +0.082 C 
ATOM     25  C   UNL     1      36.132 -18.151 -21.274  0.00  0.00    +0.019 C 
ATOM     26  C   UNL     1      36.576 -19.044 -20.307  0.00  0.00    +0.003 C 
ATOM     27  C   UNL     1      34.409 -20.022 -20.286  0.00  0.00    +0.099 C 
ATOM     28  C   UNL     1      35.705 -20.000 -19.797  0.00  0.00    +0.021 C 
ENDBRANCH  18  24
ENDBRANCH   2  17
TORSDOF 4
ENDMDL
