MODEL 1
REMARK VINA RESULT:     -10.6      0.000      0.000
REMARK  Name = 11974
REMARK  8 active torsions:
REMARK  status: ('A' for Active; 'I' for Inactive)
REMARK    1  A    between atoms: C_1  and  C_2
REMARK    2  A    between atoms: C_1  and  C_17
REMARK    3  A    between atoms: C_2  and  O_3
REMARK    4  A    between atoms: O_3  and  C_5
REMARK    5  A    between atoms: C_8  and  C_13
REMARK    6  A    between atoms: C_17  and  O_18
REMARK    7  A    between atoms: O_18  and  C_20
REMARK    8  A    between atoms: C_23  and  C_28
REMARK                            x       y       z     vdW  Elec       q    Type
REMARK                         _______ _______ _______ _____ _____    ______ ____
ROOT
ATOM      1  C   UNL     1      32.756 -22.787 -14.854  0.00  0.00    +0.095 C 
ENDROOT
BRANCH   1   2
ATOM      2  C   UNL     1      32.662 -22.837 -16.369  0.00  0.00    +0.209 C 
BRANCH   2   3
ATOM      3  O   UNL     1      33.969 -22.987 -16.906  0.00  0.00    -0.475 OA
BRANCH   3   5
ATOM      4 BR   UNL     1      36.865 -21.916 -16.451  0.00  0.00    -0.046 Br
ATOM      5  C   UNL     1      34.357 -22.075 -17.853  0.00  0.00    +0.145 C 
ATOM      6  C   UNL     1      35.618 -21.488 -17.814  0.00  0.00    +0.069 C 
ATOM      7  C   UNL     1      33.456 -21.748 -18.862  0.00  0.00    +0.037 C 
ATOM      8  C   UNL     1      35.083 -20.230 -19.806  0.00  0.00    +0.031 C 
ATOM      9  C   UNL     1      35.982 -20.564 -18.793  0.00  0.00    +0.012 C 
ATOM     10  C   UNL     1      33.820 -20.823 -19.840  0.00  0.00    +0.006 C 
BRANCH   8  13
ATOM     11  N   UNL     1      34.703 -19.102 -21.986  0.00  0.00    -0.343 N 
ATOM     12  N   UNL     1      36.547 -18.530 -20.668  0.00  0.00    -0.285 NA
ATOM     13  C   UNL     1      35.461 -19.268 -20.827  0.00  0.00    +0.117 C 
ATOM     14  H   UNL     1      34.977 -18.445 -22.664  0.00  0.00    +0.144 HD
ATOM     15  H   UNL     1      33.893 -19.644 -22.125  0.00  0.00    +0.144 HD
ATOM     16  H   UNL     1      36.804 -17.878 -21.358  0.00  0.00    +0.188 HD
ENDBRANCH   8  13
ENDBRANCH   3   5
ENDBRANCH   2   3
ENDBRANCH   1   2
BRANCH   1  17
ATOM     17  C   UNL     1      33.215 -24.112 -14.268  0.00  0.00    +0.209 C 
BRANCH  17  18
ATOM     18  O   UNL     1      34.191 -23.881 -13.260  0.00  0.00    -0.475 OA
BRANCH  18  20
ATOM     19 BR   UNL     1      36.289 -22.742 -11.250  0.00  0.00    -0.046 Br
ATOM     20  C   UNL     1      35.471 -24.286 -13.536  0.00  0.00    +0.145 C 
ATOM     21  C   UNL     1      36.542 -23.878 -12.747  0.00  0.00    +0.069 C 
ATOM     22  C   UNL     1      35.678 -25.120 -14.631  0.00  0.00    +0.037 C 
ATOM     23  C   UNL     1      38.046 -25.144 -14.152  0.00  0.00    +0.031 C 
ATOM     24  C   UNL     1      37.833 -24.308 -13.056  0.00  0.00    +0.012 C 
ATOM     25  C   UNL     1      36.969 -25.549 -14.939  0.00  0.00    +0.006 C 
BRANCH  23  28
ATOM     26  N   UNL     1      40.228 -26.134 -13.500  0.00  0.00    -0.343 N 
ATOM     27  N   UNL     1      39.842 -25.483 -15.711  0.00  0.00    -0.285 NA
ATOM     28  C   UNL     1      39.391 -25.592 -14.474  0.00  0.00    +0.117 C 
ATOM     29  H   UNL     1      41.135 -26.431 -13.740  0.00  0.00    +0.144 HD
ATOM     30  H   UNL     1      39.911 -26.221 -12.571  0.00  0.00    +0.144 HD
ATOM     31  H   UNL     1      40.753 -25.786 -15.932  0.00  0.00    +0.188 HD
ENDBRANCH  23  28
ENDBRANCH  18  20
ENDBRANCH  17  18
ENDBRANCH   1  17
TORSDOF 8
ENDMDL
MODEL 2
REMARK VINA RESULT:     -10.6      0.052      7.147
REMARK  Name = 11974
REMARK  8 active torsions:
REMARK  status: ('A' for Active; 'I' for Inactive)
REMARK    1  A    between atoms: C_1  and  C_2
REMARK    2  A    between atoms: C_1  and  C_17
REMARK    3  A    between atoms: C_2  and  O_3
REMARK    4  A    between atoms: O_3  and  C_5
REMARK    5  A    between atoms: C_8  and  C_13
REMARK    6  A    between atoms: C_17  and  O_18
REMARK    7  A    between atoms: O_18  and  C_20
REMARK    8  A    between atoms: C_23  and  C_28
REMARK                            x       y       z     vdW  Elec       q    Type
REMARK                         _______ _______ _______ _____ _____    ______ ____
ROOT
ATOM      1  C   UNL     1      32.716 -22.796 -14.810  0.00  0.00    +0.095 C 
ENDROOT
BRANCH   1   2
ATOM      2  C   UNL     1      33.188 -24.123 -14.238  0.00  0.00    +0.209 C 
BRANCH   2   3
ATOM      3  O   UNL     1      34.174 -23.871 -13.247  0.00  0.00    -0.475 OA
BRANCH   3   5
ATOM      4 BR   UNL     1      36.282 -22.738 -11.244  0.00  0.00    -0.046 Br
ATOM      5  C   UNL     1      35.453 -24.276 -13.530  0.00  0.00    +0.145 C 
ATOM      6  C   UNL     1      36.527 -23.870 -12.744  0.00  0.00    +0.069 C 
ATOM      7  C   UNL     1      35.654 -25.107 -14.627  0.00  0.00    +0.037 C 
ATOM      8  C   UNL     1      38.024 -25.132 -14.160  0.00  0.00    +0.031 C 
ATOM      9  C   UNL     1      37.816 -24.299 -13.060  0.00  0.00    +0.012 C 
ATOM     10  C   UNL     1      36.943 -25.536 -14.943  0.00  0.00    +0.006 C 
BRANCH   8  13
ATOM     11  N   UNL     1      40.202 -26.142 -13.524  0.00  0.00    -0.343 N 
ATOM     12  N   UNL     1      39.820 -25.455 -15.725  0.00  0.00    -0.285 NA
ATOM     13  C   UNL     1      39.367 -25.580 -14.489  0.00  0.00    +0.117 C 
ATOM     14  H   UNL     1      41.107 -26.440 -13.769  0.00  0.00    +0.144 HD
ATOM     15  H   UNL     1      39.885 -26.242 -12.597  0.00  0.00    +0.144 HD
ATOM     16  H   UNL     1      40.728 -25.758 -15.950  0.00  0.00    +0.188 HD
ENDBRANCH   8  13
ENDBRANCH   3   5
ENDBRANCH   2   3
ENDBRANCH   1   2
BRANCH   1  17
ATOM     17  C   UNL     1      32.689 -22.808 -16.329  0.00  0.00    +0.209 C 
BRANCH  17  18
ATOM     18  O   UNL     1      34.011 -22.941 -16.834  0.00  0.00    -0.475 OA
BRANCH  18  20
ATOM     19 BR   UNL     1      36.898 -21.846 -16.387  0.00  0.00    -0.046 Br
ATOM     20  C   UNL     1      34.398 -22.045 -17.796  0.00  0.00    +0.145 C 
ATOM     21  C   UNL     1      35.655 -21.450 -17.762  0.00  0.00    +0.069 C 
ATOM     22  C   UNL     1      33.499 -21.742 -18.815  0.00  0.00    +0.037 C 
ATOM     23  C   UNL     1      35.122 -20.234 -19.781  0.00  0.00    +0.031 C 
ATOM     24  C   UNL     1      36.018 -20.542 -18.758  0.00  0.00    +0.012 C 
ATOM     25  C   UNL     1      33.863 -20.833 -19.809  0.00  0.00    +0.006 C 
BRANCH  23  28
ATOM     26  N   UNL     1      34.755 -19.161 -21.990  0.00  0.00    -0.343 N 
ATOM     27  N   UNL     1      36.570 -18.529 -20.660  0.00  0.00    -0.285 NA
ATOM     28  C   UNL     1      35.499 -19.287 -20.818  0.00  0.00    +0.117 C 
ATOM     29  H   UNL     1      35.028 -18.513 -22.680  0.00  0.00    +0.144 HD
ATOM     30  H   UNL     1      33.956 -19.719 -22.129  0.00  0.00    +0.144 HD
ATOM     31  H   UNL     1      36.826 -17.887 -21.361  0.00  0.00    +0.188 HD
ENDBRANCH  23  28
ENDBRANCH  18  20
ENDBRANCH  17  18
ENDBRANCH   1  17
TORSDOF 8
ENDMDL
MODEL 3
REMARK VINA RESULT:     -10.3      4.488     10.302
REMARK  Name = 11974
REMARK  8 active torsions:
REMARK  status: ('A' for Active; 'I' for Inactive)
REMARK    1  A    between atoms: C_1  and  C_2
REMARK    2  A    between atoms: C_1  and  C_17
REMARK    3  A    between atoms: C_2  and  O_3
REMARK    4  A    between atoms: O_3  and  C_5
REMARK    5  A    between atoms: C_8  and  C_13
REMARK    6  A    between atoms: C_17  and  O_18
REMARK    7  A    between atoms: O_18  and  C_20
REMARK    8  A    between atoms: C_23  and  C_28
REMARK                            x       y       z     vdW  Elec       q    Type
REMARK                         _______ _______ _______ _____ _____    ______ ____
ROOT
ATOM      1  C   UNL     1      34.926 -20.384 -20.079  0.00  0.00    +0.095 C 
ENDROOT
BRANCH   1   2
ATOM      2  C   UNL     1      34.025 -21.243 -19.208  0.00  0.00    +0.209 C 
BRANCH   2   3
ATOM      3  O   UNL     1      34.829 -21.958 -18.280  0.00  0.00    -0.475 OA
BRANCH   3   5
ATOM      4 BR   UNL     1      36.804 -22.037 -15.865  0.00  0.00    -0.046 Br
ATOM      5  C   UNL     1      34.229 -22.343 -17.110  0.00  0.00    +0.145 C 
ATOM      6  C   UNL     1      34.952 -22.437 -15.925  0.00  0.00    +0.069 C 
ATOM      7  C   UNL     1      32.869 -22.641 -17.133  0.00  0.00    +0.037 C 
ATOM      8  C   UNL     1      32.949 -23.133 -14.768  0.00  0.00    +0.031 C 
ATOM      9  C   UNL     1      34.311 -22.832 -14.751  0.00  0.00    +0.012 C 
ATOM     10  C   UNL     1      32.228 -23.037 -15.959  0.00  0.00    +0.006 C 
BRANCH   8  13
ATOM     11  N   UNL     1      31.771 -24.834 -13.395  0.00  0.00    -0.343 N 
ATOM     12  N   UNL     1      32.139 -22.686 -12.550  0.00  0.00    -0.285 NA
ATOM     13  C   UNL     1      32.279 -23.544 -13.546  0.00  0.00    +0.117 C 
ATOM     14  H   UNL     1      31.322 -25.092 -12.558  0.00  0.00    +0.144 HD
ATOM     15  H   UNL     1      31.862 -25.487 -14.126  0.00  0.00    +0.144 HD
ATOM     16  H   UNL     1      31.687 -22.963 -11.721  0.00  0.00    +0.188 HD
ENDBRANCH   8  13
ENDBRANCH   3   5
ENDBRANCH   2   3
ENDBRANCH   1   2
BRANCH   1  17
ATOM     17  C   UNL     1      34.191 -19.183 -20.651  0.00  0.00    +0.209 C 
BRANCH  17  18
ATOM     18  O   UNL     1      35.127 -18.218 -21.112  0.00  0.00    -0.475 OA
BRANCH  18  20
ATOM     19 BR   UNL     1      34.467 -19.326 -23.954  0.00  0.00    -0.046 Br
ATOM     20  C   UNL     1      34.653 -17.256 -21.965  0.00  0.00    +0.145 C 
ATOM     21  C   UNL     1      34.306 -17.563 -23.276  0.00  0.00    +0.069 C 
ATOM     22  C   UNL     1      34.527 -15.954 -21.487  0.00  0.00    +0.037 C 
ATOM     23  C   UNL     1      33.698 -15.254 -23.645  0.00  0.00    +0.031 C 
ATOM     24  C   UNL     1      33.827 -16.559 -24.119  0.00  0.00    +0.012 C 
ATOM     25  C   UNL     1      34.048 -14.952 -22.330  0.00  0.00    +0.006 C 
BRANCH  23  28
ATOM     26  N   UNL     1      32.955 -12.919 -24.049  0.00  0.00    -0.343 N 
ATOM     27  N   UNL     1      32.965 -14.471 -25.796  0.00  0.00    -0.285 NA
ATOM     28  C   UNL     1      33.199 -14.207 -24.523  0.00  0.00    +0.117 C 
ATOM     29  H   UNL     1      32.617 -12.225 -24.660  0.00  0.00    +0.144 HD
ATOM     30  H   UNL     1      33.120 -12.702 -23.103  0.00  0.00    +0.144 HD
ATOM     31  H   UNL     1      32.627 -13.764 -26.392  0.00  0.00    +0.188 HD
ENDBRANCH  23  28
ENDBRANCH  18  20
ENDBRANCH  17  18
ENDBRANCH   1  17
TORSDOF 8
ENDMDL
MODEL 4
REMARK VINA RESULT:     -10.2      4.459      6.308
REMARK  Name = 11974
REMARK  8 active torsions:
REMARK  status: ('A' for Active; 'I' for Inactive)
REMARK    1  A    between atoms: C_1  and  C_2
REMARK    2  A    between atoms: C_1  and  C_17
REMARK    3  A    between atoms: C_2  and  O_3
REMARK    4  A    between atoms: O_3  and  C_5
REMARK    5  A    between atoms: C_8  and  C_13
REMARK    6  A    between atoms: C_17  and  O_18
REMARK    7  A    between atoms: O_18  and  C_20
REMARK    8  A    between atoms: C_23  and  C_28
REMARK                            x       y       z     vdW  Elec       q    Type
REMARK                         _______ _______ _______ _____ _____    ______ ____
ROOT
ATOM      1  C   UNL     1      35.045 -20.451 -20.060  0.00  0.00    +0.095 C 
ENDROOT
BRANCH   1   2
ATOM      2  C   UNL     1      34.258 -19.296 -20.657  0.00  0.00    +0.209 C 
BRANCH   2   3
ATOM      3  O   UNL     1      35.165 -18.275 -21.049  0.00  0.00    -0.475 OA
BRANCH   3   5
ATOM      4 BR   UNL     1      34.497 -19.397 -23.884  0.00  0.00    -0.046 Br
ATOM      5  C   UNL     1      34.686 -17.317 -21.904  0.00  0.00    +0.145 C 
ATOM      6  C   UNL     1      34.334 -17.631 -23.213  0.00  0.00    +0.069 C 
ATOM      7  C   UNL     1      34.559 -16.015 -21.431  0.00  0.00    +0.037 C 
ATOM      8  C   UNL     1      33.722 -15.324 -23.590  0.00  0.00    +0.031 C 
ATOM      9  C   UNL     1      33.850 -16.632 -24.058  0.00  0.00    +0.012 C 
ATOM     10  C   UNL     1      34.076 -15.017 -22.276  0.00  0.00    +0.006 C 
BRANCH   8  13
ATOM     11  N   UNL     1      32.986 -12.989 -24.004  0.00  0.00    -0.343 N 
ATOM     12  N   UNL     1      32.964 -14.557 -25.737  0.00  0.00    -0.285 NA
ATOM     13  C   UNL     1      33.217 -14.283 -24.469  0.00  0.00    +0.117 C 
ATOM     14  H   UNL     1      32.644 -12.299 -24.617  0.00  0.00    +0.144 HD
ATOM     15  H   UNL     1      33.165 -12.766 -23.062  0.00  0.00    +0.144 HD
ATOM     16  H   UNL     1      32.623 -13.853 -26.334  0.00  0.00    +0.188 HD
ENDBRANCH   8  13
ENDBRANCH   3   5
ENDBRANCH   2   3
ENDBRANCH   1   2
BRANCH   1  17
ATOM     17  C   UNL     1      34.173 -21.351 -19.200  0.00  0.00    +0.209 C 
BRANCH  17  18
ATOM     18  O   UNL     1      34.965 -21.979 -18.201  0.00  0.00    -0.475 OA
BRANCH  18  20
ATOM     19 BR   UNL     1      36.874 -21.982 -15.732  0.00  0.00    -0.046 Br
ATOM     20  C   UNL     1      34.332 -22.322 -17.035  0.00  0.00    +0.145 C 
ATOM     21  C   UNL     1      35.023 -22.377 -15.829  0.00  0.00    +0.069 C 
ATOM     22  C   UNL     1      32.972 -22.616 -17.085  0.00  0.00    +0.037 C 
ATOM     23  C   UNL     1      32.985 -23.025 -14.703  0.00  0.00    +0.031 C 
ATOM     24  C   UNL     1      34.347 -22.730 -14.660  0.00  0.00    +0.012 C 
ATOM     25  C   UNL     1      32.298 -22.968 -15.915  0.00  0.00    +0.006 C 
BRANCH  23  28
ATOM     26  N   UNL     1      31.560 -22.451 -12.752  0.00  0.00    -0.343 N 
ATOM     27  N   UNL     1      32.323 -24.641 -13.052  0.00  0.00    -0.285 NA
ATOM     28  C   UNL     1      32.281 -23.393 -13.485  0.00  0.00    +0.117 C 
ATOM     29  H   UNL     1      31.091 -22.722 -11.930  0.00  0.00    +0.144 HD
ATOM     30  H   UNL     1      31.520 -21.516 -13.056  0.00  0.00    +0.144 HD
ATOM     31  H   UNL     1      31.847 -24.891 -12.228  0.00  0.00    +0.188 HD
ENDBRANCH  23  28
ENDBRANCH  18  20
ENDBRANCH  17  18
ENDBRANCH   1  17
TORSDOF 8
ENDMDL
MODEL 5
REMARK VINA RESULT:      -9.8      4.412     10.291
REMARK  Name = 11974
REMARK  8 active torsions:
REMARK  status: ('A' for Active; 'I' for Inactive)
REMARK    1  A    between atoms: C_1  and  C_2
REMARK    2  A    between atoms: C_1  and  C_17
REMARK    3  A    between atoms: C_2  and  O_3
REMARK    4  A    between atoms: O_3  and  C_5
REMARK    5  A    between atoms: C_8  and  C_13
REMARK    6  A    between atoms: C_17  and  O_18
REMARK    7  A    between atoms: O_18  and  C_20
REMARK    8  A    between atoms: C_23  and  C_28
REMARK                            x       y       z     vdW  Elec       q    Type
REMARK                         _______ _______ _______ _____ _____    ______ ____
ROOT
ATOM      1  C   UNL     1      33.373 -19.803 -20.986  0.00  0.00    +0.095 C 
ENDROOT
BRANCH   1   2
ATOM      2  C   UNL     1      32.721 -20.231 -19.681  0.00  0.00    +0.209 C 
BRANCH   2   3
ATOM      3  O   UNL     1      33.087 -21.575 -19.403  0.00  0.00    -0.475 OA
BRANCH   3   5
ATOM      4 BR   UNL     1      31.836 -22.866 -16.852  0.00  0.00    -0.046 Br
ATOM      5  C   UNL     1      34.001 -21.773 -18.401  0.00  0.00    +0.145 C 
ATOM      6  C   UNL     1      33.626 -22.339 -17.186  0.00  0.00    +0.069 C 
ATOM      7  C   UNL     1      35.320 -21.393 -18.626  0.00  0.00    +0.037 C 
ATOM      8  C   UNL     1      35.904 -22.146 -16.406  0.00  0.00    +0.031 C 
ATOM      9  C   UNL     1      34.580 -22.526 -16.186  0.00  0.00    +0.012 C 
ATOM     10  C   UNL     1      36.274 -21.579 -17.626  0.00  0.00    +0.006 C 
BRANCH   8  13
ATOM     11  N   UNL     1      36.593 -22.137 -14.020  0.00  0.00    -0.343 N 
ATOM     12  N   UNL     1      38.126 -22.716 -15.687  0.00  0.00    -0.285 NA
ATOM     13  C   UNL     1      36.900 -22.341 -15.365  0.00  0.00    +0.117 C 
ATOM     14  H   UNL     1      37.282 -22.276 -13.331  0.00  0.00    +0.144 HD
ATOM     15  H   UNL     1      35.687 -21.855 -13.760  0.00  0.00    +0.144 HD
ATOM     16  H   UNL     1      38.801 -22.849 -14.984  0.00  0.00    +0.188 HD
ENDBRANCH   8  13
ENDBRANCH   3   5
ENDBRANCH   2   3
ENDBRANCH   1   2
BRANCH   1  17
ATOM     17  C   UNL     1      34.492 -18.799 -20.762  0.00  0.00    +0.209 C 
BRANCH  17  18
ATOM     18  O   UNL     1      35.060 -18.424 -22.010  0.00  0.00    -0.475 OA
BRANCH  18  20
ATOM     19 BR   UNL     1      33.560 -19.018 -24.681  0.00  0.00    -0.046 Br
ATOM     20  C   UNL     1      34.557 -17.296 -22.603  0.00  0.00    +0.145 C 
ATOM     21  C   UNL     1      33.857 -17.364 -23.803  0.00  0.00    +0.069 C 
ATOM     22  C   UNL     1      34.764 -16.071 -21.974  0.00  0.00    +0.037 C 
ATOM     23  C   UNL     1      33.562 -14.966 -23.756  0.00  0.00    +0.031 C 
ATOM     24  C   UNL     1      33.358 -16.195 -24.381  0.00  0.00    +0.012 C 
ATOM     25  C   UNL     1      34.265 -14.904 -22.553  0.00  0.00    +0.006 C 
BRANCH  23  28
ATOM     26  N   UNL     1      33.199 -12.510 -23.737  0.00  0.00    -0.343 N 
ATOM     27  N   UNL     1      32.405 -13.805 -25.513  0.00  0.00    -0.285 NA
ATOM     28  C   UNL     1      33.043 -13.748 -24.358  0.00  0.00    +0.117 C 
ATOM     29  H   UNL     1      32.839 -11.697 -24.162  0.00  0.00    +0.144 HD
ATOM     30  H   UNL     1      33.668 -12.447 -22.874  0.00  0.00    +0.144 HD
ATOM     31  H   UNL     1      32.053 -12.982 -25.922  0.00  0.00    +0.188 HD
ENDBRANCH  23  28
ENDBRANCH  18  20
ENDBRANCH  17  18
ENDBRANCH   1  17
TORSDOF 8
ENDMDL
MODEL 6
REMARK VINA RESULT:      -9.8      6.376     11.653
REMARK  Name = 11974
REMARK  8 active torsions:
REMARK  status: ('A' for Active; 'I' for Inactive)
REMARK    1  A    between atoms: C_1  and  C_2
REMARK    2  A    between atoms: C_1  and  C_17
REMARK    3  A    between atoms: C_2  and  O_3
REMARK    4  A    between atoms: O_3  and  C_5
REMARK    5  A    between atoms: C_8  and  C_13
REMARK    6  A    between atoms: C_17  and  O_18
REMARK    7  A    between atoms: O_18  and  C_20
REMARK    8  A    between atoms: C_23  and  C_28
REMARK                            x       y       z     vdW  Elec       q    Type
REMARK                         _______ _______ _______ _____ _____    ______ ____
ROOT
ATOM      1  C   UNL     1      34.122 -17.448 -24.035  0.00  0.00    +0.095 C 
ENDROOT
BRANCH   1   2
ATOM      2  C   UNL     1      33.787 -18.669 -23.196  0.00  0.00    +0.209 C 
BRANCH   2   3
ATOM      3  O   UNL     1      33.693 -18.279 -21.833  0.00  0.00    -0.475 OA
BRANCH   3   5
ATOM      4 BR   UNL     1      36.617 -18.886 -20.927  0.00  0.00    -0.046 Br
ATOM      5  C   UNL     1      33.767 -19.278 -20.897  0.00  0.00    +0.145 C 
ATOM      6  C   UNL     1      34.990 -19.687 -20.374  0.00  0.00    +0.069 C 
ATOM      7  C   UNL     1      32.584 -19.878 -20.478  0.00  0.00    +0.037 C 
ATOM      8  C   UNL     1      33.848 -21.312 -19.000  0.00  0.00    +0.031 C 
ATOM      9  C   UNL     1      35.030 -20.706 -19.423  0.00  0.00    +0.012 C 
ATOM     10  C   UNL     1      32.624 -20.898 -19.527  0.00  0.00    +0.006 C 
BRANCH   8  13
ATOM     11  N   UNL     1      32.935 -23.392 -17.994  0.00  0.00    -0.343 N 
ATOM     12  N   UNL     1      34.842 -22.385 -17.093  0.00  0.00    -0.285 NA
ATOM     13  C   UNL     1      33.889 -22.375 -18.008  0.00  0.00    +0.117 C 
ATOM     14  H   UNL     1      32.982 -24.101 -17.314  0.00  0.00    +0.144 HD
ATOM     15  H   UNL     1      32.215 -23.400 -18.666  0.00  0.00    +0.144 HD
ATOM     16  H   UNL     1      34.872 -23.104 -16.422  0.00  0.00    +0.188 HD
ENDBRANCH   8  13
ENDBRANCH   3   5
ENDBRANCH   2   3
ENDBRANCH   1   2
BRANCH   1  17
ATOM     17  C   UNL     1      34.650 -16.302 -23.187  0.00  0.00    +0.209 C 
BRANCH  17  18
ATOM     18  O   UNL     1      34.400 -15.064 -23.840  0.00  0.00    -0.475 OA
BRANCH  18  20
ATOM     19 BR   UNL     1      32.738 -13.212 -25.722  0.00  0.00    -0.046 Br
ATOM     20  C   UNL     1      33.645 -14.146 -23.157  0.00  0.00    +0.145 C 
ATOM     21  C   UNL     1      32.838 -13.234 -23.830  0.00  0.00    +0.069 C 
ATOM     22  C   UNL     1      33.704 -14.147 -21.767  0.00  0.00    +0.037 C 
ATOM     23  C   UNL     1      32.136 -12.309 -21.711  0.00  0.00    +0.031 C 
ATOM     24  C   UNL     1      32.081 -12.313 -23.104  0.00  0.00    +0.012 C 
ATOM     25  C   UNL     1      32.948 -13.226 -21.042  0.00  0.00    +0.006 C 
BRANCH  23  28
ATOM     26  N   UNL     1      30.164 -10.820 -21.465  0.00  0.00    -0.343 N 
ATOM     27  N   UNL     1      31.757 -10.959 -19.759  0.00  0.00    -0.285 NA
ATOM     28  C   UNL     1      31.349 -11.349 -20.954  0.00  0.00    +0.117 C 
ATOM     29  H   UNL     1      29.647 -10.171 -20.936  0.00  0.00    +0.144 HD
ATOM     30  H   UNL     1      29.845 -11.096 -22.354  0.00  0.00    +0.144 HD
ATOM     31  H   UNL     1      31.225 -10.309 -19.246  0.00  0.00    +0.188 HD
ENDBRANCH  23  28
ENDBRANCH  18  20
ENDBRANCH  17  18
ENDBRANCH   1  17
TORSDOF 8
ENDMDL
MODEL 7
REMARK VINA RESULT:      -9.7      6.346      9.238
REMARK  Name = 11974
REMARK  8 active torsions:
REMARK  status: ('A' for Active; 'I' for Inactive)
REMARK    1  A    between atoms: C_1  and  C_2
REMARK    2  A    between atoms: C_1  and  C_17
REMARK    3  A    between atoms: C_2  and  O_3
REMARK    4  A    between atoms: O_3  and  C_5
REMARK    5  A    between atoms: C_8  and  C_13
REMARK    6  A    between atoms: C_17  and  O_18
REMARK    7  A    between atoms: O_18  and  C_20
REMARK    8  A    between atoms: C_23  and  C_28
REMARK                            x       y       z     vdW  Elec       q    Type
REMARK                         _______ _______ _______ _____ _____    ______ ____
ROOT
ATOM      1  C   UNL     1      34.191 -17.527 -23.911  0.00  0.00    +0.095 C 
ENDROOT
BRANCH   1   2
ATOM      2  C   UNL     1      34.614 -16.369 -23.023  0.00  0.00    +0.209 C 
BRANCH   2   3
ATOM      3  O   UNL     1      34.372 -15.149 -23.711  0.00  0.00    -0.475 OA
BRANCH   3   5
ATOM      4 BR   UNL     1      32.813 -13.276 -25.661  0.00  0.00    -0.046 Br
ATOM      5  C   UNL     1      33.612 -14.212 -23.060  0.00  0.00    +0.145 C 
ATOM      6  C   UNL     1      32.847 -13.288 -23.765  0.00  0.00    +0.069 C 
ATOM      7  C   UNL     1      33.624 -14.205 -21.669  0.00  0.00    +0.037 C 
ATOM      8  C   UNL     1      32.094 -12.334 -21.677  0.00  0.00    +0.031 C 
ATOM      9  C   UNL     1      32.086 -12.347 -23.072  0.00  0.00    +0.012 C 
ATOM     10  C   UNL     1      32.863 -13.263 -20.976  0.00  0.00    +0.006 C 
BRANCH   8  13
ATOM     11  N   UNL     1      31.688 -10.891 -19.698  0.00  0.00    -0.343 N 
ATOM     12  N   UNL     1      30.184 -10.888 -21.486  0.00  0.00    -0.285 NA
ATOM     13  C   UNL     1      31.301 -11.354 -20.954  0.00  0.00    +0.117 C 
ATOM     14  H   UNL     1      31.136 -10.227 -19.226  0.00  0.00    +0.144 HD
ATOM     15  H   UNL     1      32.515 -11.228 -19.283  0.00  0.00    +0.144 HD
ATOM     16  H   UNL     1      29.646 -10.224 -20.999  0.00  0.00    +0.188 HD
ENDBRANCH   8  13
ENDBRANCH   3   5
ENDBRANCH   2   3
ENDBRANCH   1   2
BRANCH   1  17
ATOM     17  C   UNL     1      33.776 -18.744 -23.100  0.00  0.00    +0.209 C 
BRANCH  17  18
ATOM     18  O   UNL     1      33.625 -18.385 -21.733  0.00  0.00    -0.475 OA
BRANCH  18  20
ATOM     19 BR   UNL     1      36.518 -19.062 -20.777  0.00  0.00    -0.046 Br
ATOM     20  C   UNL     1      33.662 -19.405 -20.819  0.00  0.00    +0.145 C 
ATOM     21  C   UNL     1      34.866 -19.847 -20.279  0.00  0.00    +0.069 C 
ATOM     22  C   UNL     1      32.459 -19.995 -20.440  0.00  0.00    +0.037 C 
ATOM     23  C   UNL     1      33.666 -21.483 -18.967  0.00  0.00    +0.031 C 
ATOM     24  C   UNL     1      34.867 -20.888 -19.351  0.00  0.00    +0.012 C 
ATOM     25  C   UNL     1      32.462 -21.036 -19.512  0.00  0.00    +0.006 C 
BRANCH  23  28
ATOM     26  N   UNL     1      34.235 -22.413 -16.736  0.00  0.00    -0.343 N 
ATOM     27  N   UNL     1      33.127 -23.732 -18.316  0.00  0.00    -0.285 NA
ATOM     28  C   UNL     1      33.667 -22.569 -18.000  0.00  0.00    +0.117 C 
ATOM     29  H   UNL     1      34.225 -23.162 -16.096  0.00  0.00    +0.144 HD
ATOM     30  H   UNL     1      34.645 -21.555 -16.482  0.00  0.00    +0.144 HD
ATOM     31  H   UNL     1      33.127 -24.469 -17.662  0.00  0.00    +0.188 HD
ENDBRANCH  23  28
ENDBRANCH  18  20
ENDBRANCH  17  18
ENDBRANCH   1  17
TORSDOF 8
ENDMDL
MODEL 8
REMARK VINA RESULT:      -9.7      4.136      5.382
REMARK  Name = 11974
REMARK  8 active torsions:
REMARK  status: ('A' for Active; 'I' for Inactive)
REMARK    1  A    between atoms: C_1  and  C_2
REMARK    2  A    between atoms: C_1  and  C_17
REMARK    3  A    between atoms: C_2  and  O_3
REMARK    4  A    between atoms: O_3  and  C_5
REMARK    5  A    between atoms: C_8  and  C_13
REMARK    6  A    between atoms: C_17  and  O_18
REMARK    7  A    between atoms: O_18  and  C_20
REMARK    8  A    between atoms: C_23  and  C_28
REMARK                            x       y       z     vdW  Elec       q    Type
REMARK                         _______ _______ _______ _____ _____    ______ ____
ROOT
ATOM      1  C   UNL     1      36.801 -21.750 -16.898  0.00  0.00    +0.095 C 
ENDROOT
BRANCH   1   2
ATOM      2  C   UNL     1      36.411 -20.568 -17.769  0.00  0.00    +0.209 C 
BRANCH   2   3
ATOM      3  O   UNL     1      35.718 -21.049 -18.913  0.00  0.00    -0.475 OA
BRANCH   3   5
ATOM      4 BR   UNL     1      32.676 -21.002 -19.610  0.00  0.00    -0.046 Br
ATOM      5  C   UNL     1      35.405 -20.128 -19.879  0.00  0.00    +0.145 C 
ATOM      6  C   UNL     1      34.095 -19.964 -20.320  0.00  0.00    +0.069 C 
ATOM      7  C   UNL     1      36.432 -19.356 -20.412  0.00  0.00    +0.037 C 
ATOM      8  C   UNL     1      34.836 -18.242 -21.844  0.00  0.00    +0.031 C 
ATOM      9  C   UNL     1      33.810 -19.018 -21.304  0.00  0.00    +0.012 C 
ATOM     10  C   UNL     1      36.147 -18.411 -21.397  0.00  0.00    +0.006 C 
BRANCH   8  13
ATOM     11  N   UNL     1      33.813 -17.591 -24.011  0.00  0.00    -0.343 N 
ATOM     12  N   UNL     1      34.967 -16.012 -22.731  0.00  0.00    -0.285 NA
ATOM     13  C   UNL     1      34.540 -17.256 -22.870  0.00  0.00    +0.117 C 
ATOM     14  H   UNL     1      33.624 -16.908 -24.693  0.00  0.00    +0.144 HD
ATOM     15  H   UNL     1      33.489 -18.512 -24.134  0.00  0.00    +0.144 HD
ATOM     16  H   UNL     1      34.768 -15.343 -23.424  0.00  0.00    +0.188 HD
ENDBRANCH   8  13
ENDBRANCH   3   5
ENDBRANCH   2   3
ENDBRANCH   1   2
BRANCH   1  17
ATOM     17  C   UNL     1      35.956 -21.832 -15.637  0.00  0.00    +0.209 C 
BRANCH  17  18
ATOM     18  O   UNL     1      35.355 -23.116 -15.541  0.00  0.00    -0.475 OA
BRANCH  18  20
ATOM     19 BR   UNL     1      34.464 -23.777 -12.624  0.00  0.00    -0.046 Br
ATOM     20  C   UNL     1      33.993 -23.151 -15.392  0.00  0.00    +0.145 C 
ATOM     21  C   UNL     1      33.409 -23.431 -14.161  0.00  0.00    +0.069 C 
ATOM     22  C   UNL     1      33.200 -22.899 -16.509  0.00  0.00    +0.037 C 
ATOM     23  C   UNL     1      31.220 -23.206 -15.158  0.00  0.00    +0.031 C 
ATOM     24  C   UNL     1      32.019 -23.459 -14.044  0.00  0.00    +0.012 C 
ATOM     25  C   UNL     1      31.811 -22.927 -16.391  0.00  0.00    +0.006 C 
BRANCH  23  28
ATOM     26  N   UNL     1      29.049 -24.407 -15.263  0.00  0.00    -0.343 N 
ATOM     27  N   UNL     1      29.115 -22.136 -14.712  0.00  0.00    -0.285 NA
ATOM     28  C   UNL     1      29.771 -23.236 -15.037  0.00  0.00    +0.117 C 
ATOM     29  H   UNL     1      28.068 -24.405 -15.175  0.00  0.00    +0.144 HD
ATOM     30  H   UNL     1      29.519 -25.236 -15.509  0.00  0.00    +0.144 HD
ATOM     31  H   UNL     1      28.134 -22.155 -14.629  0.00  0.00    +0.188 HD
ENDBRANCH  23  28
ENDBRANCH  18  20
ENDBRANCH  17  18
ENDBRANCH   1  17
TORSDOF 8
ENDMDL
MODEL 9
REMARK VINA RESULT:      -9.7      3.691      8.306
REMARK  Name = 11974
REMARK  8 active torsions:
REMARK  status: ('A' for Active; 'I' for Inactive)
REMARK    1  A    between atoms: C_1  and  C_2
REMARK    2  A    between atoms: C_1  and  C_17
REMARK    3  A    between atoms: C_2  and  O_3
REMARK    4  A    between atoms: O_3  and  C_5
REMARK    5  A    between atoms: C_8  and  C_13
REMARK    6  A    between atoms: C_17  and  O_18
REMARK    7  A    between atoms: O_18  and  C_20
REMARK    8  A    between atoms: C_23  and  C_28
REMARK                            x       y       z     vdW  Elec       q    Type
REMARK                         _______ _______ _______ _____ _____    ______ ____
ROOT
ATOM      1  C   UNL     1      37.169 -21.771 -16.648  0.00  0.00    +0.095 C 
ENDROOT
BRANCH   1   2
ATOM      2  C   UNL     1      36.648 -22.215 -15.292  0.00  0.00    +0.209 C 
BRANCH   2   3
ATOM      3  O   UNL     1      35.943 -23.439 -15.448  0.00  0.00    -0.475 OA
BRANCH   3   5
ATOM      4 BR   UNL     1      35.749 -24.406 -12.487  0.00  0.00    -0.046 Br
ATOM      5  C   UNL     1      34.656 -23.475 -14.980  0.00  0.00    +0.145 C 
ATOM      6  C   UNL     1      34.372 -23.882 -13.680  0.00  0.00    +0.069 C 
ATOM      7  C   UNL     1      33.631 -23.094 -15.841  0.00  0.00    +0.037 C 
ATOM      8  C   UNL     1      32.018 -23.528 -14.094  0.00  0.00    +0.031 C 
ATOM      9  C   UNL     1      33.050 -23.908 -13.236  0.00  0.00    +0.012 C 
ATOM     10  C   UNL     1      32.309 -23.121 -15.396  0.00  0.00    +0.006 C 
BRANCH   8  13
ATOM     11  N   UNL     1      29.680 -22.694 -14.162  0.00  0.00    -0.343 N 
ATOM     12  N   UNL     1      30.279 -24.404 -12.686  0.00  0.00    -0.285 NA
ATOM     13  C   UNL     1      30.641 -23.554 -13.632  0.00  0.00    +0.117 C 
ATOM     14  H   UNL     1      28.753 -22.729 -13.835  0.00  0.00    +0.144 HD
ATOM     15  H   UNL     1      29.930 -22.051 -14.865  0.00  0.00    +0.144 HD
ATOM     16  H   UNL     1      29.347 -24.423 -12.372  0.00  0.00    +0.188 HD
ENDBRANCH   8  13
ENDBRANCH   3   5
ENDBRANCH   2   3
ENDBRANCH   1   2
BRANCH   1  17
ATOM     17  C   UNL     1      36.199 -20.839 -17.355  0.00  0.00    +0.209 C 
BRANCH  17  18
ATOM     18  O   UNL     1      35.905 -21.340 -18.652  0.00  0.00    -0.475 OA
BRANCH  18  20
ATOM     19 BR   UNL     1      32.850 -21.364 -19.289  0.00  0.00    -0.046 Br
ATOM     20  C   UNL     1      35.549 -20.420 -19.604  0.00  0.00    +0.145 C 
ATOM     21  C   UNL     1      34.228 -20.286 -20.018  0.00  0.00    +0.069 C 
ATOM     22  C   UNL     1      36.547 -19.618 -20.152  0.00  0.00    +0.037 C 
ATOM     23  C   UNL     1      34.895 -18.533 -21.541  0.00  0.00    +0.031 C 
ATOM     24  C   UNL     1      33.900 -19.339 -20.989  0.00  0.00    +0.012 C 
ATOM     25  C   UNL     1      36.218 -18.673 -21.123  0.00  0.00    +0.006 C 
BRANCH  23  28
ATOM     26  N   UNL     1      33.805 -17.892 -23.679  0.00  0.00    -0.343 N 
ATOM     27  N   UNL     1      34.960 -16.297 -22.420  0.00  0.00    -0.285 NA
ATOM     28  C   UNL     1      34.553 -17.547 -22.555  0.00  0.00    +0.117 C 
ATOM     29  H   UNL     1      33.585 -17.209 -24.353  0.00  0.00    +0.144 HD
ATOM     30  H   UNL     1      33.495 -18.819 -23.799  0.00  0.00    +0.144 HD
ATOM     31  H   UNL     1      34.729 -15.628 -23.105  0.00  0.00    +0.188 HD
ENDBRANCH  23  28
ENDBRANCH  18  20
ENDBRANCH  17  18
ENDBRANCH   1  17
TORSDOF 8
ENDMDL
