MODEL 1
REMARK VINA RESULT:     -12.0      0.000      0.000
REMARK  Name = 445950
REMARK  8 active torsions:
REMARK  status: ('A' for Active; 'I' for Inactive)
REMARK    1  A    between atoms: N_1  and  C_20
REMARK    2  A    between atoms: N_3  and  C_13
REMARK    3  A    between atoms: C_19  and  O_25
REMARK    4  A    between atoms: O_25  and  C_26
REMARK    5  A    between atoms: C_26  and  C_27
REMARK    6  A    between atoms: C_27  and  O_28
REMARK    7  A    between atoms: C_27  and  C_30
REMARK    8  A    between atoms: C_30  and  N_31
REMARK                            x       y       z     vdW  Elec       q    Type
REMARK                         _______ _______ _______ _____ _____    ______ ____
ROOT
ATOM      1  N   UNL     1      33.458 -12.522 -23.426  0.00  0.00    -0.301 N 
ATOM      2  H   UNL     1      34.053 -12.074 -24.069  0.00  0.00    +0.153 HD
ATOM      3  N   UNL     1      31.573  -8.154 -22.973  0.00  0.00    -0.298 N 
ATOM      4  N   UNL     1      31.639 -12.167 -21.932  0.00  0.00    -0.233 NA
ATOM      5  N   UNL     1      30.688  -9.964 -21.703  0.00  0.00    -0.233 NA
ATOM      6  C   UNL     1      32.512 -11.663 -22.834  0.00  0.00    +0.113 C 
ATOM      7  C   UNL     1      32.527 -10.332 -23.211  0.00  0.00    +0.122 C 
ATOM      8  C   UNL     1      31.585  -9.523 -22.608  0.00  0.00    +0.113 C 
ATOM      9  C   UNL     1      30.770 -11.277 -21.415  0.00  0.00    +0.252 C 
ATOM     10  H   UNL     1      31.874  -7.986 -23.894  0.00  0.00    +0.153 HD
ENDROOT
BRANCH   3  13
ATOM     11  F   UNL     1      29.901  -6.242 -24.105  0.00  0.00    -0.203 F 
ATOM     12  F   UNL     1      32.502  -7.669 -20.397  0.00  0.00    -0.203 F 
ATOM     13  C   UNL     1      31.213  -6.992 -22.272  0.00  0.00    +0.105 C 
ATOM     14  C   UNL     1      30.371  -6.045 -22.865  0.00  0.00    +0.156 C 
ATOM     15  C   UNL     1      31.696  -6.771 -20.979  0.00  0.00    +0.156 C 
ATOM     16  C   UNL     1      30.015  -4.889 -22.170  0.00  0.00    +0.031 C 
ATOM     17  C   UNL     1      31.339  -5.615 -20.284  0.00  0.00    +0.031 C 
ATOM     18  C   UNL     1      30.499  -4.675 -20.879  0.00  0.00    +0.005 C 
ENDBRANCH   3  13
BRANCH   1  20
ATOM     19  C   UNL     1      34.238 -16.618 -22.994  0.00  0.00    +0.139 C 
ATOM     20  C   UNL     1      33.721 -13.901 -23.280  0.00  0.00    +0.049 C 
ATOM     21  C   UNL     1      34.395 -15.768 -21.904  0.00  0.00    +0.038 C 
ATOM     22  C   UNL     1      33.824 -16.123 -24.225  0.00  0.00    +0.038 C 
ATOM     23  C   UNL     1      34.136 -14.405 -22.048  0.00  0.00    +0.018 C 
ATOM     24  C   UNL     1      33.564 -14.759 -24.369  0.00  0.00    +0.018 C 
BRANCH  19  25
ATOM     25  O   UNL     1      34.492 -17.957 -22.851  0.00  0.00    -0.473 OA
BRANCH  25  26
ATOM     26  C   UNL     1      35.820 -18.321 -22.488  0.00  0.00    +0.232 C 
BRANCH  26  27
ATOM     27  C   UNL     1      35.780 -19.063 -21.154  0.00  0.00    +0.133 C 
BRANCH  27  28
ATOM     28  O   UNL     1      36.589 -18.353 -20.212  0.00  0.00    -0.383 OA
ATOM     29  H   UNL     1      36.088 -18.221 -19.391  0.00  0.00    +0.210 HD
ENDBRANCH  27  28
BRANCH  27  30
ATOM     30  C   UNL     1      34.371 -19.192 -20.574  0.00  0.00    -0.044 C 
BRANCH  30  31
ATOM     31  N   UNL     1      34.049 -20.566 -20.214  0.00  0.00    +0.386 N 
ATOM     32  C   UNL     1      32.751 -20.634 -19.539  0.00  0.00    -0.101 C 
ATOM     33  C   UNL     1      35.094 -21.135 -19.359  0.00  0.00    -0.101 C 
ATOM     34  H   UNL     1      33.999 -21.114 -21.072  0.00  0.00    -0.080 HD
ENDBRANCH  30  31
ENDBRANCH  27  30
ENDBRANCH  26  27
ENDBRANCH  25  26
ENDBRANCH  19  25
ENDBRANCH   1  20
TORSDOF 8
ENDMDL
MODEL 2
REMARK VINA RESULT:     -12.0      0.046      1.511
REMARK  Name = 445950
REMARK  8 active torsions:
REMARK  status: ('A' for Active; 'I' for Inactive)
REMARK    1  A    between atoms: N_1  and  C_20
REMARK    2  A    between atoms: N_3  and  C_13
REMARK    3  A    between atoms: C_19  and  O_25
REMARK    4  A    between atoms: O_25  and  C_26
REMARK    5  A    between atoms: C_26  and  C_27
REMARK    6  A    between atoms: C_27  and  O_28
REMARK    7  A    between atoms: C_27  and  C_30
REMARK    8  A    between atoms: C_30  and  N_31
REMARK                            x       y       z     vdW  Elec       q    Type
REMARK                         _______ _______ _______ _____ _____    ______ ____
ROOT
ATOM      1  N   UNL     1      33.460 -12.486 -23.430  0.00  0.00    -0.301 N 
ATOM      2  H   UNL     1      34.063 -12.035 -24.064  0.00  0.00    +0.153 HD
ATOM      3  N   UNL     1      31.590  -8.113 -22.961  0.00  0.00    -0.298 N 
ATOM      4  N   UNL     1      31.628 -12.134 -21.950  0.00  0.00    -0.233 NA
ATOM      5  N   UNL     1      30.685  -9.929 -21.714  0.00  0.00    -0.233 NA
ATOM      6  C   UNL     1      32.512 -11.627 -22.840  0.00  0.00    +0.113 C 
ATOM      7  C   UNL     1      32.537 -10.293 -23.207  0.00  0.00    +0.122 C 
ATOM      8  C   UNL     1      31.593  -9.484 -22.607  0.00  0.00    +0.113 C 
ATOM      9  C   UNL     1      30.758 -11.244 -21.436  0.00  0.00    +0.252 C 
ATOM     10  H   UNL     1      31.901  -7.939 -23.877  0.00  0.00    +0.153 HD
ENDROOT
BRANCH   3  13
ATOM     11  F   UNL     1      32.534  -7.631 -20.389  0.00  0.00    -0.203 F 
ATOM     12  F   UNL     1      29.900  -6.205 -24.075  0.00  0.00    -0.203 F 
ATOM     13  C   UNL     1      31.229  -6.954 -22.255  0.00  0.00    +0.105 C 
ATOM     14  C   UNL     1      31.717  -6.736 -20.962  0.00  0.00    +0.156 C 
ATOM     15  C   UNL     1      30.376  -6.012 -22.837  0.00  0.00    +0.156 C 
ATOM     16  C   UNL     1      31.354  -5.586 -20.260  0.00  0.00    +0.031 C 
ATOM     17  C   UNL     1      30.015  -4.862 -22.135  0.00  0.00    +0.031 C 
ATOM     18  C   UNL     1      30.505  -4.649 -20.847  0.00  0.00    +0.005 C 
ENDBRANCH   3  13
BRANCH   1  20
ATOM     19  C   UNL     1      34.216 -16.588 -23.023  0.00  0.00    +0.139 C 
ATOM     20  C   UNL     1      33.714 -13.867 -23.293  0.00  0.00    +0.049 C 
ATOM     21  C   UNL     1      34.389 -15.744 -21.931  0.00  0.00    +0.038 C 
ATOM     22  C   UNL     1      33.794 -16.085 -24.247  0.00  0.00    +0.038 C 
ATOM     23  C   UNL     1      34.138 -14.379 -22.066  0.00  0.00    +0.018 C 
ATOM     24  C   UNL     1      33.542 -14.719 -24.383  0.00  0.00    +0.018 C 
BRANCH  19  25
ATOM     25  O   UNL     1      34.463 -17.929 -22.888  0.00  0.00    -0.473 OA
BRANCH  25  26
ATOM     26  C   UNL     1      35.791 -18.304 -22.539  0.00  0.00    +0.232 C 
BRANCH  26  27
ATOM     27  C   UNL     1      35.762 -19.036 -21.199  0.00  0.00    +0.133 C 
BRANCH  27  28
ATOM     28  O   UNL     1      36.575 -18.317 -20.268  0.00  0.00    -0.383 OA
ATOM     29  H   UNL     1      37.059 -18.945 -19.709  0.00  0.00    +0.210 HD
ENDBRANCH  27  28
BRANCH  27  30
ATOM     30  C   UNL     1      34.356 -19.163 -20.609  0.00  0.00    -0.044 C 
BRANCH  30  31
ATOM     31  N   UNL     1      34.034 -20.538 -20.251  0.00  0.00    +0.386 N 
ATOM     32  C   UNL     1      32.749 -20.602 -19.552  0.00  0.00    -0.101 C 
ATOM     33  C   UNL     1      35.092 -21.117 -19.420  0.00  0.00    -0.101 C 
ATOM     34  H   UNL     1      33.963 -21.080 -21.111  0.00  0.00    -0.080 HD
ENDBRANCH  30  31
ENDBRANCH  27  30
ENDBRANCH  26  27
ENDBRANCH  25  26
ENDBRANCH  19  25
ENDBRANCH   1  20
TORSDOF 8
ENDMDL
MODEL 3
REMARK VINA RESULT:     -11.9      6.449     13.334
REMARK  Name = 445950
REMARK  8 active torsions:
REMARK  status: ('A' for Active; 'I' for Inactive)
REMARK    1  A    between atoms: N_1  and  C_20
REMARK    2  A    between atoms: N_3  and  C_13
REMARK    3  A    between atoms: C_19  and  O_25
REMARK    4  A    between atoms: O_25  and  C_26
REMARK    5  A    between atoms: C_26  and  C_27
REMARK    6  A    between atoms: C_27  and  O_28
REMARK    7  A    between atoms: C_27  and  C_30
REMARK    8  A    between atoms: C_30  and  N_31
REMARK                            x       y       z     vdW  Elec       q    Type
REMARK                         _______ _______ _______ _____ _____    ______ ____
ROOT
ATOM      1  N   UNL     1      36.237 -19.988 -19.098  0.00  0.00    -0.301 N 
ATOM      2  H   UNL     1      37.091 -19.561 -18.859  0.00  0.00    +0.153 HD
ATOM      3  N   UNL     1      36.877 -22.302 -14.965  0.00  0.00    -0.298 N 
ATOM      4  N   UNL     1      34.625 -21.583 -18.371  0.00  0.00    -0.233 NA
ATOM      5  N   UNL     1      34.947 -22.749 -16.287  0.00  0.00    -0.233 NA
ATOM      6  C   UNL     1      35.788 -20.929 -18.150  0.00  0.00    +0.113 C 
ATOM      7  C   UNL     1      36.572 -21.136 -17.030  0.00  0.00    +0.122 C 
ATOM      8  C   UNL     1      36.098 -22.065 -16.125  0.00  0.00    +0.113 C 
ATOM      9  C   UNL     1      34.270 -22.463 -17.416  0.00  0.00    +0.252 C 
ATOM     10  H   UNL     1      37.394 -21.519 -14.668  0.00  0.00    +0.153 HD
ENDROOT
BRANCH   3  13
ATOM     11  F   UNL     1      39.088 -23.961 -15.261  0.00  0.00    -0.203 F 
ATOM     12  F   UNL     1      35.025 -22.984 -13.005  0.00  0.00    -0.203 F 
ATOM     13  C   UNL     1      37.051 -23.437 -14.158  0.00  0.00    +0.105 C 
ATOM     14  C   UNL     1      38.172 -24.256 -14.328  0.00  0.00    +0.156 C 
ATOM     15  C   UNL     1      36.104 -23.759 -13.181  0.00  0.00    +0.156 C 
ATOM     16  C   UNL     1      38.344 -25.386 -13.528  0.00  0.00    +0.031 C 
ATOM     17  C   UNL     1      36.277 -24.889 -12.381  0.00  0.00    +0.031 C 
ATOM     18  C   UNL     1      37.396 -25.701 -12.554  0.00  0.00    +0.005 C 
ENDBRANCH   3  13
BRANCH   1  20
ATOM     19  C   UNL     1      34.650 -18.649 -22.739  0.00  0.00    +0.139 C 
ATOM     20  C   UNL     1      35.703 -19.537 -20.324  0.00  0.00    +0.049 C 
ATOM     21  C   UNL     1      35.948 -18.298 -22.383  0.00  0.00    +0.038 C 
ATOM     22  C   UNL     1      33.875 -19.440 -21.900  0.00  0.00    +0.038 C 
ATOM     23  C   UNL     1      36.476 -18.743 -21.171  0.00  0.00    +0.018 C 
ATOM     24  C   UNL     1      34.403 -19.886 -20.688  0.00  0.00    +0.018 C 
BRANCH  19  25
ATOM     25  O   UNL     1      34.133 -18.211 -23.930  0.00  0.00    -0.473 OA
BRANCH  25  26
ATOM     26  C   UNL     1      33.276 -17.075 -23.877  0.00  0.00    +0.232 C 
BRANCH  26  27
ATOM     27  C   UNL     1      33.978 -15.896 -24.545  0.00  0.00    +0.133 C 
BRANCH  27  28
ATOM     28  O   UNL     1      33.029 -15.200 -25.359  0.00  0.00    -0.383 OA
ATOM     29  H   UNL     1      33.108 -14.246 -25.204  0.00  0.00    +0.210 HD
ENDBRANCH  27  28
BRANCH  27  30
ATOM     30  C   UNL     1      34.573 -14.901 -23.548  0.00  0.00    -0.044 C 
BRANCH  30  31
ATOM     31  N   UNL     1      33.560 -14.338 -22.665  0.00  0.00    +0.386 N 
ATOM     32  C   UNL     1      33.416 -12.899 -22.894  0.00  0.00    -0.101 C 
ATOM     33  C   UNL     1      33.896 -14.596 -21.262  0.00  0.00    -0.101 C 
ATOM     34  H   UNL     1      32.671 -14.791 -22.874  0.00  0.00    -0.080 HD
ENDBRANCH  30  31
ENDBRANCH  27  30
ENDBRANCH  26  27
ENDBRANCH  25  26
ENDBRANCH  19  25
ENDBRANCH   1  20
TORSDOF 8
ENDMDL
MODEL 4
REMARK VINA RESULT:     -11.9      6.442     13.288
REMARK  Name = 445950
REMARK  8 active torsions:
REMARK  status: ('A' for Active; 'I' for Inactive)
REMARK    1  A    between atoms: N_1  and  C_20
REMARK    2  A    between atoms: N_3  and  C_13
REMARK    3  A    between atoms: C_19  and  O_25
REMARK    4  A    between atoms: O_25  and  C_26
REMARK    5  A    between atoms: C_26  and  C_27
REMARK    6  A    between atoms: C_27  and  O_28
REMARK    7  A    between atoms: C_27  and  C_30
REMARK    8  A    between atoms: C_30  and  N_31
REMARK                            x       y       z     vdW  Elec       q    Type
REMARK                         _______ _______ _______ _____ _____    ______ ____
ROOT
ATOM      1  N   UNL     1      36.205 -19.959 -19.128  0.00  0.00    -0.301 N 
ATOM      2  H   UNL     1      37.053 -19.524 -18.882  0.00  0.00    +0.153 HD
ATOM      3  N   UNL     1      36.839 -22.272 -14.994  0.00  0.00    -0.298 N 
ATOM      4  N   UNL     1      34.602 -21.568 -18.414  0.00  0.00    -0.233 NA
ATOM      5  N   UNL     1      34.922 -22.735 -16.329  0.00  0.00    -0.233 NA
ATOM      6  C   UNL     1      35.758 -20.904 -18.184  0.00  0.00    +0.113 C 
ATOM      7  C   UNL     1      36.537 -21.107 -17.059  0.00  0.00    +0.122 C 
ATOM      8  C   UNL     1      36.066 -22.041 -16.159  0.00  0.00    +0.113 C 
ATOM      9  C   UNL     1      34.250 -22.453 -17.462  0.00  0.00    +0.252 C 
ATOM     10  H   UNL     1      37.348 -21.486 -14.693  0.00  0.00    +0.153 HD
ENDROOT
BRANCH   3  13
ATOM     11  F   UNL     1      34.951 -23.009 -13.091  0.00  0.00    -0.203 F 
ATOM     12  F   UNL     1      39.099 -23.876 -15.234  0.00  0.00    -0.203 F 
ATOM     13  C   UNL     1      37.019 -23.408 -14.188  0.00  0.00    +0.105 C 
ATOM     14  C   UNL     1      36.054 -23.756 -13.238  0.00  0.00    +0.156 C 
ATOM     15  C   UNL     1      38.166 -24.195 -14.327  0.00  0.00    +0.156 C 
ATOM     16  C   UNL     1      36.235 -24.882 -12.434  0.00  0.00    +0.031 C 
ATOM     17  C   UNL     1      38.345 -25.322 -13.524  0.00  0.00    +0.031 C 
ATOM     18  C   UNL     1      37.380 -25.666 -12.579  0.00  0.00    +0.005 C 
ENDBRANCH   3  13
BRANCH   1  20
ATOM     19  C   UNL     1      34.631 -18.626 -22.777  0.00  0.00    +0.139 C 
ATOM     20  C   UNL     1      35.675 -19.510 -20.356  0.00  0.00    +0.049 C 
ATOM     21  C   UNL     1      33.857 -19.428 -21.945  0.00  0.00    +0.038 C 
ATOM     22  C   UNL     1      35.922 -18.262 -22.410  0.00  0.00    +0.038 C 
ATOM     23  C   UNL     1      34.381 -19.872 -20.730  0.00  0.00    +0.018 C 
ATOM     24  C   UNL     1      36.445 -18.706 -21.196  0.00  0.00    +0.018 C 
BRANCH  19  25
ATOM     25  O   UNL     1      34.116 -18.191 -23.970  0.00  0.00    -0.473 OA
BRANCH  25  26
ATOM     26  C   UNL     1      33.268 -17.048 -23.921  0.00  0.00    +0.232 C 
BRANCH  26  27
ATOM     27  C   UNL     1      33.995 -15.866 -24.558  0.00  0.00    +0.133 C 
BRANCH  27  28
ATOM     28  O   UNL     1      33.073 -15.155 -25.388  0.00  0.00    -0.383 OA
ATOM     29  H   UNL     1      32.245 -15.656 -25.455  0.00  0.00    +0.210 HD
ENDBRANCH  27  28
BRANCH  27  30
ATOM     30  C   UNL     1      34.570 -14.886 -23.533  0.00  0.00    -0.044 C 
BRANCH  30  31
ATOM     31  N   UNL     1      33.543 -14.357 -22.645  0.00  0.00    +0.386 N 
ATOM     32  C   UNL     1      33.380 -12.916 -22.844  0.00  0.00    -0.101 C 
ATOM     33  C   UNL     1      33.873 -14.641 -21.246  0.00  0.00    -0.101 C 
ATOM     34  H   UNL     1      32.662 -14.818 -22.870  0.00  0.00    -0.080 HD
ENDBRANCH  30  31
ENDBRANCH  27  30
ENDBRANCH  26  27
ENDBRANCH  25  26
ENDBRANCH  19  25
ENDBRANCH   1  20
TORSDOF 8
ENDMDL
MODEL 5
REMARK VINA RESULT:     -11.8      7.014     10.653
REMARK  Name = 445950
REMARK  8 active torsions:
REMARK  status: ('A' for Active; 'I' for Inactive)
REMARK    1  A    between atoms: N_1  and  C_20
REMARK    2  A    between atoms: N_3  and  C_13
REMARK    3  A    between atoms: C_19  and  O_25
REMARK    4  A    between atoms: O_25  and  C_26
REMARK    5  A    between atoms: C_26  and  C_27
REMARK    6  A    between atoms: C_27  and  O_28
REMARK    7  A    between atoms: C_27  and  C_30
REMARK    8  A    between atoms: C_30  and  N_31
REMARK                            x       y       z     vdW  Elec       q    Type
REMARK                         _______ _______ _______ _____ _____    ______ ____
ROOT
ATOM      1  N   UNL     1      35.904 -21.052 -18.234  0.00  0.00    -0.301 N 
ATOM      2  H   UNL     1      36.837 -20.817 -18.441  0.00  0.00    +0.153 HD
ATOM      3  N   UNL     1      34.997 -18.675 -22.280  0.00  0.00    -0.298 N 
ATOM      4  N   UNL     1      33.661 -20.838 -19.005  0.00  0.00    -0.233 NA
ATOM      5  N   UNL     1      33.203 -19.639 -21.045  0.00  0.00    -0.233 NA
ATOM      6  C   UNL     1      34.976 -20.578 -19.182  0.00  0.00    +0.113 C 
ATOM      7  C   UNL     1      35.467 -19.860 -20.258  0.00  0.00    +0.122 C 
ATOM      8  C   UNL     1      34.528 -19.412 -21.165  0.00  0.00    +0.113 C 
ATOM      9  C   UNL     1      32.845 -20.348 -19.957  0.00  0.00    +0.252 C 
ATOM     10  H   UNL     1      35.903 -18.925 -22.568  0.00  0.00    +0.153 HD
ENDROOT
BRANCH   3  13
ATOM     11  F   UNL     1      33.670 -19.240 -24.658  0.00  0.00    -0.203 F 
ATOM     12  F   UNL     1      35.127 -16.009 -21.496  0.00  0.00    -0.203 F 
ATOM     13  C   UNL     1      34.416 -17.656 -23.053  0.00  0.00    +0.105 C 
ATOM     14  C   UNL     1      33.755 -17.967 -24.245  0.00  0.00    +0.156 C 
ATOM     15  C   UNL     1      34.498 -16.324 -22.637  0.00  0.00    +0.156 C 
ATOM     16  C   UNL     1      33.182 -16.955 -25.015  0.00  0.00    +0.031 C 
ATOM     17  C   UNL     1      33.923 -15.312 -23.407  0.00  0.00    +0.031 C 
ATOM     18  C   UNL     1      33.265 -15.627 -24.594  0.00  0.00    +0.005 C 
ENDBRANCH   3  13
BRANCH   1  20
ATOM     19  C   UNL     1      35.471 -23.272 -14.705  0.00  0.00    +0.139 C 
ATOM     20  C   UNL     1      35.758 -21.799 -17.046  0.00  0.00    +0.049 C 
ATOM     21  C   UNL     1      36.693 -22.677 -14.999  0.00  0.00    +0.038 C 
ATOM     22  C   UNL     1      34.391 -23.136 -15.570  0.00  0.00    +0.038 C 
ATOM     23  C   UNL     1      36.838 -21.939 -16.174  0.00  0.00    +0.018 C 
ATOM     24  C   UNL     1      34.535 -22.397 -16.744  0.00  0.00    +0.018 C 
BRANCH  19  25
ATOM     25  O   UNL     1      35.330 -23.996 -13.551  0.00  0.00    -0.473 OA
BRANCH  25  26
ATOM     26  C   UNL     1      35.798 -23.388 -12.352  0.00  0.00    +0.232 C 
BRANCH  26  27
ATOM     27  C   UNL     1      36.948 -24.222 -11.791  0.00  0.00    +0.133 C 
BRANCH  27  28
ATOM     28  O   UNL     1      36.922 -24.134 -10.364  0.00  0.00    -0.383 OA
ATOM     29  H   UNL     1      36.885 -23.202 -10.098  0.00  0.00    +0.210 HD
ENDBRANCH  27  28
BRANCH  27  30
ATOM     30  C   UNL     1      36.871 -25.699 -12.181  0.00  0.00    -0.044 C 
BRANCH  30  31
ATOM     31  N   UNL     1      37.899 -26.066 -13.146  0.00  0.00    +0.386 N 
ATOM     32  C   UNL     1      38.863 -24.976 -13.313  0.00  0.00    -0.101 C 
ATOM     33  C   UNL     1      37.298 -26.413 -14.436  0.00  0.00    -0.101 C 
ATOM     34  H   UNL     1      38.392 -26.883 -12.787  0.00  0.00    -0.080 HD
ENDBRANCH  30  31
ENDBRANCH  27  30
ENDBRANCH  26  27
ENDBRANCH  25  26
ENDBRANCH  19  25
ENDBRANCH   1  20
TORSDOF 8
ENDMDL
MODEL 6
REMARK VINA RESULT:     -11.8      7.005     10.709
REMARK  Name = 445950
REMARK  8 active torsions:
REMARK  status: ('A' for Active; 'I' for Inactive)
REMARK    1  A    between atoms: N_1  and  C_20
REMARK    2  A    between atoms: N_3  and  C_13
REMARK    3  A    between atoms: C_19  and  O_25
REMARK    4  A    between atoms: O_25  and  C_26
REMARK    5  A    between atoms: C_26  and  C_27
REMARK    6  A    between atoms: C_27  and  O_28
REMARK    7  A    between atoms: C_27  and  C_30
REMARK    8  A    between atoms: C_30  and  N_31
REMARK                            x       y       z     vdW  Elec       q    Type
REMARK                         _______ _______ _______ _____ _____    ______ ____
ROOT
ATOM      1  N   UNL     1      35.913 -21.034 -18.244  0.00  0.00    -0.301 N 
ATOM      2  H   UNL     1      36.846 -20.794 -18.446  0.00  0.00    +0.153 HD
ATOM      3  N   UNL     1      35.012 -18.656 -22.291  0.00  0.00    -0.298 N 
ATOM      4  N   UNL     1      33.673 -20.832 -19.025  0.00  0.00    -0.233 NA
ATOM      5  N   UNL     1      33.218 -19.633 -21.066  0.00  0.00    -0.233 NA
ATOM      6  C   UNL     1      34.988 -20.564 -19.196  0.00  0.00    +0.113 C 
ATOM      7  C   UNL     1      35.480 -19.842 -20.269  0.00  0.00    +0.122 C 
ATOM      8  C   UNL     1      34.542 -19.398 -21.179  0.00  0.00    +0.113 C 
ATOM      9  C   UNL     1      32.859 -20.345 -19.981  0.00  0.00    +0.252 C 
ATOM     10  H   UNL     1      35.922 -18.900 -22.575  0.00  0.00    +0.153 HD
ENDROOT
BRANCH   3  13
ATOM     11  F   UNL     1      35.140 -15.989 -21.512  0.00  0.00    -0.203 F 
ATOM     12  F   UNL     1      33.681 -19.227 -24.665  0.00  0.00    -0.203 F 
ATOM     13  C   UNL     1      34.429 -17.640 -23.065  0.00  0.00    +0.105 C 
ATOM     14  C   UNL     1      34.508 -16.306 -22.650  0.00  0.00    +0.156 C 
ATOM     15  C   UNL     1      33.764 -17.954 -24.253  0.00  0.00    +0.156 C 
ATOM     16  C   UNL     1      33.926 -15.297 -23.418  0.00  0.00    +0.031 C 
ATOM     17  C   UNL     1      33.184 -16.944 -25.021  0.00  0.00    +0.031 C 
ATOM     18  C   UNL     1      33.265 -15.616 -24.604  0.00  0.00    +0.005 C 
ENDBRANCH   3  13
BRANCH   1  20
ATOM     19  C   UNL     1      35.479 -23.262 -14.720  0.00  0.00    +0.139 C 
ATOM     20  C   UNL     1      35.767 -21.784 -17.058  0.00  0.00    +0.049 C 
ATOM     21  C   UNL     1      34.406 -23.146 -15.599  0.00  0.00    +0.038 C 
ATOM     22  C   UNL     1      36.694 -22.646 -15.000  0.00  0.00    +0.038 C 
ATOM     23  C   UNL     1      34.551 -22.404 -16.771  0.00  0.00    +0.018 C 
ATOM     24  C   UNL     1      36.838 -21.905 -16.173  0.00  0.00    +0.018 C 
BRANCH  19  25
ATOM     25  O   UNL     1      35.336 -23.991 -13.569  0.00  0.00    -0.473 OA
BRANCH  25  26
ATOM     26  C   UNL     1      35.831 -23.400 -12.371  0.00  0.00    +0.232 C 
BRANCH  26  27
ATOM     27  C   UNL     1      36.989 -24.245 -11.847  0.00  0.00    +0.133 C 
BRANCH  27  28
ATOM     28  O   UNL     1      37.010 -24.156 -10.419  0.00  0.00    -0.383 OA
ATOM     29  H   UNL     1      37.562 -24.867 -10.059  0.00  0.00    +0.210 HD
ENDBRANCH  27  28
BRANCH  27  30
ATOM     30  C   UNL     1      36.886 -25.721 -12.232  0.00  0.00    -0.044 C 
BRANCH  30  31
ATOM     31  N   UNL     1      37.903 -26.108 -13.201  0.00  0.00    +0.386 N 
ATOM     32  C   UNL     1      38.896 -25.044 -13.360  0.00  0.00    -0.101 C 
ATOM     33  C   UNL     1      37.291 -26.426 -14.494  0.00  0.00    -0.101 C 
ATOM     34  H   UNL     1      38.373 -26.942 -12.851  0.00  0.00    -0.080 HD
ENDBRANCH  30  31
ENDBRANCH  27  30
ENDBRANCH  26  27
ENDBRANCH  25  26
ENDBRANCH  19  25
ENDBRANCH   1  20
TORSDOF 8
ENDMDL
MODEL 7
REMARK VINA RESULT:     -11.6      0.814      1.440
REMARK  Name = 445950
REMARK  8 active torsions:
REMARK  status: ('A' for Active; 'I' for Inactive)
REMARK    1  A    between atoms: N_1  and  C_20
REMARK    2  A    between atoms: N_3  and  C_13
REMARK    3  A    between atoms: C_19  and  O_25
REMARK    4  A    between atoms: O_25  and  C_26
REMARK    5  A    between atoms: C_26  and  C_27
REMARK    6  A    between atoms: C_27  and  O_28
REMARK    7  A    between atoms: C_27  and  C_30
REMARK    8  A    between atoms: C_30  and  N_31
REMARK                            x       y       z     vdW  Elec       q    Type
REMARK                         _______ _______ _______ _____ _____    ______ ____
ROOT
ATOM      1  N   UNL     1      33.617 -12.547 -23.308  0.00  0.00    -0.301 N 
ATOM      2  H   UNL     1      34.249 -12.097 -23.914  0.00  0.00    +0.153 HD
ATOM      3  N   UNL     1      31.695  -8.183 -22.978  0.00  0.00    -0.298 N 
ATOM      4  N   UNL     1      31.708 -12.194 -21.928  0.00  0.00    -0.233 NA
ATOM      5  N   UNL     1      30.739  -9.994 -21.762  0.00  0.00    -0.233 NA
ATOM      6  C   UNL     1      32.634 -11.690 -22.776  0.00  0.00    +0.113 C 
ATOM      7  C   UNL     1      32.669 -10.359 -23.154  0.00  0.00    +0.122 C 
ATOM      8  C   UNL     1      31.689  -9.552 -22.612  0.00  0.00    +0.113 C 
ATOM      9  C   UNL     1      30.807 -11.307 -21.468  0.00  0.00    +0.252 C 
ATOM     10  H   UNL     1      32.052  -8.016 -23.879  0.00  0.00    +0.153 HD
ENDROOT
BRANCH   3  13
ATOM     11  F   UNL     1      30.023  -6.318 -24.185  0.00  0.00    -0.203 F 
ATOM     12  F   UNL     1      32.532  -7.651 -20.380  0.00  0.00    -0.203 F 
ATOM     13  C   UNL     1      31.290  -7.021 -22.303  0.00  0.00    +0.105 C 
ATOM     14  C   UNL     1      30.448  -6.098 -22.933  0.00  0.00    +0.156 C 
ATOM     15  C   UNL     1      31.726  -6.776 -20.998  0.00  0.00    +0.156 C 
ATOM     16  C   UNL     1      30.048  -4.942 -22.263  0.00  0.00    +0.031 C 
ATOM     17  C   UNL     1      31.325  -5.620 -20.328  0.00  0.00    +0.031 C 
ATOM     18  C   UNL     1      30.486  -4.704 -20.961  0.00  0.00    +0.005 C 
ENDBRANCH   3  13
BRANCH   1  20
ATOM     19  C   UNL     1      34.380 -16.639 -22.819  0.00  0.00    +0.139 C 
ATOM     20  C   UNL     1      33.874 -13.924 -23.144  0.00  0.00    +0.049 C 
ATOM     21  C   UNL     1      34.093 -16.138 -24.085  0.00  0.00    +0.038 C 
ATOM     22  C   UNL     1      34.417 -15.796 -21.715  0.00  0.00    +0.038 C 
ATOM     23  C   UNL     1      33.839 -14.776 -24.247  0.00  0.00    +0.018 C 
ATOM     24  C   UNL     1      34.162 -14.434 -21.877  0.00  0.00    +0.018 C 
BRANCH  19  25
ATOM     25  O   UNL     1      34.630 -17.977 -22.660  0.00  0.00    -0.473 OA
BRANCH  25  26
ATOM     26  C   UNL     1      35.354 -18.359 -21.496  0.00  0.00    +0.232 C 
BRANCH  26  27
ATOM     27  C   UNL     1      34.474 -19.272 -20.645  0.00  0.00    +0.133 C 
BRANCH  27  28
ATOM     28  O   UNL     1      33.339 -19.665 -21.421  0.00  0.00    -0.383 OA
ATOM     29  H   UNL     1      33.167 -18.997 -22.103  0.00  0.00    +0.210 HD
ENDBRANCH  27  28
BRANCH  27  30
ATOM     30  C   UNL     1      35.192 -20.538 -20.173  0.00  0.00    -0.044 C 
BRANCH  30  31
ATOM     31  N   UNL     1      34.846 -20.886 -18.802  0.00  0.00    +0.386 N 
ATOM     32  C   UNL     1      36.037 -21.294 -18.055  0.00  0.00    -0.101 C 
ATOM     33  C   UNL     1      33.842 -21.952 -18.776  0.00  0.00    -0.101 C 
ATOM     34  H   UNL     1      34.450 -20.058 -18.356  0.00  0.00    -0.080 HD
ENDBRANCH  30  31
ENDBRANCH  27  30
ENDBRANCH  26  27
ENDBRANCH  25  26
ENDBRANCH  19  25
ENDBRANCH   1  20
TORSDOF 8
ENDMDL
MODEL 8
REMARK VINA RESULT:     -11.1      6.491     10.156
REMARK  Name = 445950
REMARK  8 active torsions:
REMARK  status: ('A' for Active; 'I' for Inactive)
REMARK    1  A    between atoms: N_1  and  C_20
REMARK    2  A    between atoms: N_3  and  C_13
REMARK    3  A    between atoms: C_19  and  O_25
REMARK    4  A    between atoms: O_25  and  C_26
REMARK    5  A    between atoms: C_26  and  C_27
REMARK    6  A    between atoms: C_27  and  O_28
REMARK    7  A    between atoms: C_27  and  C_30
REMARK    8  A    between atoms: C_30  and  N_31
REMARK                            x       y       z     vdW  Elec       q    Type
REMARK                         _______ _______ _______ _____ _____    ______ ____
ROOT
ATOM      1  N   UNL     1      36.034 -20.587 -18.574  0.00  0.00    -0.301 N 
ATOM      2  H   UNL     1      36.940 -20.222 -18.694  0.00  0.00    +0.153 HD
ATOM      3  N   UNL     1      35.054 -17.927 -22.421  0.00  0.00    -0.298 N 
ATOM      4  N   UNL     1      33.827 -20.566 -19.468  0.00  0.00    -0.233 NA
ATOM      5  N   UNL     1      33.333 -19.225 -21.408  0.00  0.00    -0.233 NA
ATOM      6  C   UNL     1      35.107 -20.132 -19.531  0.00  0.00    +0.113 C 
ATOM      7  C   UNL     1      35.561 -19.252 -20.497  0.00  0.00    +0.122 C 
ATOM      8  C   UNL     1      34.622 -18.828 -21.417  0.00  0.00    +0.113 C 
ATOM      9  C   UNL     1      33.009 -20.081 -20.420  0.00  0.00    +0.252 C 
ATOM     10  H   UNL     1      35.999 -18.035 -22.671  0.00  0.00    +0.153 HD
ENDROOT
BRANCH   3  13
ATOM     11  F   UNL     1      34.862 -15.345 -21.406  0.00  0.00    -0.203 F 
ATOM     12  F   UNL     1      33.878 -18.413 -24.895  0.00  0.00    -0.203 F 
ATOM     13  C   UNL     1      34.391 -16.911 -23.128  0.00  0.00    +0.105 C 
ATOM     14  C   UNL     1      34.309 -15.621 -22.595  0.00  0.00    +0.156 C 
ATOM     15  C   UNL     1      33.807 -17.182 -24.369  0.00  0.00    +0.156 C 
ATOM     16  C   UNL     1      33.648 -14.612 -23.297  0.00  0.00    +0.031 C 
ATOM     17  C   UNL     1      33.148 -16.173 -25.071  0.00  0.00    +0.031 C 
ATOM     18  C   UNL     1      33.069 -14.888 -24.535  0.00  0.00    +0.005 C 
ENDBRANCH   3  13
BRANCH   1  20
ATOM     19  C   UNL     1      35.698 -23.199 -15.313  0.00  0.00    +0.139 C 
ATOM     20  C   UNL     1      35.921 -21.467 -17.476  0.00  0.00    +0.049 C 
ATOM     21  C   UNL     1      34.600 -22.984 -16.139  0.00  0.00    +0.038 C 
ATOM     22  C   UNL     1      36.907 -22.558 -15.559  0.00  0.00    +0.038 C 
ATOM     23  C   UNL     1      34.712 -22.114 -17.224  0.00  0.00    +0.018 C 
ATOM     24  C   UNL     1      37.018 -21.688 -16.644  0.00  0.00    +0.018 C 
BRANCH  19  25
ATOM     25  O   UNL     1      35.588 -24.054 -14.248  0.00  0.00    -0.473 OA
BRANCH  25  26
ATOM     26  C   UNL     1      35.195 -25.391 -14.538  0.00  0.00    +0.232 C 
BRANCH  26  27
ATOM     27  C   UNL     1      36.405 -26.308 -14.377  0.00  0.00    +0.133 C 
BRANCH  27  28
ATOM     28  O   UNL     1      37.249 -26.156 -15.522  0.00  0.00    -0.383 OA
ATOM     29  H   UNL     1      36.997 -25.353 -16.005  0.00  0.00    +0.210 HD
ENDBRANCH  27  28
BRANCH  27  30
ATOM     30  C   UNL     1      37.235 -26.002 -13.128  0.00  0.00    -0.044 C 
BRANCH  30  31
ATOM     31  N   UNL     1      38.121 -24.862 -13.325  0.00  0.00    +0.386 N 
ATOM     32  C   UNL     1      39.484 -25.311 -13.614  0.00  0.00    -0.101 C 
ATOM     33  C   UNL     1      38.114 -23.993 -12.146  0.00  0.00    -0.101 C 
ATOM     34  H   UNL     1      37.777 -24.329 -14.123  0.00  0.00    -0.080 HD
ENDBRANCH  30  31
ENDBRANCH  27  30
ENDBRANCH  26  27
ENDBRANCH  25  26
ENDBRANCH  19  25
ENDBRANCH   1  20
TORSDOF 8
ENDMDL
MODEL 9
REMARK VINA RESULT:     -11.0      2.020      2.801
REMARK  Name = 445950
REMARK  8 active torsions:
REMARK  status: ('A' for Active; 'I' for Inactive)
REMARK    1  A    between atoms: N_1  and  C_20
REMARK    2  A    between atoms: N_3  and  C_13
REMARK    3  A    between atoms: C_19  and  O_25
REMARK    4  A    between atoms: O_25  and  C_26
REMARK    5  A    between atoms: C_26  and  C_27
REMARK    6  A    between atoms: C_27  and  O_28
REMARK    7  A    between atoms: C_27  and  C_30
REMARK    8  A    between atoms: C_30  and  N_31
REMARK                            x       y       z     vdW  Elec       q    Type
REMARK                         _______ _______ _______ _____ _____    ______ ____
ROOT
ATOM      1  N   UNL     1      34.018 -14.569 -23.262  0.00  0.00    -0.301 N 
ATOM      2  H   UNL     1      34.449 -14.347 -24.118  0.00  0.00    +0.153 HD
ATOM      3  N   UNL     1      32.581 -10.015 -23.444  0.00  0.00    -0.298 N 
ATOM      4  N   UNL     1      32.679 -13.679 -21.506  0.00  0.00    -0.233 NA
ATOM      5  N   UNL     1      31.954 -11.382 -21.598  0.00  0.00    -0.233 NA
ATOM      6  C   UNL     1      33.313 -13.494 -22.686  0.00  0.00    +0.113 C 
ATOM      7  C   UNL     1      33.308 -12.290 -23.368  0.00  0.00    +0.122 C 
ATOM      8  C   UNL     1      32.607 -11.261 -22.772  0.00  0.00    +0.113 C 
ATOM      9  C   UNL     1      32.030 -12.600 -21.028  0.00  0.00    +0.252 C 
ATOM     10  H   UNL     1      32.639 -10.091 -24.423  0.00  0.00    +0.153 HD
ENDROOT
BRANCH   3  13
ATOM     11  F   UNL     1      34.767  -8.298 -23.514  0.00  0.00    -0.203 F 
ATOM     12  F   UNL     1      30.200  -9.004 -22.421  0.00  0.00    -0.203 F 
ATOM     13  C   UNL     1      32.486  -8.692 -22.982  0.00  0.00    +0.105 C 
ATOM     14  C   UNL     1      33.602  -7.850 -23.028  0.00  0.00    +0.156 C 
ATOM     15  C   UNL     1      31.278  -8.210 -22.470  0.00  0.00    +0.156 C 
ATOM     16  C   UNL     1      33.509  -6.536 -22.566  0.00  0.00    +0.031 C 
ATOM     17  C   UNL     1      31.186  -6.896 -22.009  0.00  0.00    +0.031 C 
ATOM     18  C   UNL     1      32.300  -6.060 -22.058  0.00  0.00    +0.005 C 
ENDBRANCH   3  13
BRANCH   1  20
ATOM     19  C   UNL     1      34.639 -18.533 -22.047  0.00  0.00    +0.139 C 
ATOM     20  C   UNL     1      34.227 -15.903 -22.852  0.00  0.00    +0.049 C 
ATOM     21  C   UNL     1      34.964 -17.489 -21.186  0.00  0.00    +0.038 C 
ATOM     22  C   UNL     1      34.109 -18.273 -23.306  0.00  0.00    +0.038 C 
ATOM     23  C   UNL     1      34.757 -16.170 -21.590  0.00  0.00    +0.018 C 
ATOM     24  C   UNL     1      33.903 -16.954 -23.710  0.00  0.00    +0.018 C 
BRANCH  19  25
ATOM     25  O   UNL     1      34.841 -19.828 -21.649  0.00  0.00    -0.473 OA
BRANCH  25  26
ATOM     26  C   UNL     1      35.064 -20.043 -20.259  0.00  0.00    +0.232 C 
BRANCH  26  27
ATOM     27  C   UNL     1      33.745 -20.444 -19.603  0.00  0.00    +0.133 C 
BRANCH  27  28
ATOM     28  O   UNL     1      32.698 -20.320 -20.570  0.00  0.00    -0.383 OA
ATOM     29  H   UNL     1      32.599 -19.388 -20.822  0.00  0.00    +0.210 HD
ENDBRANCH  27  28
BRANCH  27  30
ATOM     30  C   UNL     1      33.742 -21.880 -19.077  0.00  0.00    -0.044 C 
BRANCH  30  31
ATOM     31  N   UNL     1      33.694 -21.930 -17.622  0.00  0.00    +0.386 N 
ATOM     32  C   UNL     1      35.044 -22.021 -17.063  0.00  0.00    -0.101 C 
ATOM     33  C   UNL     1      32.881 -23.062 -17.170  0.00  0.00    -0.101 C 
ATOM     34  H   UNL     1      33.261 -21.068 -17.290  0.00  0.00    -0.080 HD
ENDBRANCH  30  31
ENDBRANCH  27  30
ENDBRANCH  26  27
ENDBRANCH  25  26
ENDBRANCH  19  25
ENDBRANCH   1  20
TORSDOF 8
ENDMDL
