MODEL 1
REMARK VINA RESULT:     -11.9      0.000      0.000
REMARK  Name = 11544170
REMARK  4 active torsions:
REMARK  status: ('A' for Active; 'I' for Inactive)
REMARK    1  A    between atoms: C_4  and  C_11
REMARK    2  A    between atoms: C_8  and  C_21
REMARK    3  A    between atoms: C_16  and  C_18
REMARK    4  A    between atoms: C_18  and  O_19
REMARK                            x       y       z     vdW  Elec       q    Type
REMARK                         _______ _______ _______ _____ _____    ______ ____
ROOT
ATOM      1  N   UNL     1      31.823 -22.735 -16.743  0.00  0.00    -0.297 N 
ATOM      2  N   UNL     1      31.705 -21.305 -18.677  0.00  0.00    -0.229 NA
ATOM      3  C   UNL     1      33.771 -22.009 -17.559  0.00  0.00    +0.033 C 
ATOM      4  C   UNL     1      34.024 -22.832 -16.430  0.00  0.00    +0.017 C 
ATOM      5  C   UNL     1      32.390 -21.969 -17.727  0.00  0.00    +0.132 C 
ATOM      6  C   UNL     1      34.554 -21.284 -18.471  0.00  0.00    +0.004 C 
ATOM      7  C   UNL     1      32.807 -23.265 -15.948  0.00  0.00    +0.063 C 
ATOM      8  C   UNL     1      33.895 -20.576 -19.476  0.00  0.00    +0.019 C 
ATOM      9  C   UNL     1      32.509 -20.623 -19.527  0.00  0.00    +0.100 C 
ATOM     10  H   UNL     1      30.858 -22.883 -16.624  0.00  0.00    +0.154 HD
ENDROOT
BRANCH   4  11
ATOM     11  C   UNL     1      35.268 -23.207 -15.823  0.00  0.00    +0.001 C 
ATOM     12  C   UNL     1      35.356 -24.382 -15.074  0.00  0.00    +0.000 C 
ATOM     13  C   UNL     1      36.395 -22.398 -15.981  0.00  0.00    +0.000 C 
ATOM     14  C   UNL     1      36.566 -24.747 -14.484  0.00  0.00    +0.006 C 
ATOM     15  C   UNL     1      37.606 -22.763 -15.391  0.00  0.00    +0.006 C 
ATOM     16  C   UNL     1      37.690 -23.937 -14.643  0.00  0.00    +0.075 C 
BRANCH  16  18
ATOM     17  O   UNL     1      40.067 -23.919 -14.378  0.00  0.00    -0.245 OA
ATOM     18  C   UNL     1      38.953 -24.318 -14.028  0.00  0.00    +0.338 C 
BRANCH  18  19
ATOM     19  O   UNL     1      38.787 -25.185 -12.992  0.00  0.00    -0.477 OA
ATOM     20  H   UNL     1      38.534 -24.865 -12.148  0.00  0.00    +0.295 HD
ENDBRANCH  18  19
ENDBRANCH  16  18
ENDBRANCH   4  11
BRANCH   8  21
ATOM     21  C   UNL     1      34.644 -19.809 -20.445  0.00  0.00    +0.001 C 
ATOM     22  C   UNL     1      34.048 -19.432 -21.650  0.00  0.00    +0.000 C 
ATOM     23  C   UNL     1      35.963 -19.442 -20.178  0.00  0.00    +0.000 C 
ATOM     24  C   UNL     1      34.770 -18.691 -22.584  0.00  0.00    +0.000 C 
ATOM     25  C   UNL     1      36.686 -18.700 -21.113  0.00  0.00    +0.000 C 
ATOM     26  C   UNL     1      36.089 -18.325 -22.316  0.00  0.00    +0.000 C 
ENDBRANCH   8  21
TORSDOF 4
ENDMDL
MODEL 2
REMARK VINA RESULT:     -11.7      1.417      2.506
REMARK  Name = 11544170
REMARK  4 active torsions:
REMARK  status: ('A' for Active; 'I' for Inactive)
REMARK    1  A    between atoms: C_4  and  C_11
REMARK    2  A    between atoms: C_8  and  C_21
REMARK    3  A    between atoms: C_16  and  C_18
REMARK    4  A    between atoms: C_18  and  O_19
REMARK                            x       y       z     vdW  Elec       q    Type
REMARK                         _______ _______ _______ _____ _____    ______ ____
ROOT
ATOM      1  N   UNL     1      32.189 -24.042 -14.290  0.00  0.00    -0.297 N 
ATOM      2  N   UNL     1      31.335 -22.677 -16.081  0.00  0.00    -0.229 NA
ATOM      3  C   UNL     1      33.686 -23.300 -15.771  0.00  0.00    +0.033 C 
ATOM      4  C   UNL     1      34.356 -24.081 -14.793  0.00  0.00    +0.017 C 
ATOM      5  C   UNL     1      32.337 -23.296 -15.429  0.00  0.00    +0.132 C 
ATOM      6  C   UNL     1      34.063 -22.588 -16.920  0.00  0.00    +0.004 C 
ATOM      7  C   UNL     1      33.410 -24.525 -13.894  0.00  0.00    +0.063 C 
ATOM      8  C   UNL     1      33.064 -21.927 -17.634  0.00  0.00    +0.019 C 
ATOM      9  C   UNL     1      31.756 -22.006 -17.179  0.00  0.00    +0.100 C 
ATOM     10  H   UNL     1      31.337 -24.206 -13.826  0.00  0.00    +0.154 HD
ENDROOT
BRANCH   4  11
ATOM     11  C   UNL     1      35.747 -24.409 -14.669  0.00  0.00    +0.001 C 
ATOM     12  C   UNL     1      36.703 -23.393 -14.617  0.00  0.00    +0.000 C 
ATOM     13  C   UNL     1      36.148 -25.744 -14.600  0.00  0.00    +0.000 C 
ATOM     14  C   UNL     1      38.055 -23.712 -14.495  0.00  0.00    +0.006 C 
ATOM     15  C   UNL     1      37.500 -26.063 -14.478  0.00  0.00    +0.006 C 
ATOM     16  C   UNL     1      38.454 -25.046 -14.425  0.00  0.00    +0.075 C 
BRANCH  16  18
ATOM     17  O   UNL     1      40.321 -26.517 -14.160  0.00  0.00    -0.245 OA
ATOM     18  C   UNL     1      39.864 -25.379 -14.298  0.00  0.00    +0.338 C 
BRANCH  18  19
ATOM     19  O   UNL     1      40.665 -24.279 -14.348  0.00  0.00    -0.477 OA
ATOM     20  H   UNL     1      40.640 -23.714 -15.095  0.00  0.00    +0.295 HD
ENDBRANCH  18  19
ENDBRANCH  16  18
ENDBRANCH   4  11
BRANCH   8  21
ATOM     21  C   UNL     1      33.387 -21.176 -18.826  0.00  0.00    +0.001 C 
ATOM     22  C   UNL     1      32.372 -20.572 -19.569  0.00  0.00    +0.000 C 
ATOM     23  C   UNL     1      34.715 -21.050 -19.235  0.00  0.00    +0.000 C 
ATOM     24  C   UNL     1      32.684 -19.846 -20.717  0.00  0.00    +0.000 C 
ATOM     25  C   UNL     1      35.028 -20.324 -20.384  0.00  0.00    +0.000 C 
ATOM     26  C   UNL     1      34.012 -19.721 -21.125  0.00  0.00    +0.000 C 
ENDBRANCH   8  21
TORSDOF 4
ENDMDL
MODEL 3
REMARK VINA RESULT:     -11.3      4.034      7.536
REMARK  Name = 11544170
REMARK  4 active torsions:
REMARK  status: ('A' for Active; 'I' for Inactive)
REMARK    1  A    between atoms: C_4  and  C_11
REMARK    2  A    between atoms: C_8  and  C_21
REMARK    3  A    between atoms: C_16  and  C_18
REMARK    4  A    between atoms: C_18  and  O_19
REMARK                            x       y       z     vdW  Elec       q    Type
REMARK                         _______ _______ _______ _____ _____    ______ ____
ROOT
ATOM      1  N   UNL     1      36.116 -22.745 -15.594  0.00  0.00    -0.297 N 
ATOM      2  N   UNL     1      34.237 -23.665 -14.400  0.00  0.00    -0.229 NA
ATOM      3  C   UNL     1      34.103 -22.410 -16.502  0.00  0.00    +0.033 C 
ATOM      4  C   UNL     1      35.087 -21.807 -17.330  0.00  0.00    +0.017 C 
ATOM      5  C   UNL     1      34.777 -22.986 -15.430  0.00  0.00    +0.132 C 
ATOM      6  C   UNL     1      32.706 -22.540 -16.532  0.00  0.00    +0.004 C 
ATOM      7  C   UNL     1      36.316 -22.029 -16.747  0.00  0.00    +0.063 C 
ATOM      8  C   UNL     1      32.094 -23.234 -15.488  0.00  0.00    +0.019 C 
ATOM      9  C   UNL     1      32.889 -23.758 -14.480  0.00  0.00    +0.100 C 
ATOM     10  H   UNL     1      36.825 -23.041 -14.980  0.00  0.00    +0.154 HD
ENDROOT
BRANCH   4  11
ATOM     11  C   UNL     1      34.939 -21.082 -18.558  0.00  0.00    +0.001 C 
ATOM     12  C   UNL     1      33.677 -20.933 -19.135  0.00  0.00    +0.000 C 
ATOM     13  C   UNL     1      36.057 -20.521 -19.179  0.00  0.00    +0.000 C 
ATOM     14  C   UNL     1      33.532 -20.226 -20.329  0.00  0.00    +0.006 C 
ATOM     15  C   UNL     1      35.913 -19.814 -20.372  0.00  0.00    +0.006 C 
ATOM     16  C   UNL     1      34.651 -19.667 -20.947  0.00  0.00    +0.075 C 
BRANCH  16  18
ATOM     17  O   UNL     1      33.501 -18.943 -22.916  0.00  0.00    -0.245 OA
ATOM     18  C   UNL     1      34.501 -18.929 -22.192  0.00  0.00    +0.338 C 
BRANCH  18  19
ATOM     19  O   UNL     1      35.604 -18.193 -22.497  0.00  0.00    -0.477 OA
ATOM     20  H   UNL     1      35.980 -17.623 -21.855  0.00  0.00    +0.295 HD
ENDBRANCH  18  19
ENDBRANCH  16  18
ENDBRANCH   4  11
BRANCH   8  21
ATOM     21  C   UNL     1      30.659 -23.402 -15.461  0.00  0.00    +0.001 C 
ATOM     22  C   UNL     1      29.838 -22.533 -16.181  0.00  0.00    +0.000 C 
ATOM     23  C   UNL     1      30.091 -24.435 -14.714  0.00  0.00    +0.000 C 
ATOM     24  C   UNL     1      28.454 -22.697 -16.156  0.00  0.00    +0.000 C 
ATOM     25  C   UNL     1      28.705 -24.598 -14.688  0.00  0.00    +0.000 C 
ATOM     26  C   UNL     1      27.887 -23.730 -15.410  0.00  0.00    +0.000 C 
ENDBRANCH   8  21
TORSDOF 4
ENDMDL
MODEL 4
REMARK VINA RESULT:     -11.2      3.210      7.285
REMARK  Name = 11544170
REMARK  4 active torsions:
REMARK  status: ('A' for Active; 'I' for Inactive)
REMARK    1  A    between atoms: C_4  and  C_11
REMARK    2  A    between atoms: C_8  and  C_21
REMARK    3  A    between atoms: C_16  and  C_18
REMARK    4  A    between atoms: C_18  and  O_19
REMARK                            x       y       z     vdW  Elec       q    Type
REMARK                         _______ _______ _______ _____ _____    ______ ____
ROOT
ATOM      1  N   UNL     1      31.209 -23.095 -15.807  0.00  0.00    -0.297 N 
ATOM      2  N   UNL     1      32.623 -24.178 -14.185  0.00  0.00    -0.229 NA
ATOM      3  C   UNL     1      33.411 -22.915 -16.134  0.00  0.00    +0.033 C 
ATOM      4  C   UNL     1      32.734 -22.224 -17.173  0.00  0.00    +0.017 C 
ATOM      5  C   UNL     1      32.432 -23.446 -15.299  0.00  0.00    +0.132 C 
ATOM      6  C   UNL     1      34.751 -23.157 -15.794  0.00  0.00    +0.004 C 
ATOM      7  C   UNL     1      31.380 -22.352 -16.947  0.00  0.00    +0.063 C 
ATOM      8  C   UNL     1      35.006 -23.911 -14.649  0.00  0.00    +0.019 C 
ATOM      9  C   UNL     1      33.932 -24.381 -13.906  0.00  0.00    +0.100 C 
ATOM     10  H   UNL     1      30.340 -23.340 -15.415  0.00  0.00    +0.154 HD
ENDROOT
BRANCH   4  11
ATOM     11  C   UNL     1      33.260 -21.499 -18.293  0.00  0.00    +0.001 C 
ATOM     12  C   UNL     1      32.401 -20.782 -19.129  0.00  0.00    +0.000 C 
ATOM     13  C   UNL     1      34.632 -21.507 -18.551  0.00  0.00    +0.000 C 
ATOM     14  C   UNL     1      32.913 -20.076 -20.217  0.00  0.00    +0.006 C 
ATOM     15  C   UNL     1      35.144 -20.801 -19.639  0.00  0.00    +0.006 C 
ATOM     16  C   UNL     1      34.284 -20.086 -20.472  0.00  0.00    +0.075 C 
BRANCH  16  18
ATOM     17  O   UNL     1      34.313 -19.305 -22.733  0.00  0.00    -0.245 OA
ATOM     18  C   UNL     1      34.818 -19.349 -21.607  0.00  0.00    +0.338 C 
BRANCH  18  19
ATOM     19  O   UNL     1      35.967 -18.687 -21.304  0.00  0.00    -0.477 OA
ATOM     20  H   UNL     1      36.659 -18.634 -21.935  0.00  0.00    +0.295 HD
ENDBRANCH  18  19
ENDBRANCH  16  18
ENDBRANCH   4  11
BRANCH   8  21
ATOM     21  C   UNL     1      36.364 -24.196 -14.245  0.00  0.00    +0.001 C 
ATOM     22  C   UNL     1      36.609 -24.972 -13.111  0.00  0.00    +0.000 C 
ATOM     23  C   UNL     1      37.434 -23.697 -14.989  0.00  0.00    +0.000 C 
ATOM     24  C   UNL     1      37.918 -25.248 -12.723  0.00  0.00    +0.000 C 
ATOM     25  C   UNL     1      38.745 -23.974 -14.600  0.00  0.00    +0.000 C 
ATOM     26  C   UNL     1      38.987 -24.750 -13.468  0.00  0.00    +0.000 C 
ENDBRANCH   8  21
TORSDOF 4
ENDMDL
MODEL 5
REMARK VINA RESULT:     -10.9      7.751     11.421
REMARK  Name = 11544170
REMARK  4 active torsions:
REMARK  status: ('A' for Active; 'I' for Inactive)
REMARK    1  A    between atoms: C_4  and  C_11
REMARK    2  A    between atoms: C_8  and  C_21
REMARK    3  A    between atoms: C_16  and  C_18
REMARK    4  A    between atoms: C_18  and  O_19
REMARK                            x       y       z     vdW  Elec       q    Type
REMARK                         _______ _______ _______ _____ _____    ______ ____
ROOT
ATOM      1  N   UNL     1      32.851 -13.798 -25.689  0.00  0.00    -0.297 N 
ATOM      2  N   UNL     1      33.838 -15.978 -25.411  0.00  0.00    -0.229 NA
ATOM      3  C   UNL     1      33.233 -14.453 -23.589  0.00  0.00    +0.033 C 
ATOM      4  C   UNL     1      32.654 -13.157 -23.567  0.00  0.00    +0.017 C 
ATOM      5  C   UNL     1      33.342 -14.824 -24.925  0.00  0.00    +0.132 C 
ATOM      6  C   UNL     1      33.683 -15.369 -22.625  0.00  0.00    +0.004 C 
ATOM      7  C   UNL     1      32.430 -12.779 -24.874  0.00  0.00    +0.063 C 
ATOM      8  C   UNL     1      34.208 -16.581 -23.073  0.00  0.00    +0.019 C 
ATOM      9  C   UNL     1      34.257 -16.822 -24.439  0.00  0.00    +0.100 C 
ATOM     10  H   UNL     1      32.807 -13.793 -26.672  0.00  0.00    +0.154 HD
ENDROOT
BRANCH   4  11
ATOM     11  C   UNL     1      32.324 -12.313 -22.456  0.00  0.00    +0.001 C 
ATOM     12  C   UNL     1      32.042 -10.961 -22.664  0.00  0.00    +0.000 C 
ATOM     13  C   UNL     1      32.281 -12.841 -21.164  0.00  0.00    +0.000 C 
ATOM     14  C   UNL     1      31.720 -10.140 -21.583  0.00  0.00    +0.006 C 
ATOM     15  C   UNL     1      31.958 -12.020 -20.084  0.00  0.00    +0.006 C 
ATOM     16  C   UNL     1      31.678 -10.669 -20.294  0.00  0.00    +0.075 C 
BRANCH  16  18
ATOM     17  O   UNL     1      31.239 -10.183 -17.993  0.00  0.00    -0.245 OA
ATOM     18  C   UNL     1      31.342  -9.814 -19.167  0.00  0.00    +0.338 C 
BRANCH  18  19
ATOM     19  O   UNL     1      31.144  -8.519 -19.537  0.00  0.00    -0.477 OA
ATOM     20  H   UNL     1      31.650  -8.147 -20.232  0.00  0.00    +0.295 HD
ENDBRANCH  18  19
ENDBRANCH  16  18
ENDBRANCH   4  11
BRANCH   8  21
ATOM     21  C   UNL     1      34.689 -17.566 -22.132  0.00  0.00    +0.001 C 
ATOM     22  C   UNL     1      33.816 -18.526 -21.617  0.00  0.00    +0.000 C 
ATOM     23  C   UNL     1      36.027 -17.561 -21.738  0.00  0.00    +0.000 C 
ATOM     24  C   UNL     1      34.281 -19.478 -20.710  0.00  0.00    +0.000 C 
ATOM     25  C   UNL     1      36.492 -18.514 -20.830  0.00  0.00    +0.000 C 
ATOM     26  C   UNL     1      35.619 -19.472 -20.317  0.00  0.00    +0.000 C 
ENDBRANCH   8  21
TORSDOF 4
ENDMDL
MODEL 6
REMARK VINA RESULT:     -10.8      3.933      5.504
REMARK  Name = 11544170
REMARK  4 active torsions:
REMARK  status: ('A' for Active; 'I' for Inactive)
REMARK    1  A    between atoms: C_4  and  C_11
REMARK    2  A    between atoms: C_8  and  C_21
REMARK    3  A    between atoms: C_16  and  C_18
REMARK    4  A    between atoms: C_18  and  O_19
REMARK                            x       y       z     vdW  Elec       q    Type
REMARK                         _______ _______ _______ _____ _____    ______ ____
ROOT
ATOM      1  N   UNL     1      36.120 -23.263 -14.583  0.00  0.00    -0.297 N 
ATOM      2  N   UNL     1      37.042 -22.000 -16.415  0.00  0.00    -0.229 NA
ATOM      3  C   UNL     1      34.666 -22.519 -16.106  0.00  0.00    +0.033 C 
ATOM      4  C   UNL     1      33.957 -23.236 -15.106  0.00  0.00    +0.017 C 
ATOM      5  C   UNL     1      36.011 -22.554 -15.750  0.00  0.00    +0.132 C 
ATOM      6  C   UNL     1      34.326 -21.834 -17.283  0.00  0.00    +0.004 C 
ATOM      7  C   UNL     1      34.878 -23.683 -14.182  0.00  0.00    +0.063 C 
ATOM      8  C   UNL     1      35.357 -21.242 -18.012  0.00  0.00    +0.019 C 
ATOM      9  C   UNL     1      36.657 -21.355 -17.541  0.00  0.00    +0.100 C 
ATOM     10  H   UNL     1      36.961 -23.444 -14.106  0.00  0.00    +0.154 HD
ENDROOT
BRANCH   4  11
ATOM     11  C   UNL     1      32.554 -23.505 -14.984  0.00  0.00    +0.001 C 
ATOM     12  C   UNL     1      31.657 -22.980 -15.916  0.00  0.00    +0.000 C 
ATOM     13  C   UNL     1      32.081 -24.293 -13.933  0.00  0.00    +0.000 C 
ATOM     14  C   UNL     1      30.292 -23.242 -15.799  0.00  0.00    +0.006 C 
ATOM     15  C   UNL     1      30.716 -24.555 -13.816  0.00  0.00    +0.006 C 
ATOM     16  C   UNL     1      29.822 -24.030 -14.749  0.00  0.00    +0.075 C 
BRANCH  16  18
ATOM     17  O   UNL     1      27.495 -23.633 -15.132  0.00  0.00    -0.245 OA
ATOM     18  C   UNL     1      28.399 -24.304 -14.626  0.00  0.00    +0.338 C 
BRANCH  18  19
ATOM     19  O   UNL     1      28.144 -25.410 -13.875  0.00  0.00    -0.477 OA
ATOM     20  H   UNL     1      28.349 -25.414 -12.960  0.00  0.00    +0.295 HD
ENDBRANCH  18  19
ENDBRANCH  16  18
ENDBRANCH   4  11
BRANCH   8  21
ATOM     21  C   UNL     1      35.074 -20.523 -19.233  0.00  0.00    +0.001 C 
ATOM     22  C   UNL     1      33.786 -20.537 -19.770  0.00  0.00    +0.000 C 
ATOM     23  C   UNL     1      36.088 -19.813 -19.877  0.00  0.00    +0.000 C 
ATOM     24  C   UNL     1      33.512 -19.842 -20.948  0.00  0.00    +0.000 C 
ATOM     25  C   UNL     1      35.814 -19.118 -21.056  0.00  0.00    +0.000 C 
ATOM     26  C   UNL     1      34.526 -19.132 -21.590  0.00  0.00    +0.000 C 
ENDBRANCH   8  21
TORSDOF 4
ENDMDL
MODEL 7
REMARK VINA RESULT:     -10.6     10.469     13.536
REMARK  Name = 11544170
REMARK  4 active torsions:
REMARK  status: ('A' for Active; 'I' for Inactive)
REMARK    1  A    between atoms: C_4  and  C_11
REMARK    2  A    between atoms: C_8  and  C_21
REMARK    3  A    between atoms: C_16  and  C_18
REMARK    4  A    between atoms: C_18  and  O_19
REMARK                            x       y       z     vdW  Elec       q    Type
REMARK                         _______ _______ _______ _____ _____    ______ ____
ROOT
ATOM      1  N   UNL     1      30.902  -9.902 -19.959  0.00  0.00    -0.297 N 
ATOM      2  N   UNL     1      30.983  -7.711 -20.955  0.00  0.00    -0.229 NA
ATOM      3  C   UNL     1      31.924  -9.750 -21.939  0.00  0.00    +0.033 C 
ATOM      4  C   UNL     1      31.967 -11.101 -21.502  0.00  0.00    +0.017 C 
ATOM      5  C   UNL     1      31.253  -9.030 -20.955  0.00  0.00    +0.132 C 
ATOM      6  C   UNL     1      32.377  -9.042 -23.063  0.00  0.00    +0.004 C 
ATOM      7  C   UNL     1      31.331 -11.164 -20.280  0.00  0.00    +0.063 C 
ATOM      8  C   UNL     1      32.125  -7.672 -23.114  0.00  0.00    +0.019 C 
ATOM      9  C   UNL     1      31.443  -7.079 -22.061  0.00  0.00    +0.100 C 
ATOM     10  H   UNL     1      30.416  -9.660 -19.138  0.00  0.00    +0.154 HD
ENDROOT
BRANCH   4  11
ATOM     11  C   UNL     1      32.538 -12.255 -22.132  0.00  0.00    +0.001 C 
ATOM     12  C   UNL     1      32.357 -12.468 -23.499  0.00  0.00    +0.000 C 
ATOM     13  C   UNL     1      33.278 -13.169 -21.379  0.00  0.00    +0.000 C 
ATOM     14  C   UNL     1      32.914 -13.590 -24.112  0.00  0.00    +0.006 C 
ATOM     15  C   UNL     1      33.835 -14.292 -21.992  0.00  0.00    +0.006 C 
ATOM     16  C   UNL     1      33.653 -14.502 -23.358  0.00  0.00    +0.075 C 
BRANCH  16  18
ATOM     17  O   UNL     1      34.069 -16.000 -25.176  0.00  0.00    -0.245 OA
ATOM     18  C   UNL     1      34.234 -15.672 -23.997  0.00  0.00    +0.338 C 
BRANCH  18  19
ATOM     19  O   UNL     1      35.006 -16.401 -23.146  0.00  0.00    -0.477 OA
ATOM     20  H   UNL     1      34.613 -17.047 -22.592  0.00  0.00    +0.295 HD
ENDBRANCH  18  19
ENDBRANCH  16  18
ENDBRANCH   4  11
BRANCH   8  21
ATOM     21  C   UNL     1      32.565  -6.886 -24.244  0.00  0.00    +0.001 C 
ATOM     22  C   UNL     1      31.637  -6.421 -25.177  0.00  0.00    +0.000 C 
ATOM     23  C   UNL     1      33.919  -6.588 -24.403  0.00  0.00    +0.000 C 
ATOM     24  C   UNL     1      32.062  -5.661 -26.266  0.00  0.00    +0.000 C 
ATOM     25  C   UNL     1      34.344  -5.827 -25.493  0.00  0.00    +0.000 C 
ATOM     26  C   UNL     1      33.415  -5.364 -26.424  0.00  0.00    +0.000 C 
ENDBRANCH   8  21
TORSDOF 4
ENDMDL
MODEL 8
REMARK VINA RESULT:     -10.5      3.395      7.429
REMARK  Name = 11544170
REMARK  4 active torsions:
REMARK  status: ('A' for Active; 'I' for Inactive)
REMARK    1  A    between atoms: C_4  and  C_11
REMARK    2  A    between atoms: C_8  and  C_21
REMARK    3  A    between atoms: C_16  and  C_18
REMARK    4  A    between atoms: C_18  and  O_19
REMARK                            x       y       z     vdW  Elec       q    Type
REMARK                         _______ _______ _______ _____ _____    ______ ____
ROOT
ATOM      1  N   UNL     1      30.572 -23.510 -15.672  0.00  0.00    -0.297 N 
ATOM      2  N   UNL     1      31.814 -24.304 -13.767  0.00  0.00    -0.229 NA
ATOM      3  C   UNL     1      32.756 -23.046 -15.649  0.00  0.00    +0.033 C 
ATOM      4  C   UNL     1      32.184 -22.508 -16.832  0.00  0.00    +0.017 C 
ATOM      5  C   UNL     1      31.725 -23.663 -14.948  0.00  0.00    +0.132 C 
ATOM      6  C   UNL     1      34.038 -23.083 -15.079  0.00  0.00    +0.004 C 
ATOM      7  C   UNL     1      30.839 -22.809 -16.820  0.00  0.00    +0.063 C 
ATOM      8  C   UNL     1      34.188 -23.736 -13.856  0.00  0.00    +0.019 C 
ATOM      9  C   UNL     1      33.072 -24.311 -13.265  0.00  0.00    +0.100 C 
ATOM     10  H   UNL     1      29.687 -23.852 -15.408  0.00  0.00    +0.154 HD
ENDROOT
BRANCH   4  11
ATOM     11  C   UNL     1      32.797 -21.775 -17.902  0.00  0.00    +0.001 C 
ATOM     12  C   UNL     1      32.008 -21.037 -18.786  0.00  0.00    +0.000 C 
ATOM     13  C   UNL     1      34.184 -21.798 -18.061  0.00  0.00    +0.000 C 
ATOM     14  C   UNL     1      32.604 -20.323 -19.826  0.00  0.00    +0.006 C 
ATOM     15  C   UNL     1      34.780 -21.085 -19.101  0.00  0.00    +0.006 C 
ATOM     16  C   UNL     1      33.990 -20.347 -19.983  0.00  0.00    +0.075 C 
BRANCH  16  18
ATOM     17  O   UNL     1      35.789 -19.233 -21.097  0.00  0.00    -0.245 OA
ATOM     18  C   UNL     1      34.612 -19.603 -21.067  0.00  0.00    +0.338 C 
BRANCH  18  19
ATOM     19  O   UNL     1      33.746 -19.344 -22.085  0.00  0.00    -0.477 OA
ATOM     20  H   UNL     1      34.052 -18.927 -22.867  0.00  0.00    +0.295 HD
ENDBRANCH  18  19
ENDBRANCH  16  18
ENDBRANCH   4  11
BRANCH   8  21
ATOM     21  C   UNL     1      35.482 -23.811 -13.218  0.00  0.00    +0.001 C 
ATOM     22  C   UNL     1      36.262 -24.961 -13.349  0.00  0.00    +0.000 C 
ATOM     23  C   UNL     1      35.956 -22.732 -12.470  0.00  0.00    +0.000 C 
ATOM     24  C   UNL     1      37.511 -25.032 -12.734  0.00  0.00    +0.000 C 
ATOM     25  C   UNL     1      37.207 -22.803 -11.855  0.00  0.00    +0.000 C 
ATOM     26  C   UNL     1      37.984 -23.953 -11.987  0.00  0.00    +0.000 C 
ENDBRANCH   8  21
TORSDOF 4
ENDMDL
MODEL 9
REMARK VINA RESULT:     -10.1     11.765     15.646
REMARK  Name = 11544170
REMARK  4 active torsions:
REMARK  status: ('A' for Active; 'I' for Inactive)
REMARK    1  A    between atoms: C_4  and  C_11
REMARK    2  A    between atoms: C_8  and  C_21
REMARK    3  A    between atoms: C_16  and  C_18
REMARK    4  A    between atoms: C_18  and  O_19
REMARK                            x       y       z     vdW  Elec       q    Type
REMARK                         _______ _______ _______ _____ _____    ______ ____
ROOT
ATOM      1  N   UNL     1      30.972  -8.781 -20.458  0.00  0.00    -0.297 N 
ATOM      2  N   UNL     1      31.361 -11.157 -20.407  0.00  0.00    -0.229 NA
ATOM      3  C   UNL     1      31.954  -9.664 -22.259  0.00  0.00    +0.033 C 
ATOM      4  C   UNL     1      31.803  -8.266 -22.457  0.00  0.00    +0.017 C 
ATOM      5  C   UNL     1      31.427  -9.953 -21.004  0.00  0.00    +0.132 C 
ATOM      6  C   UNL     1      32.480 -10.733 -23.000  0.00  0.00    +0.004 C 
ATOM      7  C   UNL     1      31.196  -7.749 -21.332  0.00  0.00    +0.063 C 
ATOM      8  C   UNL     1      32.437 -12.005 -22.429  0.00  0.00    +0.019 C 
ATOM      9  C   UNL     1      31.881 -12.151 -21.166  0.00  0.00    +0.100 C 
ATOM     10  H   UNL     1      30.550  -8.693 -19.574  0.00  0.00    +0.154 HD
ENDROOT
BRANCH   4  11
ATOM     11  C   UNL     1      32.175  -7.448 -23.574  0.00  0.00    +0.001 C 
ATOM     12  C   UNL     1      31.211  -7.050 -24.503  0.00  0.00    +0.000 C 
ATOM     13  C   UNL     1      33.502  -7.045 -23.736  0.00  0.00    +0.000 C 
ATOM     14  C   UNL     1      31.572  -6.253 -25.589  0.00  0.00    +0.006 C 
ATOM     15  C   UNL     1      33.864  -6.248 -24.822  0.00  0.00    +0.006 C 
ATOM     16  C   UNL     1      32.899  -5.853 -25.748  0.00  0.00    +0.075 C 
BRANCH  16  18
ATOM     17  O   UNL     1      33.711  -3.868 -26.808  0.00  0.00    -0.245 OA
ATOM     18  C   UNL     1      33.276  -5.021 -26.881  0.00  0.00    +0.338 C 
BRANCH  18  19
ATOM     19  O   UNL     1      33.100  -5.654 -28.073  0.00  0.00    -0.477 OA
ATOM     20  H   UNL     1      33.342  -5.227 -28.871  0.00  0.00    +0.295 HD
ENDBRANCH  18  19
ENDBRANCH  16  18
ENDBRANCH   4  11
BRANCH   8  21
ATOM     21  C   UNL     1      32.962 -13.148 -23.141  0.00  0.00    +0.001 C 
ATOM     22  C   UNL     1      33.763 -14.078 -22.477  0.00  0.00    +0.000 C 
ATOM     23  C   UNL     1      32.667 -13.325 -24.493  0.00  0.00    +0.000 C 
ATOM     24  C   UNL     1      34.268 -15.181 -23.163  0.00  0.00    +0.000 C 
ATOM     25  C   UNL     1      33.173 -14.429 -25.180  0.00  0.00    +0.000 C 
ATOM     26  C   UNL     1      33.973 -15.358 -24.515  0.00  0.00    +0.000 C 
ENDBRANCH   8  21
TORSDOF 4
ENDMDL
