MODEL 1
REMARK VINA RESULT:     -13.7      0.000      0.000
REMARK  Name = 6914573
REMARK  5 active torsions:
REMARK  status: ('A' for Active; 'I' for Inactive)
REMARK    1  A    between atoms: N_1  and  N_4
REMARK    2  A    between atoms: N_1  and  S_17
REMARK    3  A    between atoms: C_5  and  C_11
REMARK    4  A    between atoms: S_17  and  C_20
REMARK    5  A    between atoms: C_21  and  C_29
REMARK                            x       y       z     vdW  Elec       q    Type
REMARK                         _______ _______ _______ _____ _____    ______ ____
ROOT
ATOM      1  N   UNL     1      34.989 -20.972 -20.236  0.00  0.00    -0.108 NA
ATOM      2  H   UNL     1      35.166 -21.619 -21.004  0.00  0.00    +0.172 HD
ENDROOT
BRANCH   1   4
ATOM      3  O   UNL     1      36.567 -18.718 -20.220  0.00  0.00    -0.265 OA
ATOM      4  N   UNL     1      34.582 -19.705 -20.812  0.00  0.00    -0.225 N 
ATOM      5  C   UNL     1      35.442 -18.591 -20.768  0.00  0.00    +0.295 C 
ATOM      6  H   UNL     1      33.698 -19.623 -21.237  0.00  0.00    +0.171 HD
BRANCH   5  11
ATOM      7 CL   UNL     1      32.937 -12.300 -24.302  0.00  0.00    -0.082 Cl
ATOM      8  O   UNL     1      34.640 -16.363 -20.500  0.00  0.00    -0.449 OA
ATOM      9  C   UNL     1      34.269 -15.679 -22.621  0.00  0.00    +0.039 C 
ATOM     10  C   UNL     1      34.216 -15.327 -21.276  0.00  0.00    +0.146 C 
ATOM     11  C   UNL     1      34.965 -17.379 -21.341  0.00  0.00    +0.200 C 
ATOM     12  C   UNL     1      34.757 -17.013 -22.651  0.00  0.00    +0.045 C 
ATOM     13  C   UNL     1      33.869 -14.733 -23.579  0.00  0.00    +0.015 C 
ATOM     14  C   UNL     1      33.786 -14.086 -20.810  0.00  0.00    +0.038 C 
ATOM     15  C   UNL     1      33.432 -13.475 -23.141  0.00  0.00    +0.058 C 
ATOM     16  C   UNL     1      33.392 -13.160 -21.780  0.00  0.00    +0.015 C 
ENDBRANCH   5  11
ENDBRANCH   1   4
BRANCH   1  17
ATOM     17  S   UNL     1      33.878 -21.715 -19.177  0.00  0.00    +0.075 S 
ATOM     18  O   UNL     1      32.778 -20.805 -18.924  0.00  0.00    -0.152 OA
ATOM     19  O   UNL     1      33.618 -23.067 -19.635  0.00  0.00    -0.152 OA
BRANCH  17  20
ATOM     20  C   UNL     1      34.816 -21.822 -17.680  0.00  0.00    +0.127 C 
ATOM     21  C   UNL     1      34.272 -22.404 -16.548  0.00  0.00    +0.090 C 
ATOM     22  C   UNL     1      36.103 -21.308 -17.680  0.00  0.00    +0.020 C 
ATOM     23  C   UNL     1      35.034 -22.476 -15.382  0.00  0.00    +0.005 C 
ATOM     24  C   UNL     1      36.866 -21.381 -16.514  0.00  0.00    +0.001 C 
ATOM     25  C   UNL     1      36.332 -21.964 -15.366  0.00  0.00    +0.000 C 
BRANCH  21  29
ATOM     26  F   UNL     1      31.918 -22.027 -16.761  0.00  0.00    -0.166 F 
ATOM     27  F   UNL     1      32.679 -23.929 -17.475  0.00  0.00    -0.166 F 
ATOM     28  F   UNL     1      32.568 -23.538 -15.338  0.00  0.00    -0.166 F 
ATOM     29  C   UNL     1      32.886 -22.962 -16.533  0.00  0.00    +0.420 C 
ENDBRANCH  21  29
ENDBRANCH  17  20
ENDBRANCH   1  17
TORSDOF 5
ENDMDL
MODEL 2
REMARK VINA RESULT:     -11.9      1.370      1.946
REMARK  Name = 6914573
REMARK  5 active torsions:
REMARK  status: ('A' for Active; 'I' for Inactive)
REMARK    1  A    between atoms: N_1  and  N_4
REMARK    2  A    between atoms: N_1  and  S_17
REMARK    3  A    between atoms: C_5  and  C_11
REMARK    4  A    between atoms: S_17  and  C_20
REMARK    5  A    between atoms: C_21  and  C_29
REMARK                            x       y       z     vdW  Elec       q    Type
REMARK                         _______ _______ _______ _____ _____    ______ ____
ROOT
ATOM      1  N   UNL     1      35.966 -19.582 -20.039  0.00  0.00    -0.108 NA
ATOM      2  H   UNL     1      36.598 -19.940 -20.755  0.00  0.00    +0.172 HD
ENDROOT
BRANCH   1   4
ATOM      3  O   UNL     1      35.287 -19.070 -22.656  0.00  0.00    -0.265 OA
ATOM      4  N   UNL     1      35.455 -18.306 -20.500  0.00  0.00    -0.225 N 
ATOM      5  C   UNL     1      35.127 -18.114 -21.856  0.00  0.00    +0.295 C 
ATOM      6  H   UNL     1      35.335 -17.568 -19.860  0.00  0.00    +0.171 HD
BRANCH   5  11
ATOM      7 CL   UNL     1      32.632 -11.062 -23.400  0.00  0.00    -0.082 Cl
ATOM      8  O   UNL     1      34.224 -16.658 -23.512  0.00  0.00    -0.449 OA
ATOM      9  C   UNL     1      33.975 -14.700 -22.413  0.00  0.00    +0.039 C 
ATOM     10  C   UNL     1      33.815 -15.364 -23.625  0.00  0.00    +0.146 C 
ATOM     11  C   UNL     1      34.646 -16.829 -22.232  0.00  0.00    +0.200 C 
ATOM     12  C   UNL     1      34.515 -15.661 -21.516  0.00  0.00    +0.045 C 
ATOM     13  C   UNL     1      33.606 -13.347 -22.333  0.00  0.00    +0.015 C 
ATOM     14  C   UNL     1      33.308 -14.769 -24.779  0.00  0.00    +0.038 C 
ATOM     15  C   UNL     1      33.092 -12.722 -23.477  0.00  0.00    +0.058 C 
ATOM     16  C   UNL     1      32.947 -13.422 -24.677  0.00  0.00    +0.015 C 
ENDBRANCH   5  11
ENDBRANCH   1   4
BRANCH   1  17
ATOM     17  S   UNL     1      34.807 -20.792 -19.718  0.00  0.00    +0.075 S 
ATOM     18  O   UNL     1      33.494 -20.183 -19.634  0.00  0.00    -0.152 OA
ATOM     19  O   UNL     1      35.038 -21.916 -20.605  0.00  0.00    -0.152 OA
BRANCH  17  20
ATOM     20  C   UNL     1      35.251 -21.295 -18.080  0.00  0.00    +0.127 C 
ATOM     21  C   UNL     1      34.390 -22.073 -17.326  0.00  0.00    +0.090 C 
ATOM     22  C   UNL     1      36.479 -20.888 -17.583  0.00  0.00    +0.020 C 
ATOM     23  C   UNL     1      34.765 -22.456 -16.038  0.00  0.00    +0.005 C 
ATOM     24  C   UNL     1      36.855 -21.271 -16.296  0.00  0.00    +0.001 C 
ATOM     25  C   UNL     1      35.998 -22.056 -15.523  0.00  0.00    +0.000 C 
BRANCH  21  29
ATOM     26  F   UNL     1      32.416 -23.391 -17.018  0.00  0.00    -0.166 F 
ATOM     27  F   UNL     1      32.184 -21.495 -18.047  0.00  0.00    -0.166 F 
ATOM     28  F   UNL     1      33.163 -23.161 -19.048  0.00  0.00    -0.166 F 
ATOM     29  C   UNL     1      33.064 -22.520 -17.847  0.00  0.00    +0.420 C 
ENDBRANCH  21  29
ENDBRANCH  17  20
ENDBRANCH   1  17
TORSDOF 5
ENDMDL
MODEL 3
REMARK VINA RESULT:     -11.6      3.614      5.065
REMARK  Name = 6914573
REMARK  5 active torsions:
REMARK  status: ('A' for Active; 'I' for Inactive)
REMARK    1  A    between atoms: N_1  and  N_4
REMARK    2  A    between atoms: N_1  and  S_17
REMARK    3  A    between atoms: C_5  and  C_11
REMARK    4  A    between atoms: S_17  and  C_20
REMARK    5  A    between atoms: C_21  and  C_29
REMARK                            x       y       z     vdW  Elec       q    Type
REMARK                         _______ _______ _______ _____ _____    ______ ____
ROOT
ATOM      1  N   UNL     1      34.168 -23.344 -16.225  0.00  0.00    -0.108 NA
ATOM      2  H   UNL     1      33.195 -23.638 -16.299  0.00  0.00    +0.172 HD
ENDROOT
BRANCH   1   4
ATOM      3  O   UNL     1      33.120 -23.315 -18.770  0.00  0.00    -0.265 OA
ATOM      4  N   UNL     1      34.373 -22.258 -17.165  0.00  0.00    -0.225 N 
ATOM      5  C   UNL     1      33.806 -22.310 -18.452  0.00  0.00    +0.295 C 
ATOM      6  H   UNL     1      34.912 -21.478 -16.899  0.00  0.00    +0.171 HD
BRANCH   5  11
ATOM      7 CL   UNL     1      34.701 -16.410 -23.220  0.00  0.00    -0.082 Cl
ATOM      8  O   UNL     1      35.348 -20.782 -19.433  0.00  0.00    -0.449 OA
ATOM      9  C   UNL     1      34.045 -19.498 -20.760  0.00  0.00    +0.039 C 
ATOM     10  C   UNL     1      35.339 -19.738 -20.309  0.00  0.00    +0.146 C 
ATOM     11  C   UNL     1      34.065 -21.212 -19.320  0.00  0.00    +0.200 C 
ATOM     12  C   UNL     1      33.226 -20.461 -20.111  0.00  0.00    +0.045 C 
ATOM     13  C   UNL     1      33.835 -18.453 -21.676  0.00  0.00    +0.015 C 
ATOM     14  C   UNL     1      36.454 -19.003 -20.708  0.00  0.00    +0.038 C 
ATOM     15  C   UNL     1      34.938 -17.697 -22.097  0.00  0.00    +0.058 C 
ATOM     16  C   UNL     1      36.222 -17.968 -21.620  0.00  0.00    +0.015 C 
ENDBRANCH   5  11
ENDBRANCH   1   4
BRANCH   1  17
ATOM     17  S   UNL     1      34.484 -22.999 -14.585  0.00  0.00    +0.075 S 
ATOM     18  O   UNL     1      35.319 -21.816 -14.500  0.00  0.00    -0.152 OA
ATOM     19  O   UNL     1      33.244 -23.074 -13.838  0.00  0.00    -0.152 OA
BRANCH  17  20
ATOM     20  C   UNL     1      35.488 -24.377 -14.110  0.00  0.00    +0.127 C 
ATOM     21  C   UNL     1      36.004 -24.461 -12.828  0.00  0.00    +0.090 C 
ATOM     22  C   UNL     1      35.735 -25.360 -15.054  0.00  0.00    +0.020 C 
ATOM     23  C   UNL     1      36.792 -25.559 -12.479  0.00  0.00    +0.005 C 
ATOM     24  C   UNL     1      36.522 -26.458 -14.705  0.00  0.00    +0.001 C 
ATOM     25  C   UNL     1      37.050 -26.558 -13.418  0.00  0.00    +0.000 C 
BRANCH  21  29
ATOM     26  F   UNL     1      36.318 -22.206 -12.093  0.00  0.00    -0.166 F 
ATOM     27  F   UNL     1      34.420 -23.141 -11.617  0.00  0.00    -0.166 F 
ATOM     28  F   UNL     1      36.224 -23.754 -10.568  0.00  0.00    -0.166 F 
ATOM     29  C   UNL     1      35.746 -23.410 -11.799  0.00  0.00    +0.420 C 
ENDBRANCH  21  29
ENDBRANCH  17  20
ENDBRANCH   1  17
TORSDOF 5
ENDMDL
MODEL 4
REMARK VINA RESULT:     -10.9      7.373     11.237
REMARK  Name = 6914573
REMARK  5 active torsions:
REMARK  status: ('A' for Active; 'I' for Inactive)
REMARK    1  A    between atoms: N_1  and  N_4
REMARK    2  A    between atoms: N_1  and  S_17
REMARK    3  A    between atoms: C_5  and  C_11
REMARK    4  A    between atoms: S_17  and  C_20
REMARK    5  A    between atoms: C_21  and  C_29
REMARK                            x       y       z     vdW  Elec       q    Type
REMARK                         _______ _______ _______ _____ _____    ______ ____
ROOT
ATOM      1  N   UNL     1      32.276 -11.077 -23.051  0.00  0.00    -0.108 NA
ATOM      2  H   UNL     1      33.055 -10.513 -23.390  0.00  0.00    +0.172 HD
ENDROOT
BRANCH   1   4
ATOM      3  O   UNL     1      32.844 -13.138 -24.785  0.00  0.00    -0.265 OA
ATOM      4  N   UNL     1      32.811 -12.357 -22.628  0.00  0.00    -0.225 N 
ATOM      5  C   UNL     1      33.079 -13.367 -23.572  0.00  0.00    +0.295 C 
ATOM      6  H   UNL     1      32.990 -12.520 -21.674  0.00  0.00    +0.171 HD
BRANCH   5  11
ATOM      7 CL   UNL     1      35.946 -19.739 -20.485  0.00  0.00    -0.082 Cl
ATOM      8  O   UNL     1      33.500 -15.693 -23.878  0.00  0.00    -0.449 OA
ATOM      9  C   UNL     1      34.490 -16.308 -21.943  0.00  0.00    +0.039 C 
ATOM     10  C   UNL     1      34.047 -16.734 -23.191  0.00  0.00    +0.146 C 
ATOM     11  C   UNL     1      33.589 -14.600 -23.075  0.00  0.00    +0.200 C 
ATOM     12  C   UNL     1      34.187 -14.921 -21.879  0.00  0.00    +0.045 C 
ATOM     13  C   UNL     1      35.088 -17.246 -21.085  0.00  0.00    +0.015 C 
ATOM     14  C   UNL     1      34.158 -18.044 -23.653  0.00  0.00    +0.038 C 
ATOM     15  C   UNL     1      35.214 -18.572 -21.523  0.00  0.00    +0.058 C 
ATOM     16  C   UNL     1      34.756 -18.961 -22.784  0.00  0.00    +0.015 C 
ENDBRANCH   5  11
ENDBRANCH   1   4
BRANCH   1  17
ATOM     17  S   UNL     1      31.454 -10.169 -21.865  0.00  0.00    +0.075 S 
ATOM     18  O   UNL     1      30.073  -9.994 -22.271  0.00  0.00    -0.152 OA
ATOM     19  O   UNL     1      31.769 -10.706 -20.555  0.00  0.00    -0.152 OA
BRANCH  17  20
ATOM     20  C   UNL     1      32.240  -8.590 -22.006  0.00  0.00    +0.127 C 
ATOM     21  C   UNL     1      32.189  -7.683 -20.961  0.00  0.00    +0.090 C 
ATOM     22  C   UNL     1      32.903  -8.294 -23.186  0.00  0.00    +0.020 C 
ATOM     23  C   UNL     1      32.817  -6.445 -21.098  0.00  0.00    +0.005 C 
ATOM     24  C   UNL     1      33.532  -7.057 -23.324  0.00  0.00    +0.001 C 
ATOM     25  C   UNL     1      33.490  -6.133 -22.280  0.00  0.00    +0.000 C 
BRANCH  21  29
ATOM     26  F   UNL     1      30.291  -8.637 -19.859  0.00  0.00    -0.166 F 
ATOM     27  F   UNL     1      32.199  -8.779 -18.835  0.00  0.00    -0.166 F 
ATOM     28  F   UNL     1      31.179  -6.862 -18.971  0.00  0.00    -0.166 F 
ATOM     29  C   UNL     1      31.479  -7.987 -19.683  0.00  0.00    +0.420 C 
ENDBRANCH  21  29
ENDBRANCH  17  20
ENDBRANCH   1  17
TORSDOF 5
ENDMDL
MODEL 5
REMARK VINA RESULT:     -10.8      2.093      2.684
REMARK  Name = 6914573
REMARK  5 active torsions:
REMARK  status: ('A' for Active; 'I' for Inactive)
REMARK    1  A    between atoms: N_1  and  N_4
REMARK    2  A    between atoms: N_1  and  S_17
REMARK    3  A    between atoms: C_5  and  C_11
REMARK    4  A    between atoms: S_17  and  C_20
REMARK    5  A    between atoms: C_21  and  C_29
REMARK                            x       y       z     vdW  Elec       q    Type
REMARK                         _______ _______ _______ _____ _____    ______ ____
ROOT
ATOM      1  N   UNL     1      34.514 -20.687 -20.288  0.00  0.00    -0.108 NA
ATOM      2  H   UNL     1      33.632 -21.111 -20.000  0.00  0.00    +0.172 HD
ENDROOT
BRANCH   1   4
ATOM      3  O   UNL     1      35.700 -19.331 -22.368  0.00  0.00    -0.265 OA
ATOM      4  N   UNL     1      34.256 -19.292 -20.586  0.00  0.00    -0.225 N 
ATOM      5  C   UNL     1      34.899 -18.661 -21.668  0.00  0.00    +0.295 C 
ATOM      6  H   UNL     1      33.625 -18.782 -20.028  0.00  0.00    +0.171 HD
BRANCH   5  11
ATOM      7 CL   UNL     1      33.347 -11.371 -23.337  0.00  0.00    -0.082 Cl
ATOM      8  O   UNL     1      34.422 -16.495 -20.797  0.00  0.00    -0.449 OA
ATOM      9  C   UNL     1      34.169 -15.227 -22.649  0.00  0.00    +0.039 C 
ATOM     10  C   UNL     1      34.157 -15.241 -21.258  0.00  0.00    +0.146 C 
ATOM     11  C   UNL     1      34.604 -17.286 -21.886  0.00  0.00    +0.200 C 
ATOM     12  C   UNL     1      34.461 -16.559 -23.045  0.00  0.00    +0.045 C 
ATOM     13  C   UNL     1      33.916 -14.013 -23.311  0.00  0.00    +0.015 C 
ATOM     14  C   UNL     1      33.906 -14.121 -20.468  0.00  0.00    +0.038 C 
ATOM     15  C   UNL     1      33.661 -12.869 -22.543  0.00  0.00    +0.058 C 
ATOM     16  C   UNL     1      33.656 -12.924 -21.147  0.00  0.00    +0.015 C 
ENDBRANCH   5  11
ENDBRANCH   1   4
BRANCH   1  17
ATOM     17  S   UNL     1      35.663 -21.003 -19.068  0.00  0.00    +0.075 S 
ATOM     18  O   UNL     1      36.587 -22.018 -19.536  0.00  0.00    -0.152 OA
ATOM     19  O   UNL     1      36.162 -19.743 -18.551  0.00  0.00    -0.152 OA
BRANCH  17  20
ATOM     20  C   UNL     1      34.666 -21.748 -17.811  0.00  0.00    +0.127 C 
ATOM     21  C   UNL     1      35.177 -21.962 -16.542  0.00  0.00    +0.090 C 
ATOM     22  C   UNL     1      33.367 -22.106 -18.136  0.00  0.00    +0.020 C 
ATOM     23  C   UNL     1      34.369 -22.551 -15.570  0.00  0.00    +0.005 C 
ATOM     24  C   UNL     1      32.558 -22.694 -17.163  0.00  0.00    +0.001 C 
ATOM     25  C   UNL     1      33.059 -22.916 -15.881  0.00  0.00    +0.000 C 
BRANCH  21  29
ATOM     26  F   UNL     1      36.841 -20.253 -16.347  0.00  0.00    -0.166 F 
ATOM     27  F   UNL     1      36.888 -21.846 -14.874  0.00  0.00    -0.166 F 
ATOM     28  F   UNL     1      37.508 -22.242 -16.921  0.00  0.00    -0.166 F 
ATOM     29  C   UNL     1      36.575 -21.582 -16.177  0.00  0.00    +0.420 C 
ENDBRANCH  21  29
ENDBRANCH  17  20
ENDBRANCH   1  17
TORSDOF 5
ENDMDL
