MODEL 1
REMARK VINA RESULT:     -13.1      0.000      0.000
REMARK  Name = 15602701
REMARK  5 active torsions:
REMARK  status: ('A' for Active; 'I' for Inactive)
REMARK    1  A    between atoms: N_5  and  C_12
REMARK    2  A    between atoms: C_6  and  C_22
REMARK    3  A    between atoms: C_13  and  C_21
REMARK    4  A    between atoms: C_22  and  C_23
REMARK    5  A    between atoms: C_23  and  N_24
REMARK                            x       y       z     vdW  Elec       q    Type
REMARK                         _______ _______ _______ _____ _____    ______ ____
ROOT
ATOM      1  S   UNL     1      36.075 -19.844 -19.898  0.00  0.00    -0.056 S 
ATOM      2  O   UNL     1      34.925 -22.747 -16.461  0.00  0.00    -0.252 OA
ATOM      3  N   UNL     1      34.158 -21.247 -18.878  0.00  0.00    -0.223 NA
ATOM      4  N   UNL     1      36.288 -21.337 -17.755  0.00  0.00    -0.248 N 
ATOM      5  N   UNL     1      37.164 -22.396 -15.893  0.00  0.00    -0.268 N 
ATOM      6  C   UNL     1      34.552 -19.820 -20.647  0.00  0.00    +0.031 C 
ATOM      7  C   UNL     1      33.658 -20.603 -19.993  0.00  0.00    +0.103 C 
ATOM      8  C   UNL     1      35.423 -20.921 -18.731  0.00  0.00    +0.166 C 
ATOM      9  C   UNL     1      36.011 -22.219 -16.676  0.00  0.00    +0.310 C 
ATOM     10  H   UNL     1      37.207 -20.985 -17.805  0.00  0.00    +0.158 HD
ATOM     11  H   UNL     1      37.965 -21.906 -16.188  0.00  0.00    +0.156 HD
ENDROOT
BRANCH   5  12
ATOM     12  C   UNL     1      37.315 -23.191 -14.732  0.00  0.00    +0.052 C 
ATOM     13  C   UNL     1      36.644 -23.744 -12.495  0.00  0.00    +0.073 C 
ATOM     14  C   UNL     1      36.495 -22.959 -13.639  0.00  0.00    +0.019 C 
ATOM     15  C   UNL     1      38.278 -24.186 -14.712  0.00  0.00    +0.015 C 
ATOM     16  C   UNL     1      37.609 -24.750 -12.460  0.00  0.00    +0.004 C 
ATOM     17  C   UNL     1      38.427 -24.970 -13.568  0.00  0.00    +0.001 C 
BRANCH  13  21
ATOM     18  F   UNL     1      34.524 -23.047 -11.631  0.00  0.00    -0.166 F 
ATOM     19  F   UNL     1      35.551 -24.629 -10.561  0.00  0.00    -0.166 F 
ATOM     20  F   UNL     1      36.289 -22.587 -10.448  0.00  0.00    -0.166 F 
ATOM     21  C   UNL     1      35.769 -23.508 -11.310  0.00  0.00    +0.419 C 
ENDBRANCH  13  21
ENDBRANCH   5  12
BRANCH   6  22
ATOM     22  C   UNL     1      34.343 -18.983 -21.887  0.00  0.00    +0.056 C 
BRANCH  22  23
ATOM     23  C   UNL     1      35.245 -17.750 -21.923  0.00  0.00    +0.093 C 
BRANCH  23  24
ATOM     24  N   UNL     1      34.638 -16.690 -22.674  0.00  0.00    -0.320 N 
ATOM     25  N   UNL     1      33.319 -14.336 -24.158  0.00  0.00    -0.220 N 
ATOM     26  N   UNL     1      32.724 -13.164 -24.454  0.00  0.00    -0.178 NA
ATOM     27  N   UNL     1      34.272 -15.322 -20.748  0.00  0.00    -0.232 NA
ATOM     28  N   UNL     1      33.219 -13.127 -20.885  0.00  0.00    -0.245 NA
ATOM     29  C   UNL     1      33.585 -14.499 -22.830  0.00  0.00    +0.185 C 
ATOM     30  C   UNL     1      34.167 -15.506 -22.083  0.00  0.00    +0.128 C 
ATOM     31  C   UNL     1      33.129 -13.342 -22.218  0.00  0.00    +0.103 C 
ATOM     32  C   UNL     1      32.610 -12.561 -23.265  0.00  0.00    +0.134 C 
ATOM     33  C   UNL     1      33.600 -15.262 -25.230  0.00  0.00    +0.135 C 
ATOM     34  C   UNL     1      33.798 -14.160 -20.238  0.00  0.00    +0.251 C 
ATOM     35  H   UNL     1      34.548 -16.797 -23.648  0.00  0.00    +0.148 HD
ENDBRANCH  23  24
ENDBRANCH  22  23
ENDBRANCH   6  22
TORSDOF 5
ENDMDL
MODEL 2
REMARK VINA RESULT:     -13.0      1.936      2.373
REMARK  Name = 15602701
REMARK  5 active torsions:
REMARK  status: ('A' for Active; 'I' for Inactive)
REMARK    1  A    between atoms: N_5  and  C_12
REMARK    2  A    between atoms: C_6  and  C_22
REMARK    3  A    between atoms: C_13  and  C_21
REMARK    4  A    between atoms: C_22  and  C_23
REMARK    5  A    between atoms: C_23  and  N_24
REMARK                            x       y       z     vdW  Elec       q    Type
REMARK                         _______ _______ _______ _____ _____    ______ ____
ROOT
ATOM      1  S   UNL     1      35.743 -19.390 -20.651  0.00  0.00    -0.056 S 
ATOM      2  O   UNL     1      34.763 -22.205 -17.091  0.00  0.00    -0.252 OA
ATOM      3  N   UNL     1      33.887 -20.793 -19.524  0.00  0.00    -0.223 NA
ATOM      4  N   UNL     1      36.056 -20.813 -18.472  0.00  0.00    -0.248 N 
ATOM      5  N   UNL     1      37.014 -21.799 -16.611  0.00  0.00    -0.268 N 
ATOM      6  C   UNL     1      34.194 -19.415 -21.347  0.00  0.00    +0.031 C 
ATOM      7  C   UNL     1      33.338 -20.192 -20.639  0.00  0.00    +0.103 C 
ATOM      8  C   UNL     1      35.150 -20.441 -19.431  0.00  0.00    +0.166 C 
ATOM      9  C   UNL     1      35.831 -21.666 -17.358  0.00  0.00    +0.310 C 
ATOM     10  H   UNL     1      36.966 -20.447 -18.566  0.00  0.00    +0.158 HD
ATOM     11  H   UNL     1      37.796 -21.305 -16.948  0.00  0.00    +0.156 HD
ENDROOT
BRANCH   5  12
ATOM     12  C   UNL     1      37.219 -22.555 -15.433  0.00  0.00    +0.052 C 
ATOM     13  C   UNL     1      38.342 -24.336 -14.282  0.00  0.00    +0.073 C 
ATOM     14  C   UNL     1      38.139 -23.591 -15.444  0.00  0.00    +0.019 C 
ATOM     15  C   UNL     1      36.498 -22.243 -14.293  0.00  0.00    +0.015 C 
ATOM     16  C   UNL     1      37.623 -24.034 -13.125  0.00  0.00    +0.004 C 
ATOM     17  C   UNL     1      36.701 -22.988 -13.131  0.00  0.00    +0.001 C 
BRANCH  13  21
ATOM     18  F   UNL     1      38.753 -26.693 -14.267  0.00  0.00    -0.166 F 
ATOM     19  F   UNL     1      40.160 -25.456 -15.359  0.00  0.00    -0.166 F 
ATOM     20  F   UNL     1      40.149 -25.425 -13.185  0.00  0.00    -0.166 F 
ATOM     21  C   UNL     1      39.329 -25.455 -14.275  0.00  0.00    +0.419 C 
ENDBRANCH  13  21
ENDBRANCH   5  12
BRANCH   6  22
ATOM     22  C   UNL     1      33.929 -18.620 -22.604  0.00  0.00    +0.056 C 
BRANCH  22  23
ATOM     23  C   UNL     1      35.001 -17.564 -22.870  0.00  0.00    +0.093 C 
BRANCH  23  24
ATOM     24  N   UNL     1      34.417 -16.346 -23.348  0.00  0.00    -0.320 N 
ATOM     25  N   UNL     1      33.160 -13.676 -24.232  0.00  0.00    -0.220 N 
ATOM     26  N   UNL     1      32.627 -12.440 -24.245  0.00  0.00    -0.178 NA
ATOM     27  N   UNL     1      34.283 -15.370 -21.170  0.00  0.00    -0.232 NA
ATOM     28  N   UNL     1      33.376 -13.139 -20.791  0.00  0.00    -0.245 NA
ATOM     29  C   UNL     1      33.508 -14.114 -22.988  0.00  0.00    +0.185 C 
ATOM     30  C   UNL     1      34.071 -15.279 -22.502  0.00  0.00    +0.128 C 
ATOM     31  C   UNL     1      33.177 -13.080 -22.128  0.00  0.00    +0.103 C 
ATOM     32  C   UNL     1      32.640 -12.080 -22.957  0.00  0.00    +0.134 C 
ATOM     33  C   UNL     1      33.301 -14.385 -25.483  0.00  0.00    +0.135 C 
ATOM     34  C   UNL     1      33.927 -14.310 -20.406  0.00  0.00    +0.251 C 
ATOM     35  H   UNL     1      34.251 -16.252 -24.314  0.00  0.00    +0.148 HD
ENDBRANCH  23  24
ENDBRANCH  22  23
ENDBRANCH   6  22
TORSDOF 5
ENDMDL
MODEL 3
REMARK VINA RESULT:     -12.9      0.597      1.788
REMARK  Name = 15602701
REMARK  5 active torsions:
REMARK  status: ('A' for Active; 'I' for Inactive)
REMARK    1  A    between atoms: N_5  and  C_12
REMARK    2  A    between atoms: C_6  and  C_22
REMARK    3  A    between atoms: C_13  and  C_21
REMARK    4  A    between atoms: C_22  and  C_23
REMARK    5  A    between atoms: C_23  and  N_24
REMARK                            x       y       z     vdW  Elec       q    Type
REMARK                         _______ _______ _______ _____ _____    ______ ____
ROOT
ATOM      1  S   UNL     1      36.054 -19.869 -19.906  0.00  0.00    -0.056 S 
ATOM      2  O   UNL     1      34.895 -22.709 -16.421  0.00  0.00    -0.252 OA
ATOM      3  N   UNL     1      34.120 -21.208 -18.834  0.00  0.00    -0.223 NA
ATOM      4  N   UNL     1      36.270 -21.350 -17.755  0.00  0.00    -0.248 N 
ATOM      5  N   UNL     1      37.155 -22.418 -15.903  0.00  0.00    -0.268 N 
ATOM      6  C   UNL     1      34.516 -19.807 -20.623  0.00  0.00    +0.031 C 
ATOM      7  C   UNL     1      33.614 -20.559 -19.943  0.00  0.00    +0.103 C 
ATOM      8  C   UNL     1      35.396 -20.917 -18.717  0.00  0.00    +0.166 C 
ATOM      9  C   UNL     1      35.991 -22.215 -16.663  0.00  0.00    +0.310 C 
ATOM     10  H   UNL     1      37.197 -21.025 -17.829  0.00  0.00    +0.158 HD
ATOM     11  H   UNL     1      37.964 -21.954 -16.220  0.00  0.00    +0.156 HD
ENDROOT
BRANCH   5  12
ATOM     12  C   UNL     1      37.308 -23.208 -14.739  0.00  0.00    +0.052 C 
ATOM     13  C   UNL     1      36.638 -23.752 -12.500  0.00  0.00    +0.073 C 
ATOM     14  C   UNL     1      36.487 -22.974 -13.648  0.00  0.00    +0.019 C 
ATOM     15  C   UNL     1      38.275 -24.200 -14.715  0.00  0.00    +0.015 C 
ATOM     16  C   UNL     1      37.607 -24.756 -12.460  0.00  0.00    +0.004 C 
ATOM     17  C   UNL     1      38.426 -24.979 -13.567  0.00  0.00    +0.001 C 
BRANCH  13  21
ATOM     18  F   UNL     1      34.502 -23.100 -11.641  0.00  0.00    -0.166 F 
ATOM     19  F   UNL     1      35.583 -24.623 -10.538  0.00  0.00    -0.166 F 
ATOM     20  F   UNL     1      36.259 -22.557 -10.480  0.00  0.00    -0.166 F 
ATOM     21  C   UNL     1      35.763 -23.515 -11.316  0.00  0.00    +0.419 C 
ENDBRANCH  13  21
ENDBRANCH   5  12
BRANCH   6  22
ATOM     22  C   UNL     1      34.305 -18.975 -21.866  0.00  0.00    +0.056 C 
BRANCH  22  23
ATOM     23  C   UNL     1      35.357 -17.878 -22.025  0.00  0.00    +0.093 C 
BRANCH  23  24
ATOM     24  N   UNL     1      34.771 -16.578 -21.884  0.00  0.00    -0.320 N 
ATOM     25  N   UNL     1      33.478 -13.787 -21.726  0.00  0.00    -0.220 N 
ATOM     26  N   UNL     1      32.863 -12.628 -22.029  0.00  0.00    -0.178 NA
ATOM     27  N   UNL     1      34.182 -16.417 -24.195  0.00  0.00    -0.232 NA
ATOM     28  N   UNL     1      33.051 -14.466 -25.123  0.00  0.00    -0.245 NA
ATOM     29  C   UNL     1      33.640 -14.621 -22.793  0.00  0.00    +0.185 C 
ATOM     30  C   UNL     1      34.198 -15.875 -22.957  0.00  0.00    +0.128 C 
ATOM     31  C   UNL     1      33.083 -13.952 -23.871  0.00  0.00    +0.103 C 
ATOM     32  C   UNL     1      32.623 -12.735 -23.341  0.00  0.00    +0.134 C 
ATOM     33  C   UNL     1      33.890 -14.017 -20.361  0.00  0.00    +0.135 C 
ATOM     34  C   UNL     1      33.618 -15.690 -25.188  0.00  0.00    +0.251 C 
ATOM     35  H   UNL     1      34.769 -16.159 -20.993  0.00  0.00    +0.148 HD
ENDBRANCH  23  24
ENDBRANCH  22  23
ENDBRANCH   6  22
TORSDOF 5
ENDMDL
MODEL 4
REMARK VINA RESULT:     -12.9      1.969      2.996
REMARK  Name = 15602701
REMARK  5 active torsions:
REMARK  status: ('A' for Active; 'I' for Inactive)
REMARK    1  A    between atoms: N_5  and  C_12
REMARK    2  A    between atoms: C_6  and  C_22
REMARK    3  A    between atoms: C_13  and  C_21
REMARK    4  A    between atoms: C_22  and  C_23
REMARK    5  A    between atoms: C_23  and  N_24
REMARK                            x       y       z     vdW  Elec       q    Type
REMARK                         _______ _______ _______ _____ _____    ______ ____
ROOT
ATOM      1  S   UNL     1      35.799 -19.262 -20.699  0.00  0.00    -0.056 S 
ATOM      2  O   UNL     1      34.770 -22.147 -17.209  0.00  0.00    -0.252 OA
ATOM      3  N   UNL     1      33.944 -20.732 -19.657  0.00  0.00    -0.223 NA
ATOM      4  N   UNL     1      36.072 -20.701 -18.526  0.00  0.00    -0.248 N 
ATOM      5  N   UNL     1      36.988 -21.682 -16.641  0.00  0.00    -0.268 N 
ATOM      6  C   UNL     1      34.279 -19.323 -21.453  0.00  0.00    +0.031 C 
ATOM      7  C   UNL     1      33.419 -20.133 -20.786  0.00  0.00    +0.103 C 
ATOM      8  C   UNL     1      35.192 -20.345 -19.513  0.00  0.00    +0.166 C 
ATOM      9  C   UNL     1      35.831 -21.574 -17.430  0.00  0.00    +0.310 C 
ATOM     10  H   UNL     1      36.974 -20.309 -18.581  0.00  0.00    +0.158 HD
ATOM     11  H   UNL     1      37.767 -21.161 -16.943  0.00  0.00    +0.156 HD
ENDROOT
BRANCH   5  12
ATOM     12  C   UNL     1      37.171 -22.446 -15.464  0.00  0.00    +0.052 C 
ATOM     13  C   UNL     1      38.256 -24.249 -14.311  0.00  0.00    +0.073 C 
ATOM     14  C   UNL     1      38.075 -23.496 -15.471  0.00  0.00    +0.019 C 
ATOM     15  C   UNL     1      36.446 -22.127 -14.329  0.00  0.00    +0.015 C 
ATOM     16  C   UNL     1      37.532 -23.941 -13.159  0.00  0.00    +0.004 C 
ATOM     17  C   UNL     1      36.627 -22.880 -13.168  0.00  0.00    +0.001 C 
BRANCH  13  21
ATOM     18  F   UNL     1      40.068 -25.393 -15.375  0.00  0.00    -0.166 F 
ATOM     19  F   UNL     1      40.042 -25.394 -13.207  0.00  0.00    -0.166 F 
ATOM     20  F   UNL     1      38.608 -26.601 -14.309  0.00  0.00    -0.166 F 
ATOM     21  C   UNL     1      39.225 -25.383 -14.301  0.00  0.00    +0.419 C 
ENDBRANCH  13  21
ENDBRANCH   5  12
BRANCH   6  22
ATOM     22  C   UNL     1      34.037 -18.521 -22.710  0.00  0.00    +0.056 C 
BRANCH  22  23
ATOM     23  C   UNL     1      35.025 -17.366 -22.871  0.00  0.00    +0.093 C 
BRANCH  23  24
ATOM     24  N   UNL     1      34.447 -16.130 -22.430  0.00  0.00    -0.320 N 
ATOM     25  N   UNL     1      33.172 -13.444 -21.627  0.00  0.00    -0.220 N 
ATOM     26  N   UNL     1      32.560 -12.245 -21.651  0.00  0.00    -0.178 NA
ATOM     27  N   UNL     1      33.836 -15.446 -24.637  0.00  0.00    -0.232 NA
ATOM     28  N   UNL     1      32.706 -13.332 -25.084  0.00  0.00    -0.245 NA
ATOM     29  C   UNL     1      33.318 -14.015 -22.857  0.00  0.00    +0.185 C 
ATOM     30  C   UNL     1      33.867 -15.200 -23.308  0.00  0.00    +0.128 C 
ATOM     31  C   UNL     1      32.754 -13.116 -23.749  0.00  0.00    +0.103 C 
ATOM     32  C   UNL     1      32.306 -12.050 -22.950  0.00  0.00    +0.134 C 
ATOM     33  C   UNL     1      33.597 -13.981 -20.354  0.00  0.00    +0.135 C 
ATOM     34  C   UNL     1      33.265 -14.510 -25.432  0.00  0.00    +0.251 C 
ATOM     35  H   UNL     1      34.457 -15.925 -21.468  0.00  0.00    +0.148 HD
ENDBRANCH  23  24
ENDBRANCH  22  23
ENDBRANCH   6  22
TORSDOF 5
ENDMDL
MODEL 5
REMARK VINA RESULT:     -12.8      5.226     11.574
REMARK  Name = 15602701
REMARK  5 active torsions:
REMARK  status: ('A' for Active; 'I' for Inactive)
REMARK    1  A    between atoms: N_5  and  C_12
REMARK    2  A    between atoms: C_6  and  C_22
REMARK    3  A    between atoms: C_13  and  C_21
REMARK    4  A    between atoms: C_22  and  C_23
REMARK    5  A    between atoms: C_23  and  N_24
REMARK                            x       y       z     vdW  Elec       q    Type
REMARK                         _______ _______ _______ _____ _____    ______ ____
ROOT
ATOM      1  S   UNL     1      33.729 -22.729 -16.471  0.00  0.00    -0.056 S 
ATOM      2  O   UNL     1      31.976 -20.258 -19.990  0.00  0.00    -0.252 OA
ATOM      3  N   UNL     1      31.546 -21.953 -17.619  0.00  0.00    -0.223 NA
ATOM      4  N   UNL     1      33.616 -21.210 -18.604  0.00  0.00    -0.248 N 
ATOM      5  N   UNL     1      34.248 -19.911 -20.411  0.00  0.00    -0.268 N 
ATOM      6  C   UNL     1      32.240 -23.220 -15.821  0.00  0.00    +0.031 C 
ATOM      7  C   UNL     1      31.194 -22.734 -16.535  0.00  0.00    +0.103 C 
ATOM      8  C   UNL     1      32.857 -21.882 -17.683  0.00  0.00    +0.166 C 
ATOM      9  C   UNL     1      33.155 -20.438 -19.703  0.00  0.00    +0.310 C 
ATOM     10  H   UNL     1      34.593 -21.270 -18.492  0.00  0.00    +0.158 HD
ATOM     11  H   UNL     1      35.139 -20.141 -20.063  0.00  0.00    +0.156 HD
ENDROOT
BRANCH   5  12
ATOM     12  C   UNL     1      34.225 -19.091 -21.564  0.00  0.00    +0.052 C 
ATOM     13  C   UNL     1      34.215 -16.905 -22.554  0.00  0.00    +0.073 C 
ATOM     14  C   UNL     1      34.236 -17.713 -21.417  0.00  0.00    +0.019 C 
ATOM     15  C   UNL     1      34.194 -19.682 -22.816  0.00  0.00    +0.015 C 
ATOM     16  C   UNL     1      34.184 -17.485 -23.822  0.00  0.00    +0.004 C 
ATOM     17  C   UNL     1      34.173 -18.874 -23.953  0.00  0.00    +0.001 C 
BRANCH  13  21
ATOM     18  F   UNL     1      33.030 -14.832 -22.711  0.00  0.00    -0.166 F 
ATOM     19  F   UNL     1      34.531 -14.992 -21.153  0.00  0.00    -0.166 F 
ATOM     20  F   UNL     1      35.140 -14.823 -23.234  0.00  0.00    -0.166 F 
ATOM     21  C   UNL     1      34.227 -15.420 -22.414  0.00  0.00    +0.419 C 
ENDBRANCH  13  21
ENDBRANCH   5  12
BRANCH   6  22
ATOM     22  C   UNL     1      32.215 -24.099 -14.592  0.00  0.00    +0.056 C 
BRANCH  22  23
ATOM     23  C   UNL     1      33.283 -23.710 -13.570  0.00  0.00    +0.093 C 
BRANCH  23  24
ATOM     24  N   UNL     1      34.512 -24.404 -13.819  0.00  0.00    -0.320 N 
ATOM     25  N   UNL     1      37.221 -25.801 -14.261  0.00  0.00    -0.220 N 
ATOM     26  N   UNL     1      38.524 -26.137 -14.218  0.00  0.00    -0.178 NA
ATOM     27  N   UNL     1      35.796 -22.966 -12.405  0.00  0.00    -0.232 NA
ATOM     28  N   UNL     1      38.193 -23.261 -12.073  0.00  0.00    -0.245 NA
ATOM     29  C   UNL     1      36.907 -24.715 -13.497  0.00  0.00    +0.185 C 
ATOM     30  C   UNL     1      35.735 -24.028 -13.240  0.00  0.00    +0.128 C 
ATOM     31  C   UNL     1      38.098 -24.319 -12.911  0.00  0.00    +0.103 C 
ATOM     32  C   UNL     1      39.055 -25.229 -13.392  0.00  0.00    +0.134 C 
ATOM     33  C   UNL     1      36.328 -26.588 -15.079  0.00  0.00    +0.135 C 
ATOM     34  C   UNL     1      37.004 -22.652 -11.881  0.00  0.00    +0.251 C 
ATOM     35  H   UNL     1      34.497 -25.181 -14.423  0.00  0.00    +0.148 HD
ENDBRANCH  23  24
ENDBRANCH  22  23
ENDBRANCH   6  22
TORSDOF 5
ENDMDL
MODEL 6
REMARK VINA RESULT:     -12.7      1.875      2.380
REMARK  Name = 15602701
REMARK  5 active torsions:
REMARK  status: ('A' for Active; 'I' for Inactive)
REMARK    1  A    between atoms: N_5  and  C_12
REMARK    2  A    between atoms: C_6  and  C_22
REMARK    3  A    between atoms: C_13  and  C_21
REMARK    4  A    between atoms: C_22  and  C_23
REMARK    5  A    between atoms: C_23  and  N_24
REMARK                            x       y       z     vdW  Elec       q    Type
REMARK                         _______ _______ _______ _____ _____    ______ ____
ROOT
ATOM      1  S   UNL     1      33.479 -20.431 -20.213  0.00  0.00    -0.056 S 
ATOM      2  O   UNL     1      36.383 -21.721 -16.828  0.00  0.00    -0.252 OA
ATOM      3  N   UNL     1      35.902 -20.247 -19.333  0.00  0.00    -0.223 NA
ATOM      4  N   UNL     1      34.369 -21.569 -18.027  0.00  0.00    -0.248 N 
ATOM      5  N   UNL     1      34.457 -22.807 -16.074  0.00  0.00    -0.268 N 
ATOM      6  C   UNL     1      34.604 -19.512 -21.092  0.00  0.00    +0.031 C 
ATOM      7  C   UNL     1      35.825 -19.515 -20.502  0.00  0.00    +0.103 C 
ATOM      8  C   UNL     1      34.725 -20.774 -19.084  0.00  0.00    +0.166 C 
ATOM      9  C   UNL     1      35.198 -22.005 -16.958  0.00  0.00    +0.310 C 
ATOM     10  H   UNL     1      33.432 -21.874 -18.005  0.00  0.00    +0.158 HD
ATOM     11  H   UNL     1      33.511 -22.949 -16.308  0.00  0.00    +0.156 HD
ENDROOT
BRANCH   5  12
ATOM     12  C   UNL     1      34.903 -23.437 -14.888  0.00  0.00    +0.052 C 
ATOM     13  C   UNL     1      36.490 -24.835 -13.754  0.00  0.00    +0.073 C 
ATOM     14  C   UNL     1      36.050 -24.215 -14.923  0.00  0.00    +0.019 C 
ATOM     15  C   UNL     1      34.186 -23.262 -13.716  0.00  0.00    +0.015 C 
ATOM     16  C   UNL     1      35.779 -24.669 -12.565  0.00  0.00    +0.004 C 
ATOM     17  C   UNL     1      34.626 -23.883 -12.547  0.00  0.00    +0.001 C 
BRANCH  13  21
ATOM     18  F   UNL     1      38.678 -25.226 -14.640  0.00  0.00    -0.166 F 
ATOM     19  F   UNL     1      38.349 -25.754 -12.562  0.00  0.00    -0.166 F 
ATOM     20  F   UNL     1      37.473 -26.966 -14.141  0.00  0.00    -0.166 F 
ATOM     21  C   UNL     1      37.722 -25.675 -13.773  0.00  0.00    +0.419 C 
ENDBRANCH  13  21
ENDBRANCH   5  12
BRANCH   6  22
ATOM     22  C   UNL     1      34.172 -18.823 -22.365  0.00  0.00    +0.056 C 
BRANCH  22  23
ATOM     23  C   UNL     1      35.189 -17.790 -22.849  0.00  0.00    +0.093 C 
BRANCH  23  24
ATOM     24  N   UNL     1      34.537 -16.598 -23.303  0.00  0.00    -0.320 N 
ATOM     25  N   UNL     1      33.132 -13.986 -24.135  0.00  0.00    -0.220 N 
ATOM     26  N   UNL     1      32.536 -12.778 -24.124  0.00  0.00    -0.178 NA
ATOM     27  N   UNL     1      34.382 -15.659 -21.110  0.00  0.00    -0.232 NA
ATOM     28  N   UNL     1      33.366 -13.483 -20.689  0.00  0.00    -0.245 NA
ATOM     29  C   UNL     1      33.519 -14.421 -22.901  0.00  0.00    +0.185 C 
ATOM     30  C   UNL     1      34.148 -15.561 -22.438  0.00  0.00    +0.128 C 
ATOM     31  C   UNL     1      33.147 -13.416 -22.023  0.00  0.00    +0.103 C 
ATOM     32  C   UNL     1      32.548 -12.435 -22.831  0.00  0.00    +0.134 C 
ATOM     33  C   UNL     1      33.292 -14.670 -25.397  0.00  0.00    +0.135 C 
ATOM     34  C   UNL     1      33.983 -14.628 -20.328  0.00  0.00    +0.251 C 
ATOM     35  H   UNL     1      34.353 -16.500 -24.265  0.00  0.00    +0.148 HD
ENDBRANCH  23  24
ENDBRANCH  22  23
ENDBRANCH   6  22
TORSDOF 5
ENDMDL
MODEL 7
REMARK VINA RESULT:     -12.5      7.291     13.063
REMARK  Name = 15602701
REMARK  5 active torsions:
REMARK  status: ('A' for Active; 'I' for Inactive)
REMARK    1  A    between atoms: N_5  and  C_12
REMARK    2  A    between atoms: C_6  and  C_22
REMARK    3  A    between atoms: C_13  and  C_21
REMARK    4  A    between atoms: C_22  and  C_23
REMARK    5  A    between atoms: C_23  and  N_24
REMARK                            x       y       z     vdW  Elec       q    Type
REMARK                         _______ _______ _______ _____ _____    ______ ____
ROOT
ATOM      1  S   UNL     1      34.571 -15.807 -23.552  0.00  0.00    -0.056 S 
ATOM      2  O   UNL     1      33.030 -12.174 -21.106  0.00  0.00    -0.252 OA
ATOM      3  N   UNL     1      34.053 -14.935 -21.174  0.00  0.00    -0.223 NA
ATOM      4  N   UNL     1      33.648 -13.417 -23.001  0.00  0.00    -0.248 N 
ATOM      5  N   UNL     1      32.871 -11.251 -23.247  0.00  0.00    -0.268 N 
ATOM      6  C   UNL     1      34.838 -16.832 -22.225  0.00  0.00    +0.031 C 
ATOM      7  C   UNL     1      34.518 -16.230 -21.053  0.00  0.00    +0.103 C 
ATOM      8  C   UNL     1      34.039 -14.607 -22.446  0.00  0.00    +0.166 C 
ATOM      9  C   UNL     1      33.167 -12.266 -22.321  0.00  0.00    +0.310 C 
ATOM     10  H   UNL     1      33.706 -13.352 -23.982  0.00  0.00    +0.158 HD
ATOM     11  H   UNL     1      33.031 -11.471 -24.194  0.00  0.00    +0.156 HD
ENDROOT
BRANCH   5  12
ATOM     12  C   UNL     1      32.371  -9.953 -22.987  0.00  0.00    +0.052 C 
ATOM     13  C   UNL     1      32.708  -7.579 -22.913  0.00  0.00    +0.073 C 
ATOM     14  C   UNL     1      33.201  -8.858 -23.169  0.00  0.00    +0.019 C 
ATOM     15  C   UNL     1      31.063  -9.804 -22.558  0.00  0.00    +0.015 C 
ATOM     16  C   UNL     1      31.392  -7.411 -22.481  0.00  0.00    +0.004 C 
ATOM     17  C   UNL     1      30.570  -8.524 -22.303  0.00  0.00    +0.001 C 
BRANCH  13  21
ATOM     18  F   UNL     1      32.938  -5.197 -22.940  0.00  0.00    -0.166 F 
ATOM     19  F   UNL     1      34.640  -6.342 -22.236  0.00  0.00    -0.166 F 
ATOM     20  F   UNL     1      34.137  -6.337 -24.351  0.00  0.00    -0.166 F 
ATOM     21  C   UNL     1      33.586  -6.388 -23.104  0.00  0.00    +0.419 C 
ENDBRANCH  13  21
ENDBRANCH   5  12
BRANCH   6  22
ATOM     22  C   UNL     1      35.369 -18.228 -22.456  0.00  0.00    +0.056 C 
BRANCH  22  23
ATOM     23  C   UNL     1      35.832 -18.902 -21.165  0.00  0.00    +0.093 C 
BRANCH  23  24
ATOM     24  N   UNL     1      34.757 -19.617 -20.543  0.00  0.00    -0.320 N 
ATOM     25  N   UNL     1      32.545 -21.210 -19.108  0.00  0.00    -0.220 N 
ATOM     26  N   UNL     1      31.872 -22.017 -18.266  0.00  0.00    -0.178 NA
ATOM     27  N   UNL     1      36.167 -20.624 -18.896  0.00  0.00    -0.232 NA
ATOM     28  N   UNL     1      35.310 -22.147 -17.196  0.00  0.00    -0.245 NA
ATOM     29  C   UNL     1      33.882 -21.136 -18.851  0.00  0.00    +0.185 C 
ATOM     30  C   UNL     1      34.937 -20.457 -19.431  0.00  0.00    +0.128 C 
ATOM     31  C   UNL     1      34.092 -21.958 -17.755  0.00  0.00    +0.103 C 
ATOM     32  C   UNL     1      32.822 -22.471 -17.441  0.00  0.00    +0.134 C 
ATOM     33  C   UNL     1      31.814 -20.535 -20.155  0.00  0.00    +0.135 C 
ATOM     34  C   UNL     1      36.277 -21.447 -17.827  0.00  0.00    +0.251 C 
ATOM     35  H   UNL     1      33.850 -19.515 -20.912  0.00  0.00    +0.148 HD
ENDBRANCH  23  24
ENDBRANCH  22  23
ENDBRANCH   6  22
TORSDOF 5
ENDMDL
MODEL 8
REMARK VINA RESULT:     -12.5      1.920      2.959
REMARK  Name = 15602701
REMARK  5 active torsions:
REMARK  status: ('A' for Active; 'I' for Inactive)
REMARK    1  A    between atoms: N_5  and  C_12
REMARK    2  A    between atoms: C_6  and  C_22
REMARK    3  A    between atoms: C_13  and  C_21
REMARK    4  A    between atoms: C_22  and  C_23
REMARK    5  A    between atoms: C_23  and  N_24
REMARK                            x       y       z     vdW  Elec       q    Type
REMARK                         _______ _______ _______ _____ _____    ______ ____
ROOT
ATOM      1  S   UNL     1      33.451 -20.494 -20.236  0.00  0.00    -0.056 S 
ATOM      2  O   UNL     1      36.376 -21.701 -16.838  0.00  0.00    -0.252 OA
ATOM      3  N   UNL     1      35.867 -20.247 -19.350  0.00  0.00    -0.223 NA
ATOM      4  N   UNL     1      34.362 -21.602 -18.043  0.00  0.00    -0.248 N 
ATOM      5  N   UNL     1      34.475 -22.831 -16.085  0.00  0.00    -0.268 N 
ATOM      6  C   UNL     1      34.556 -19.551 -21.114  0.00  0.00    +0.031 C 
ATOM      7  C   UNL     1      35.776 -19.522 -20.521  0.00  0.00    +0.103 C 
ATOM      8  C   UNL     1      34.702 -20.802 -19.102  0.00  0.00    +0.166 C 
ATOM      9  C   UNL     1      35.198 -22.014 -16.970  0.00  0.00    +0.310 C 
ATOM     10  H   UNL     1      33.433 -21.930 -18.022  0.00  0.00    +0.158 HD
ATOM     11  H   UNL     1      33.533 -22.996 -16.322  0.00  0.00    +0.156 HD
ENDROOT
BRANCH   5  12
ATOM     12  C   UNL     1      34.933 -23.446 -14.896  0.00  0.00    +0.052 C 
ATOM     13  C   UNL     1      36.538 -24.818 -13.757  0.00  0.00    +0.073 C 
ATOM     14  C   UNL     1      36.087 -24.212 -14.930  0.00  0.00    +0.019 C 
ATOM     15  C   UNL     1      34.219 -23.267 -13.723  0.00  0.00    +0.015 C 
ATOM     16  C   UNL     1      35.831 -24.648 -12.567  0.00  0.00    +0.004 C 
ATOM     17  C   UNL     1      34.671 -23.873 -12.550  0.00  0.00    +0.001 C 
BRANCH  13  21
ATOM     18  F   UNL     1      37.575 -26.930 -14.191  0.00  0.00    -0.166 F 
ATOM     19  F   UNL     1      38.752 -25.155 -14.598  0.00  0.00    -0.166 F 
ATOM     20  F   UNL     1      38.359 -25.749 -12.543  0.00  0.00    -0.166 F 
ATOM     21  C   UNL     1      37.779 -25.645 -13.774  0.00  0.00    +0.419 C 
ENDBRANCH  13  21
ENDBRANCH   5  12
BRANCH   6  22
ATOM     22  C   UNL     1      34.112 -18.877 -22.392  0.00  0.00    +0.056 C 
BRANCH  22  23
ATOM     23  C   UNL     1      35.015 -17.709 -22.786  0.00  0.00    +0.093 C 
BRANCH  23  24
ATOM     24  N   UNL     1      34.466 -16.461 -22.343  0.00  0.00    -0.320 N 
ATOM     25  N   UNL     1      33.255 -13.747 -21.534  0.00  0.00    -0.220 N 
ATOM     26  N   UNL     1      32.676 -12.532 -21.557  0.00  0.00    -0.178 NA
ATOM     27  N   UNL     1      33.900 -15.744 -24.552  0.00  0.00    -0.232 NA
ATOM     28  N   UNL     1      32.834 -13.597 -24.996  0.00  0.00    -0.245 NA
ATOM     29  C   UNL     1      33.400 -14.312 -22.767  0.00  0.00    +0.185 C 
ATOM     30  C   UNL     1      33.922 -15.509 -23.221  0.00  0.00    +0.128 C 
ATOM     31  C   UNL     1      32.871 -13.392 -23.659  0.00  0.00    +0.103 C 
ATOM     32  C   UNL     1      32.443 -12.320 -22.857  0.00  0.00    +0.134 C 
ATOM     33  C   UNL     1      33.649 -14.305 -20.261  0.00  0.00    +0.135 C 
ATOM     34  C   UNL     1      33.365 -14.787 -25.347  0.00  0.00    +0.251 C 
ATOM     35  H   UNL     1      34.470 -16.263 -21.379  0.00  0.00    +0.148 HD
ENDBRANCH  23  24
ENDBRANCH  22  23
ENDBRANCH   6  22
TORSDOF 5
ENDMDL
MODEL 9
REMARK VINA RESULT:     -11.9      5.835     11.625
REMARK  Name = 15602701
REMARK  5 active torsions:
REMARK  status: ('A' for Active; 'I' for Inactive)
REMARK    1  A    between atoms: N_5  and  C_12
REMARK    2  A    between atoms: C_6  and  C_22
REMARK    3  A    between atoms: C_13  and  C_21
REMARK    4  A    between atoms: C_22  and  C_23
REMARK    5  A    between atoms: C_23  and  N_24
REMARK                            x       y       z     vdW  Elec       q    Type
REMARK                         _______ _______ _______ _____ _____    ______ ____
ROOT
ATOM      1  S   UNL     1      33.354 -23.200 -15.903  0.00  0.00    -0.056 S 
ATOM      2  O   UNL     1      32.537 -20.430 -19.539  0.00  0.00    -0.252 OA
ATOM      3  N   UNL     1      31.509 -22.074 -17.321  0.00  0.00    -0.223 NA
ATOM      4  N   UNL     1      33.790 -21.649 -17.970  0.00  0.00    -0.248 N 
ATOM      5  N   UNL     1      34.872 -20.436 -19.618  0.00  0.00    -0.268 N 
ATOM      6  C   UNL     1      31.728 -23.463 -15.493  0.00  0.00    +0.031 C 
ATOM      7  C   UNL     1      30.886 -22.807 -16.330  0.00  0.00    +0.103 C 
ATOM      8  C   UNL     1      32.810 -22.208 -17.194  0.00  0.00    +0.166 C 
ATOM      9  C   UNL     1      33.619 -20.796 -19.094  0.00  0.00    +0.310 C 
ATOM     10  H   UNL     1      34.720 -21.863 -17.723  0.00  0.00    +0.158 HD
ATOM     11  H   UNL     1      35.657 -20.809 -19.154  0.00  0.00    +0.156 HD
ENDROOT
BRANCH   5  12
ATOM     12  C   UNL     1      35.145 -19.604 -20.729  0.00  0.00    +0.052 C 
ATOM     13  C   UNL     1      34.536 -18.775 -22.897  0.00  0.00    +0.073 C 
ATOM     14  C   UNL     1      34.267 -19.596 -21.802  0.00  0.00    +0.019 C 
ATOM     15  C   UNL     1      36.282 -18.815 -20.722  0.00  0.00    +0.015 C 
ATOM     16  C   UNL     1      35.678 -17.974 -22.905  0.00  0.00    +0.004 C 
ATOM     17  C   UNL     1      36.551 -17.994 -21.818  0.00  0.00    +0.001 C 
BRANCH  13  21
ATOM     18  F   UNL     1      33.842 -19.739 -24.975  0.00  0.00    -0.166 F 
ATOM     19  F   UNL     1      32.290 -18.904 -23.710  0.00  0.00    -0.166 F 
ATOM     20  F   UNL     1      33.662 -17.582 -24.759  0.00  0.00    -0.166 F 
ATOM     21  C   UNL     1      33.602 -18.753 -24.060  0.00  0.00    +0.419 C 
ENDBRANCH  13  21
ENDBRANCH   5  12
BRANCH   6  22
ATOM     22  C   UNL     1      31.390 -24.346 -14.314  0.00  0.00    +0.056 C 
BRANCH  22  23
ATOM     23  C   UNL     1      32.287 -24.083 -13.105  0.00  0.00    +0.093 C 
BRANCH  23  24
ATOM     24  N   UNL     1      33.621 -24.550 -13.343  0.00  0.00    -0.320 N 
ATOM     25  N   UNL     1      36.527 -25.498 -13.718  0.00  0.00    -0.220 N 
ATOM     26  N   UNL     1      37.838 -25.749 -13.541  0.00  0.00    -0.178 NA
ATOM     27  N   UNL     1      34.452 -23.719 -11.261  0.00  0.00    -0.232 NA
ATOM     28  N   UNL     1      36.779 -23.984 -10.584  0.00  0.00    -0.245 NA
ATOM     29  C   UNL     1      35.950 -24.825 -12.682  0.00  0.00    +0.185 C 
ATOM     30  C   UNL     1      34.671 -24.365 -12.428  0.00  0.00    +0.128 C 
ATOM     31  C   UNL     1      36.965 -24.626 -11.760  0.00  0.00    +0.103 C 
ATOM     32  C   UNL     1      38.101 -25.214 -12.343  0.00  0.00    +0.134 C 
ATOM     33  C   UNL     1      35.893 -25.946 -14.936  0.00  0.00    +0.135 C 
ATOM     34  C   UNL     1      35.504 -23.571 -10.422  0.00  0.00    +0.251 C 
ATOM     35  H   UNL     1      33.809 -25.023 -14.185  0.00  0.00    +0.148 HD
ENDBRANCH  23  24
ENDBRANCH  22  23
ENDBRANCH   6  22
TORSDOF 5
ENDMDL
