MODEL 1
REMARK VINA RESULT:     -13.1      0.000      0.000
REMARK  Name = 448903
REMARK  11 active torsions:
REMARK  status: ('A' for Active; 'I' for Inactive)
REMARK    1  A    between atoms: N_1  and  C_22
REMARK    2  A    between atoms: C_8  and  N_11
REMARK    3  A    between atoms: C_12  and  C_14
REMARK    4  A    between atoms: C_14  and  C_15
REMARK    5  A    between atoms: C_15  and  C_16
REMARK    6  A    between atoms: C_22  and  C_23
REMARK    7  A    between atoms: C_23  and  C_24
REMARK    8  A    between atoms: C_24  and  N_25
REMARK    9  A    between atoms: C_24  and  C_35
REMARK   10  A    between atoms: C_29  and  C_32
REMARK   11  A    between atoms: C_35  and  O_36
REMARK                            x       y       z     vdW  Elec       q    Type
REMARK                         _______ _______ _______ _____ _____    ______ ____
ROOT
ATOM      1  N   UNL     1      35.819 -22.690 -15.653  0.00  0.00    -0.286 N 
ATOM      2  C   UNL     1      35.106 -22.244 -16.743  0.00  0.00    +0.053 C 
ATOM      3  C   UNL     1      33.810 -22.752 -16.620  0.00  0.00    +0.015 C 
ATOM      4  C   UNL     1      35.022 -23.457 -14.848  0.00  0.00    +0.065 C 
ATOM      5  C   UNL     1      33.773 -23.514 -15.419  0.00  0.00    +0.017 C 
ATOM      6  C   UNL     1      35.505 -21.440 -17.817  0.00  0.00    +0.029 C 
ATOM      7  C   UNL     1      32.864 -22.442 -17.618  0.00  0.00    +0.003 C 
ATOM      8  C   UNL     1      34.548 -21.146 -18.794  0.00  0.00    +0.052 C 
ATOM      9  C   UNL     1      33.248 -21.638 -18.697  0.00  0.00    +0.015 C 
ENDROOT
BRANCH   8  11
ATOM     10  O   UNL     1      32.833 -19.696 -20.793  0.00  0.00    -0.275 OA
ATOM     11  N   UNL     1      34.904 -20.347 -19.881  0.00  0.00    -0.284 N 
ATOM     12  C   UNL     1      34.061 -19.679 -20.778  0.00  0.00    +0.226 C 
ATOM     13  H   UNL     1      35.870 -20.238 -20.037  0.00  0.00    +0.155 HD
BRANCH  12  14
ATOM     14  C   UNL     1      34.831 -18.904 -21.835  0.00  0.00    +0.090 C 
BRANCH  14  15
ATOM     15  C   UNL     1      35.270 -17.532 -21.322  0.00  0.00    +0.036 C 
BRANCH  15  16
ATOM     16  C   UNL     1      34.651 -16.383 -22.080  0.00  0.00    -0.022 C 
ATOM     17  C   UNL     1      34.489 -16.466 -23.462  0.00  0.00    -0.004 C 
ATOM     18  C   UNL     1      34.238 -15.239 -21.396  0.00  0.00    -0.004 C 
ATOM     19  C   UNL     1      33.916 -15.404 -24.163  0.00  0.00    -0.000 C 
ATOM     20  C   UNL     1      33.666 -14.177 -22.097  0.00  0.00    -0.000 C 
ATOM     21  C   UNL     1      33.505 -14.259 -23.480  0.00  0.00    -0.000 C 
ENDBRANCH  15  16
ENDBRANCH  14  15
ENDBRANCH  12  14
ENDBRANCH   8  11
BRANCH   1  22
ATOM     22  C   UNL     1      37.211 -22.398 -15.382  0.00  0.00    +0.097 C 
BRANCH  22  23
ATOM     23  C   UNL     1      38.145 -23.611 -15.495  0.00  0.00    +0.040 C 
BRANCH  23  24
ATOM     24  C   UNL     1      38.849 -24.022 -14.183  0.00  0.00    +0.091 C 
BRANCH  24  25
ATOM     25  N   UNL     1      37.918 -24.428 -13.117  0.00  0.00    -0.246 NA
ATOM     26  N   UNL     1      36.593 -25.613 -11.785  0.00  0.00    -0.251 NA
ATOM     27  C   UNL     1      37.363 -23.617 -12.159  0.00  0.00    +0.125 C 
ATOM     28  C   UNL     1      37.434 -25.624 -12.864  0.00  0.00    +0.201 C 
ATOM     29  C   UNL     1      36.538 -24.329 -11.321  0.00  0.00    +0.124 C 
BRANCH  29  32
ATOM     30  O   UNL     1      34.973 -24.614  -9.572  0.00  0.00    -0.269 OA
ATOM     31  N   UNL     1      35.944 -22.562  -9.776  0.00  0.00    -0.324 N 
ATOM     32  C   UNL     1      35.774 -23.884 -10.205  0.00  0.00    +0.257 C 
ATOM     33  H   UNL     1      35.430 -22.224  -9.007  0.00  0.00    +0.145 HD
ATOM     34  H   UNL     1      36.577 -21.970 -10.244  0.00  0.00    +0.145 HD
ENDBRANCH  29  32
ENDBRANCH  24  25
BRANCH  24  35
ATOM     35  C   UNL     1      39.881 -25.131 -14.446  0.00  0.00    +0.153 C 
BRANCH  35  36
ATOM     36  O   UNL     1      39.853 -25.494 -15.822  0.00  0.00    -0.381 OA
ATOM     37  H   UNL     1      40.728 -25.815 -16.089  0.00  0.00    +0.210 HD
ENDBRANCH  35  36
ENDBRANCH  24  35
ENDBRANCH  23  24
ENDBRANCH  22  23
ENDBRANCH   1  22
TORSDOF 11
ENDMDL
MODEL 2
REMARK VINA RESULT:     -12.7      3.526      6.219
REMARK  Name = 448903
REMARK  11 active torsions:
REMARK  status: ('A' for Active; 'I' for Inactive)
REMARK    1  A    between atoms: N_1  and  C_22
REMARK    2  A    between atoms: C_8  and  N_11
REMARK    3  A    between atoms: C_12  and  C_14
REMARK    4  A    between atoms: C_14  and  C_15
REMARK    5  A    between atoms: C_15  and  C_16
REMARK    6  A    between atoms: C_22  and  C_23
REMARK    7  A    between atoms: C_23  and  C_24
REMARK    8  A    between atoms: C_24  and  N_25
REMARK    9  A    between atoms: C_24  and  C_35
REMARK   10  A    between atoms: C_29  and  C_32
REMARK   11  A    between atoms: C_35  and  O_36
REMARK                            x       y       z     vdW  Elec       q    Type
REMARK                         _______ _______ _______ _____ _____    ______ ____
ROOT
ATOM      1  N   UNL     1      34.766 -23.844 -14.120  0.00  0.00    -0.286 N 
ATOM      2  C   UNL     1      35.345 -23.080 -15.108  0.00  0.00    +0.053 C 
ATOM      3  C   UNL     1      36.720 -23.066 -14.862  0.00  0.00    +0.015 C 
ATOM      4  C   UNL     1      35.723 -24.314 -13.263  0.00  0.00    +0.065 C 
ATOM      5  C   UNL     1      36.943 -23.850 -13.695  0.00  0.00    +0.017 C 
ATOM      6  C   UNL     1      34.764 -22.406 -16.188  0.00  0.00    +0.029 C 
ATOM      7  C   UNL     1      37.558 -22.345 -15.737  0.00  0.00    +0.003 C 
ATOM      8  C   UNL     1      35.615 -21.698 -17.043  0.00  0.00    +0.052 C 
ATOM      9  C   UNL     1      36.991 -21.668 -16.822  0.00  0.00    +0.015 C 
ENDROOT
BRANCH   8  11
ATOM     10  O   UNL     1      34.089 -22.716 -19.424  0.00  0.00    -0.275 OA
ATOM     11  N   UNL     1      35.077 -21.014 -18.133  0.00  0.00    -0.284 N 
ATOM     12  C   UNL     1      34.358 -21.537 -19.215  0.00  0.00    +0.226 C 
ATOM     13  H   UNL     1      35.220 -20.039 -18.143  0.00  0.00    +0.155 HD
BRANCH  12  14
ATOM     14  C   UNL     1      33.937 -20.465 -20.208  0.00  0.00    +0.090 C 
BRANCH  14  15
ATOM     15  C   UNL     1      35.103 -19.549 -20.579  0.00  0.00    +0.036 C 
BRANCH  15  16
ATOM     16  C   UNL     1      34.758 -18.546 -21.653  0.00  0.00    -0.022 C 
ATOM     17  C   UNL     1      35.037 -17.194 -21.461  0.00  0.00    -0.004 C 
ATOM     18  C   UNL     1      34.162 -18.974 -22.840  0.00  0.00    -0.004 C 
ATOM     19  C   UNL     1      34.718 -16.267 -22.454  0.00  0.00    -0.000 C 
ATOM     20  C   UNL     1      33.843 -18.047 -23.833  0.00  0.00    -0.000 C 
ATOM     21  C   UNL     1      34.121 -16.694 -23.640  0.00  0.00    -0.000 C 
ENDBRANCH  15  16
ENDBRANCH  14  15
ENDBRANCH  12  14
ENDBRANCH   8  11
BRANCH   1  22
ATOM     22  C   UNL     1      33.351 -24.121 -13.993  0.00  0.00    +0.097 C 
BRANCH  22  23
ATOM     23  C   UNL     1      32.491 -22.888 -13.683  0.00  0.00    +0.040 C 
BRANCH  23  24
ATOM     24  C   UNL     1      30.974 -23.158 -13.568  0.00  0.00    +0.091 C 
BRANCH  24  25
ATOM     25  N   UNL     1      30.218 -22.795 -14.778  0.00  0.00    -0.246 NA
ATOM     26  N   UNL     1      29.666 -22.134 -16.825  0.00  0.00    -0.251 NA
ATOM     27  C   UNL     1      28.855 -22.836 -14.937  0.00  0.00    +0.125 C 
ATOM     28  C   UNL     1      30.676 -22.369 -15.934  0.00  0.00    +0.201 C 
ATOM     29  C   UNL     1      28.489 -22.430 -16.198  0.00  0.00    +0.124 C 
BRANCH  29  32
ATOM     30  O   UNL     1      26.853 -22.898 -17.840  0.00  0.00    -0.269 OA
ATOM     31  N   UNL     1      26.234 -21.550 -16.109  0.00  0.00    -0.324 N 
ATOM     32  C   UNL     1      27.192 -22.323 -16.778  0.00  0.00    +0.257 C 
ATOM     33  H   UNL     1      25.329 -21.457 -16.484  0.00  0.00    +0.145 HD
ATOM     34  H   UNL     1      26.467 -21.100 -15.265  0.00  0.00    +0.145 HD
ENDBRANCH  29  32
ENDBRANCH  24  25
BRANCH  24  35
ATOM     35  C   UNL     1      30.712 -24.626 -13.191  0.00  0.00    +0.153 C 
BRANCH  35  36
ATOM     36  O   UNL     1      29.809 -24.686 -12.093  0.00  0.00    -0.381 OA
ATOM     37  H   UNL     1      30.292 -24.936 -11.290  0.00  0.00    +0.210 HD
ENDBRANCH  35  36
ENDBRANCH  24  35
ENDBRANCH  23  24
ENDBRANCH  22  23
ENDBRANCH   1  22
TORSDOF 11
ENDMDL
MODEL 3
REMARK VINA RESULT:     -12.7      2.239      4.188
REMARK  Name = 448903
REMARK  11 active torsions:
REMARK  status: ('A' for Active; 'I' for Inactive)
REMARK    1  A    between atoms: N_1  and  C_22
REMARK    2  A    between atoms: C_8  and  N_11
REMARK    3  A    between atoms: C_12  and  C_14
REMARK    4  A    between atoms: C_14  and  C_15
REMARK    5  A    between atoms: C_15  and  C_16
REMARK    6  A    between atoms: C_22  and  C_23
REMARK    7  A    between atoms: C_23  and  C_24
REMARK    8  A    between atoms: C_24  and  N_25
REMARK    9  A    between atoms: C_24  and  C_35
REMARK   10  A    between atoms: C_29  and  C_32
REMARK   11  A    between atoms: C_35  and  O_36
REMARK                            x       y       z     vdW  Elec       q    Type
REMARK                         _______ _______ _______ _____ _____    ______ ____
ROOT
ATOM      1  N   UNL     1      32.525 -24.081 -13.971  0.00  0.00    -0.286 N 
ATOM      2  C   UNL     1      31.797 -23.467 -14.965  0.00  0.00    +0.053 C 
ATOM      3  C   UNL     1      30.447 -23.692 -14.682  0.00  0.00    +0.015 C 
ATOM      4  C   UNL     1      31.686 -24.683 -13.073  0.00  0.00    +0.065 C 
ATOM      5  C   UNL     1      30.393 -24.459 -13.485  0.00  0.00    +0.017 C 
ATOM      6  C   UNL     1      32.224 -22.738 -16.080  0.00  0.00    +0.029 C 
ATOM      7  C   UNL     1      29.475 -23.163 -15.555  0.00  0.00    +0.003 C 
ATOM      8  C   UNL     1      31.241 -22.223 -16.931  0.00  0.00    +0.052 C 
ATOM      9  C   UNL     1      29.887 -22.431 -16.674  0.00  0.00    +0.015 C 
ENDROOT
BRANCH   8  11
ATOM     10  O   UNL     1      33.815 -22.235 -18.484  0.00  0.00    -0.275 OA
ATOM     11  N   UNL     1      31.625 -21.489 -18.054  0.00  0.00    -0.284 N 
ATOM     12  C   UNL     1      32.838 -21.542 -18.751  0.00  0.00    +0.226 C 
ATOM     13  H   UNL     1      30.958 -20.852 -18.400  0.00  0.00    +0.155 HD
BRANCH  12  14
ATOM     14  C   UNL     1      32.876 -20.581 -19.929  0.00  0.00    +0.090 C 
BRANCH  14  15
ATOM     15  C   UNL     1      34.302 -20.126 -20.241  0.00  0.00    +0.036 C 
BRANCH  15  16
ATOM     16  C   UNL     1      34.367 -19.018 -21.264  0.00  0.00    -0.022 C 
ATOM     17  C   UNL     1      34.911 -17.782 -20.920  0.00  0.00    -0.004 C 
ATOM     18  C   UNL     1      33.883 -19.233 -22.555  0.00  0.00    -0.004 C 
ATOM     19  C   UNL     1      34.970 -16.758 -21.865  0.00  0.00    -0.000 C 
ATOM     20  C   UNL     1      33.942 -18.209 -23.501  0.00  0.00    -0.000 C 
ATOM     21  C   UNL     1      34.486 -16.971 -23.156  0.00  0.00    -0.000 C 
ENDBRANCH  15  16
ENDBRANCH  14  15
ENDBRANCH  12  14
ENDBRANCH   8  11
BRANCH   1  22
ATOM     22  C   UNL     1      33.969 -24.098 -13.875  0.00  0.00    +0.097 C 
BRANCH  22  23
ATOM     23  C   UNL     1      34.525 -23.462 -12.594  0.00  0.00    +0.040 C 
BRANCH  23  24
ATOM     24  C   UNL     1      35.417 -24.387 -11.735  0.00  0.00    +0.091 C 
BRANCH  24  25
ATOM     25  N   UNL     1      36.523 -25.002 -12.487  0.00  0.00    -0.246 NA
ATOM     26  N   UNL     1      37.763 -26.401 -13.686  0.00  0.00    -0.251 NA
ATOM     27  C   UNL     1      37.762 -24.458 -12.715  0.00  0.00    +0.125 C 
ATOM     28  C   UNL     1      36.556 -26.172 -13.085  0.00  0.00    +0.201 C 
ATOM     29  C   UNL     1      38.549 -25.308 -13.457  0.00  0.00    +0.124 C 
BRANCH  29  32
ATOM     30  O   UNL     1      40.424 -24.020 -14.102  0.00  0.00    -0.269 OA
ATOM     31  N   UNL     1      40.655 -26.287 -14.143  0.00  0.00    -0.324 N 
ATOM     32  C   UNL     1      39.888 -25.139 -13.914  0.00  0.00    +0.257 C 
ATOM     33  H   UNL     1      41.583 -26.204 -14.459  0.00  0.00    +0.145 HD
ATOM     34  H   UNL     1      40.265 -27.179 -13.988  0.00  0.00    +0.145 HD
ENDBRANCH  29  32
ENDBRANCH  24  25
BRANCH  24  35
ATOM     35  C   UNL     1      35.955 -23.632 -10.509  0.00  0.00    +0.153 C 
BRANCH  35  36
ATOM     36  O   UNL     1      35.257 -24.053  -9.342  0.00  0.00    -0.381 OA
ATOM     37  H   UNL     1      35.656 -23.641  -8.560  0.00  0.00    +0.210 HD
ENDBRANCH  35  36
ENDBRANCH  24  35
ENDBRANCH  23  24
ENDBRANCH  22  23
ENDBRANCH   1  22
TORSDOF 11
ENDMDL
MODEL 4
REMARK VINA RESULT:     -12.5      4.016      6.728
REMARK  Name = 448903
REMARK  11 active torsions:
REMARK  status: ('A' for Active; 'I' for Inactive)
REMARK    1  A    between atoms: N_1  and  C_22
REMARK    2  A    between atoms: C_8  and  N_11
REMARK    3  A    between atoms: C_12  and  C_14
REMARK    4  A    between atoms: C_14  and  C_15
REMARK    5  A    between atoms: C_15  and  C_16
REMARK    6  A    between atoms: C_22  and  C_23
REMARK    7  A    between atoms: C_23  and  C_24
REMARK    8  A    between atoms: C_24  and  N_25
REMARK    9  A    between atoms: C_24  and  C_35
REMARK   10  A    between atoms: C_29  and  C_32
REMARK   11  A    between atoms: C_35  and  O_36
REMARK                            x       y       z     vdW  Elec       q    Type
REMARK                         _______ _______ _______ _____ _____    ______ ____
ROOT
ATOM      1  N   UNL     1      33.212 -22.966 -15.805  0.00  0.00    -0.286 N 
ATOM      2  C   UNL     1      34.014 -22.346 -16.737  0.00  0.00    +0.053 C 
ATOM      3  C   UNL     1      35.319 -22.376 -16.239  0.00  0.00    +0.015 C 
ATOM      4  C   UNL     1      33.963 -23.386 -14.740  0.00  0.00    +0.065 C 
ATOM      5  C   UNL     1      35.271 -23.036 -14.979  0.00  0.00    +0.017 C 
ATOM      6  C   UNL     1      33.688 -21.767 -17.968  0.00  0.00    +0.029 C 
ATOM      7  C   UNL     1      36.351 -21.799 -17.008  0.00  0.00    +0.003 C 
ATOM      8  C   UNL     1      34.728 -21.202 -18.713  0.00  0.00    +0.052 C 
ATOM      9  C   UNL     1      36.040 -21.218 -18.242  0.00  0.00    +0.015 C 
ENDROOT
BRANCH   8  11
ATOM     10  O   UNL     1      36.134 -18.994 -20.191  0.00  0.00    -0.275 OA
ATOM     11  N   UNL     1      34.446 -20.616 -19.948  0.00  0.00    -0.284 N 
ATOM     12  C   UNL     1      35.145 -19.593 -20.601  0.00  0.00    +0.226 C 
ATOM     13  H   UNL     1      33.655 -20.965 -20.419  0.00  0.00    +0.155 HD
BRANCH  12  14
ATOM     14  C   UNL     1      34.522 -19.224 -21.938  0.00  0.00    +0.090 C 
BRANCH  14  15
ATOM     15  C   UNL     1      35.332 -18.146 -22.660  0.00  0.00    +0.036 C 
BRANCH  15  16
ATOM     16  C   UNL     1      34.698 -16.778 -22.595  0.00  0.00    -0.022 C 
ATOM     17  C   UNL     1      34.592 -16.115 -21.373  0.00  0.00    -0.004 C 
ATOM     18  C   UNL     1      34.219 -16.176 -23.759  0.00  0.00    -0.004 C 
ATOM     19  C   UNL     1      34.006 -14.851 -21.313  0.00  0.00    -0.000 C 
ATOM     20  C   UNL     1      33.633 -14.911 -23.699  0.00  0.00    -0.000 C 
ATOM     21  C   UNL     1      33.526 -14.249 -22.476  0.00  0.00    -0.000 C 
ENDBRANCH  15  16
ENDBRANCH  14  15
ENDBRANCH  12  14
ENDBRANCH   8  11
BRANCH   1  22
ATOM     22  C   UNL     1      31.782 -23.154 -15.919  0.00  0.00    +0.097 C 
BRANCH  22  23
ATOM     23  C   UNL     1      30.965 -22.482 -14.808  0.00  0.00    +0.040 C 
BRANCH  23  24
ATOM     24  C   UNL     1      29.639 -23.190 -14.448  0.00  0.00    +0.091 C 
BRANCH  24  25
ATOM     25  N   UNL     1      28.609 -23.078 -15.495  0.00  0.00    -0.246 NA
ATOM     26  N   UNL     1      27.224 -23.519 -17.174  0.00  0.00    -0.251 NA
ATOM     27  C   UNL     1      27.852 -21.971 -15.786  0.00  0.00    +0.125 C 
ATOM     28  C   UNL     1      28.206 -23.993 -16.348  0.00  0.00    +0.201 C 
ATOM     29  C   UNL     1      26.986 -22.220 -16.824  0.00  0.00    +0.124 C 
BRANCH  29  32
ATOM     30  O   UNL     1      25.569 -20.328 -16.890  0.00  0.00    -0.269 OA
ATOM     31  N   UNL     1      25.606 -21.666 -18.735  0.00  0.00    -0.324 N 
ATOM     32  C   UNL     1      26.032 -21.358 -17.438  0.00  0.00    +0.257 C 
ATOM     33  H   UNL     1      24.948 -21.090 -19.187  0.00  0.00    +0.145 HD
ATOM     34  H   UNL     1      25.964 -22.459 -19.196  0.00  0.00    +0.145 HD
ENDBRANCH  29  32
ENDBRANCH  24  25
BRANCH  24  35
ATOM     35  C   UNL     1      29.891 -24.665 -14.098  0.00  0.00    +0.153 C 
BRANCH  35  36
ATOM     36  O   UNL     1      30.538 -24.754 -12.833  0.00  0.00    -0.381 OA
ATOM     37  H   UNL     1      30.461 -25.659 -12.494  0.00  0.00    +0.210 HD
ENDBRANCH  35  36
ENDBRANCH  24  35
ENDBRANCH  23  24
ENDBRANCH  22  23
ENDBRANCH   1  22
TORSDOF 11
ENDMDL
MODEL 5
REMARK VINA RESULT:     -11.8      6.629     14.073
REMARK  Name = 448903
REMARK  11 active torsions:
REMARK  status: ('A' for Active; 'I' for Inactive)
REMARK    1  A    between atoms: N_1  and  C_22
REMARK    2  A    between atoms: C_8  and  N_11
REMARK    3  A    between atoms: C_12  and  C_14
REMARK    4  A    between atoms: C_14  and  C_15
REMARK    5  A    between atoms: C_15  and  C_16
REMARK    6  A    between atoms: C_22  and  C_23
REMARK    7  A    between atoms: C_23  and  C_24
REMARK    8  A    between atoms: C_24  and  N_25
REMARK    9  A    between atoms: C_24  and  C_35
REMARK   10  A    between atoms: C_29  and  C_32
REMARK   11  A    between atoms: C_35  and  O_36
REMARK                            x       y       z     vdW  Elec       q    Type
REMARK                         _______ _______ _______ _____ _____    ______ ____
ROOT
ATOM      1  N   UNL     1      32.635 -12.791 -22.347  0.00  0.00    -0.286 N 
ATOM      2  C   UNL     1      33.301 -13.985 -22.512  0.00  0.00    +0.053 C 
ATOM      3  C   UNL     1      33.389 -14.218 -23.886  0.00  0.00    +0.015 C 
ATOM      4  C   UNL     1      32.302 -12.263 -23.565  0.00  0.00    +0.065 C 
ATOM      5  C   UNL     1      32.755 -13.123 -24.537  0.00  0.00    +0.017 C 
ATOM      6  C   UNL     1      33.826 -14.866 -21.560  0.00  0.00    +0.029 C 
ATOM      7  C   UNL     1      34.033 -15.389 -24.335  0.00  0.00    +0.003 C 
ATOM      8  C   UNL     1      34.460 -16.021 -22.029  0.00  0.00    +0.052 C 
ATOM      9  C   UNL     1      34.563 -16.279 -23.395  0.00  0.00    +0.015 C 
ENDROOT
BRANCH   8  11
ATOM     10  O   UNL     1      36.379 -18.299 -22.436  0.00  0.00    -0.275 OA
ATOM     11  N   UNL     1      34.999 -16.926 -21.113  0.00  0.00    -0.284 N 
ATOM     12  C   UNL     1      35.904 -17.966 -21.354  0.00  0.00    +0.226 C 
ATOM     13  H   UNL     1      34.704 -16.819 -20.180  0.00  0.00    +0.155 HD
BRANCH  12  14
ATOM     14  C   UNL     1      36.256 -18.737 -20.091  0.00  0.00    +0.090 C 
BRANCH  14  15
ATOM     15  C   UNL     1      36.005 -20.236 -20.256  0.00  0.00    +0.036 C 
BRANCH  15  16
ATOM     16  C   UNL     1      34.699 -20.694 -19.654  0.00  0.00    -0.022 C 
ATOM     17  C   UNL     1      33.499 -20.120 -20.071  0.00  0.00    -0.004 C 
ATOM     18  C   UNL     1      34.692 -21.694 -18.680  0.00  0.00    -0.004 C 
ATOM     19  C   UNL     1      32.291 -20.543 -19.514  0.00  0.00    -0.000 C 
ATOM     20  C   UNL     1      33.485 -22.117 -18.124  0.00  0.00    -0.000 C 
ATOM     21  C   UNL     1      32.285 -21.541 -18.541  0.00  0.00    -0.000 C 
ENDBRANCH  15  16
ENDBRANCH  14  15
ENDBRANCH  12  14
ENDBRANCH   8  11
BRANCH   1  22
ATOM     22  C   UNL     1      32.325 -12.170 -21.076  0.00  0.00    +0.097 C 
BRANCH  22  23
ATOM     23  C   UNL     1      31.225 -11.102 -21.147  0.00  0.00    +0.040 C 
BRANCH  23  24
ATOM     24  C   UNL     1      31.619  -9.717 -20.586  0.00  0.00    +0.091 C 
BRANCH  24  25
ATOM     25  N   UNL     1      31.235  -8.596 -21.460  0.00  0.00    -0.246 NA
ATOM     26  N   UNL     1      30.563  -7.383 -23.195  0.00  0.00    -0.251 NA
ATOM     27  C   UNL     1      31.217  -7.265 -21.127  0.00  0.00    +0.125 C 
ATOM     28  C   UNL     1      30.836  -8.633 -22.712  0.00  0.00    +0.201 C 
ATOM     29  C   UNL     1      30.804  -6.493 -22.187  0.00  0.00    +0.124 C 
BRANCH  29  32
ATOM     30  O   UNL     1      30.067  -4.501 -23.227  0.00  0.00    -0.269 OA
ATOM     31  N   UNL     1      31.134  -4.296 -21.223  0.00  0.00    -0.324 N 
ATOM     32  C   UNL     1      30.642  -5.080 -22.274  0.00  0.00    +0.257 C 
ATOM     33  H   UNL     1      31.037  -3.317 -21.252  0.00  0.00    +0.145 HD
ATOM     34  H   UNL     1      31.576  -4.725 -20.453  0.00  0.00    +0.145 HD
ENDBRANCH  29  32
ENDBRANCH  24  25
BRANCH  24  35
ATOM     35  C   UNL     1      31.040  -9.520 -19.175  0.00  0.00    +0.153 C 
BRANCH  35  36
ATOM     36  O   UNL     1      32.090  -9.216 -18.264  0.00  0.00    -0.381 OA
ATOM     37  H   UNL     1      32.373  -8.297 -18.391  0.00  0.00    +0.210 HD
ENDBRANCH  35  36
ENDBRANCH  24  35
ENDBRANCH  23  24
ENDBRANCH  22  23
ENDBRANCH   1  22
TORSDOF 11
ENDMDL
MODEL 6
REMARK VINA RESULT:     -11.8      2.588     11.103
REMARK  Name = 448903
REMARK  11 active torsions:
REMARK  status: ('A' for Active; 'I' for Inactive)
REMARK    1  A    between atoms: N_1  and  C_22
REMARK    2  A    between atoms: C_8  and  N_11
REMARK    3  A    between atoms: C_12  and  C_14
REMARK    4  A    between atoms: C_14  and  C_15
REMARK    5  A    between atoms: C_15  and  C_16
REMARK    6  A    between atoms: C_22  and  C_23
REMARK    7  A    between atoms: C_23  and  C_24
REMARK    8  A    between atoms: C_24  and  N_25
REMARK    9  A    between atoms: C_24  and  C_35
REMARK   10  A    between atoms: C_29  and  C_32
REMARK   11  A    between atoms: C_35  and  O_36
REMARK                            x       y       z     vdW  Elec       q    Type
REMARK                         _______ _______ _______ _____ _____    ______ ____
ROOT
ATOM      1  N   UNL     1      33.946 -21.120 -18.990  0.00  0.00    -0.286 N 
ATOM      2  C   UNL     1      34.279 -21.782 -17.830  0.00  0.00    +0.053 C 
ATOM      3  C   UNL     1      33.084 -22.212 -17.247  0.00  0.00    +0.015 C 
ATOM      4  C   UNL     1      32.588 -21.116 -19.160  0.00  0.00    +0.065 C 
ATOM      5  C   UNL     1      32.027 -21.785 -18.097  0.00  0.00    +0.017 C 
ATOM      6  C   UNL     1      35.532 -22.032 -17.260  0.00  0.00    +0.029 C 
ATOM      7  C   UNL     1      33.142 -22.925 -16.032  0.00  0.00    +0.003 C 
ATOM      8  C   UNL     1      35.564 -22.742 -16.055  0.00  0.00    +0.052 C 
ATOM      9  C   UNL     1      34.388 -23.183 -15.450  0.00  0.00    +0.015 C 
ENDROOT
BRANCH   8  11
ATOM     10  O   UNL     1      36.803 -25.358 -15.243  0.00  0.00    -0.275 OA
ATOM     11  N   UNL     1      36.793 -23.014 -15.453  0.00  0.00    -0.284 N 
ATOM     12  C   UNL     1      37.332 -24.259 -15.106  0.00  0.00    +0.226 C 
ATOM     13  H   UNL     1      37.353 -22.230 -15.246  0.00  0.00    +0.155 HD
BRANCH  12  14
ATOM     14  C   UNL     1      38.705 -24.141 -14.464  0.00  0.00    +0.090 C 
BRANCH  14  15
ATOM     15  C   UNL     1      38.718 -24.717 -13.048  0.00  0.00    +0.036 C 
BRANCH  15  16
ATOM     16  C   UNL     1      37.555 -24.256 -12.203  0.00  0.00    -0.022 C 
ATOM     17  C   UNL     1      36.609 -25.177 -11.755  0.00  0.00    -0.004 C 
ATOM     18  C   UNL     1      37.426 -22.907 -11.871  0.00  0.00    -0.004 C 
ATOM     19  C   UNL     1      35.534 -24.750 -10.975  0.00  0.00    -0.000 C 
ATOM     20  C   UNL     1      36.351 -22.480 -11.091  0.00  0.00    -0.000 C 
ATOM     21  C   UNL     1      35.405 -23.402 -10.643  0.00  0.00    -0.000 C 
ENDBRANCH  15  16
ENDBRANCH  14  15
ENDBRANCH  12  14
ENDBRANCH   8  11
BRANCH   1  22
ATOM     22  C   UNL     1      34.884 -20.509 -19.909  0.00  0.00    +0.097 C 
BRANCH  22  23
ATOM     23  C   UNL     1      34.274 -19.425 -20.807  0.00  0.00    +0.040 C 
BRANCH  23  24
ATOM     24  C   UNL     1      35.214 -18.876 -21.904  0.00  0.00    +0.091 C 
BRANCH  24  25
ATOM     25  N   UNL     1      34.515 -18.111 -22.950  0.00  0.00    -0.246 NA
ATOM     26  N   UNL     1      33.320 -17.544 -24.733  0.00  0.00    -0.251 NA
ATOM     27  C   UNL     1      34.444 -16.744 -23.056  0.00  0.00    +0.125 C 
ATOM     28  C   UNL     1      33.828 -18.562 -23.974  0.00  0.00    +0.201 C 
ATOM     29  C   UNL     1      33.708 -16.369 -24.155  0.00  0.00    +0.124 C 
BRANCH  29  32
ATOM     30  O   UNL     1      33.103 -14.810 -25.827  0.00  0.00    -0.269 OA
ATOM     31  N   UNL     1      33.367 -14.013 -23.708  0.00  0.00    -0.324 N 
ATOM     32  C   UNL     1      33.387 -15.065 -24.632  0.00  0.00    +0.257 C 
ATOM     33  H   UNL     1      33.149 -13.101 -24.006  0.00  0.00    +0.145 HD
ATOM     34  H   UNL     1      33.571 -14.186 -22.760  0.00  0.00    +0.145 HD
ENDBRANCH  29  32
ENDBRANCH  24  25
BRANCH  24  35
ATOM     35  C   UNL     1      36.338 -18.031 -21.280  0.00  0.00    +0.153 C 
BRANCH  35  36
ATOM     36  O   UNL     1      37.508 -18.122 -22.085  0.00  0.00    -0.381 OA
ATOM     37  H   UNL     1      37.262 -18.383 -22.986  0.00  0.00    +0.210 HD
ENDBRANCH  35  36
ENDBRANCH  24  35
ENDBRANCH  23  24
ENDBRANCH  22  23
ENDBRANCH   1  22
TORSDOF 11
ENDMDL
MODEL 7
REMARK VINA RESULT:     -11.6      4.072      6.185
REMARK  Name = 448903
REMARK  11 active torsions:
REMARK  status: ('A' for Active; 'I' for Inactive)
REMARK    1  A    between atoms: N_1  and  C_22
REMARK    2  A    between atoms: C_8  and  N_11
REMARK    3  A    between atoms: C_12  and  C_14
REMARK    4  A    between atoms: C_14  and  C_15
REMARK    5  A    between atoms: C_15  and  C_16
REMARK    6  A    between atoms: C_22  and  C_23
REMARK    7  A    between atoms: C_23  and  C_24
REMARK    8  A    between atoms: C_24  and  N_25
REMARK    9  A    between atoms: C_24  and  C_35
REMARK   10  A    between atoms: C_29  and  C_32
REMARK   11  A    between atoms: C_35  and  O_36
REMARK                            x       y       z     vdW  Elec       q    Type
REMARK                         _______ _______ _______ _____ _____    ______ ____
ROOT
ATOM      1  N   UNL     1      33.903 -21.591 -18.378  0.00  0.00    -0.286 N 
ATOM      2  C   UNL     1      34.389 -20.696 -19.305  0.00  0.00    +0.053 C 
ATOM      3  C   UNL     1      35.762 -20.575 -19.077  0.00  0.00    +0.015 C 
ATOM      4  C   UNL     1      34.918 -22.038 -17.576  0.00  0.00    +0.065 C 
ATOM      5  C   UNL     1      36.081 -21.428 -17.983  0.00  0.00    +0.017 C 
ATOM      6  C   UNL     1      33.726 -19.993 -20.317  0.00  0.00    +0.029 C 
ATOM      7  C   UNL     1      36.511 -19.708 -19.898  0.00  0.00    +0.003 C 
ATOM      8  C   UNL     1      34.490 -19.140 -21.119  0.00  0.00    +0.052 C 
ATOM      9  C   UNL     1      35.862 -18.999 -20.914  0.00  0.00    +0.015 C 
ENDROOT
BRANCH   8  11
ATOM     10  O   UNL     1      34.505 -19.567 -24.095  0.00  0.00    -0.275 OA
ATOM     11  N   UNL     1      33.868 -18.421 -22.140  0.00  0.00    -0.284 N 
ATOM     12  C   UNL     1      33.896 -18.671 -23.518  0.00  0.00    +0.226 C 
ATOM     13  H   UNL     1      33.343 -17.637 -21.857  0.00  0.00    +0.155 HD
BRANCH  12  14
ATOM     14  C   UNL     1      33.088 -17.656 -24.311  0.00  0.00    +0.090 C 
BRANCH  14  15
ATOM     15  C   UNL     1      33.934 -16.444 -24.702  0.00  0.00    +0.036 C 
BRANCH  15  16
ATOM     16  C   UNL     1      33.713 -15.247 -23.809  0.00  0.00    -0.022 C 
ATOM     17  C   UNL     1      34.179 -15.263 -22.495  0.00  0.00    -0.004 C 
ATOM     18  C   UNL     1      33.044 -14.125 -24.298  0.00  0.00    -0.004 C 
ATOM     19  C   UNL     1      33.975 -14.157 -21.669  0.00  0.00    -0.000 C 
ATOM     20  C   UNL     1      32.840 -13.020 -23.472  0.00  0.00    -0.000 C 
ATOM     21  C   UNL     1      33.306 -13.036 -22.157  0.00  0.00    -0.000 C 
ENDBRANCH  15  16
ENDBRANCH  14  15
ENDBRANCH  12  14
ENDBRANCH   8  11
BRANCH   1  22
ATOM     22  C   UNL     1      32.523 -22.009 -18.257  0.00  0.00    +0.097 C 
BRANCH  22  23
ATOM     23  C   UNL     1      32.281 -23.093 -17.197  0.00  0.00    +0.040 C 
BRANCH  23  24
ATOM     24  C   UNL     1      31.636 -22.595 -15.884  0.00  0.00    +0.091 C 
BRANCH  24  25
ATOM     25  N   UNL     1      30.193 -22.872 -15.795  0.00  0.00    -0.246 NA
ATOM     26  N   UNL     1      28.231 -23.860 -15.463  0.00  0.00    -0.251 NA
ATOM     27  C   UNL     1      29.171 -22.006 -16.095  0.00  0.00    +0.125 C 
ATOM     28  C   UNL     1      29.593 -23.979 -15.418  0.00  0.00    +0.201 C 
ATOM     29  C   UNL     1      27.945 -22.596 -15.897  0.00  0.00    +0.124 C 
BRANCH  29  32
ATOM     30  O   UNL     1      25.792 -21.950 -15.164  0.00  0.00    -0.269 OA
ATOM     31  N   UNL     1      26.289 -21.609 -17.362  0.00  0.00    -0.324 N 
ATOM     32  C   UNL     1      26.639 -22.060 -16.084  0.00  0.00    +0.257 C 
ATOM     33  H   UNL     1      25.393 -21.233 -17.524  0.00  0.00    +0.145 HD
ATOM     34  H   UNL     1      26.938 -21.668 -18.100  0.00  0.00    +0.145 HD
ENDBRANCH  29  32
ENDBRANCH  24  25
BRANCH  24  35
ATOM     35  C   UNL     1      32.371 -23.176 -14.665  0.00  0.00    +0.153 C 
BRANCH  35  36
ATOM     36  O   UNL     1      33.448 -22.320 -14.301  0.00  0.00    -0.381 OA
ATOM     37  H   UNL     1      33.702 -22.494 -13.381  0.00  0.00    +0.210 HD
ENDBRANCH  35  36
ENDBRANCH  24  35
ENDBRANCH  23  24
ENDBRANCH  22  23
ENDBRANCH   1  22
TORSDOF 11
ENDMDL
MODEL 8
REMARK VINA RESULT:     -11.6      5.284      9.861
REMARK  Name = 448903
REMARK  11 active torsions:
REMARK  status: ('A' for Active; 'I' for Inactive)
REMARK    1  A    between atoms: N_1  and  C_22
REMARK    2  A    between atoms: C_8  and  N_11
REMARK    3  A    between atoms: C_12  and  C_14
REMARK    4  A    between atoms: C_14  and  C_15
REMARK    5  A    between atoms: C_15  and  C_16
REMARK    6  A    between atoms: C_22  and  C_23
REMARK    7  A    between atoms: C_23  and  C_24
REMARK    8  A    between atoms: C_24  and  N_25
REMARK    9  A    between atoms: C_24  and  C_35
REMARK   10  A    between atoms: C_29  and  C_32
REMARK   11  A    between atoms: C_35  and  O_36
REMARK                            x       y       z     vdW  Elec       q    Type
REMARK                         _______ _______ _______ _____ _____    ______ ____
ROOT
ATOM      1  N   UNL     1      34.122 -15.639 -22.929  0.00  0.00    -0.286 N 
ATOM      2  C   UNL     1      33.593 -14.456 -23.393  0.00  0.00    +0.053 C 
ATOM      3  C   UNL     1      33.315 -14.636 -24.751  0.00  0.00    +0.015 C 
ATOM      4  C   UNL     1      34.186 -16.558 -23.941  0.00  0.00    +0.065 C 
ATOM      5  C   UNL     1      33.694 -15.967 -25.081  0.00  0.00    +0.017 C 
ATOM      6  C   UNL     1      33.342 -13.253 -22.724  0.00  0.00    +0.029 C 
ATOM      7  C   UNL     1      32.759 -13.563 -25.477  0.00  0.00    +0.003 C 
ATOM      8  C   UNL     1      32.790 -12.203 -23.465  0.00  0.00    +0.052 C 
ATOM      9  C   UNL     1      32.502 -12.354 -24.820  0.00  0.00    +0.015 C 
ENDROOT
BRANCH   8  11
ATOM     10  O   UNL     1      30.719 -11.485 -21.407  0.00  0.00    -0.275 OA
ATOM     11  N   UNL     1      32.523 -10.987 -22.834  0.00  0.00    -0.284 N 
ATOM     12  C   UNL     1      31.550 -10.707 -21.867  0.00  0.00    +0.226 C 
ATOM     13  H   UNL     1      33.091 -10.229 -23.104  0.00  0.00    +0.155 HD
BRANCH  12  14
ATOM     14  C   UNL     1      31.571  -9.254 -21.422  0.00  0.00    +0.090 C 
BRANCH  14  15
ATOM     15  C   UNL     1      30.959  -8.331 -22.476  0.00  0.00    +0.036 C 
BRANCH  15  16
ATOM     16  C   UNL     1      31.940  -7.330 -23.037  0.00  0.00    -0.022 C 
ATOM     17  C   UNL     1      31.759  -6.822 -24.323  0.00  0.00    -0.004 C 
ATOM     18  C   UNL     1      33.027  -6.913 -22.269  0.00  0.00    -0.004 C 
ATOM     19  C   UNL     1      32.666  -5.897 -24.842  0.00  0.00    -0.000 C 
ATOM     20  C   UNL     1      33.934  -5.989 -22.788  0.00  0.00    -0.000 C 
ATOM     21  C   UNL     1      33.753  -5.480 -24.074  0.00  0.00    -0.000 C 
ENDBRANCH  15  16
ENDBRANCH  14  15
ENDBRANCH  12  14
ENDBRANCH   8  11
BRANCH   1  22
ATOM     22  C   UNL     1      34.552 -15.891 -21.570  0.00  0.00    +0.097 C 
BRANCH  22  23
ATOM     23  C   UNL     1      34.298 -17.324 -21.083  0.00  0.00    +0.040 C 
BRANCH  23  24
ATOM     24  C   UNL     1      35.569 -18.173 -20.850  0.00  0.00    +0.091 C 
BRANCH  24  25
ATOM     25  N   UNL     1      35.310 -19.439 -20.145  0.00  0.00    -0.246 NA
ATOM     26  N   UNL     1      35.537 -21.285 -18.930  0.00  0.00    -0.251 NA
ATOM     27  C   UNL     1      34.118 -20.117 -20.088  0.00  0.00    +0.125 C 
ATOM     28  C   UNL     1      36.143 -20.169 -19.438  0.00  0.00    +0.201 C 
ATOM     29  C   UNL     1      34.234 -21.265 -19.340  0.00  0.00    +0.124 C 
BRANCH  29  32
ATOM     30  O   UNL     1      33.367 -23.464 -19.316  0.00  0.00    -0.269 OA
ATOM     31  N   UNL     1      32.104 -21.837 -18.339  0.00  0.00    -0.324 N 
ATOM     32  C   UNL     1      33.252 -22.249 -19.028  0.00  0.00    +0.257 C 
ATOM     33  H   UNL     1      31.407 -22.493 -18.108  0.00  0.00    +0.145 HD
ATOM     34  H   UNL     1      31.994 -20.892 -18.086  0.00  0.00    +0.145 HD
ENDBRANCH  29  32
ENDBRANCH  24  25
BRANCH  24  35
ATOM     35  C   UNL     1      36.294 -18.437 -22.180  0.00  0.00    +0.153 C 
BRANCH  35  36
ATOM     36  O   UNL     1      37.650 -18.019 -22.078  0.00  0.00    -0.381 OA
ATOM     37  H   UNL     1      38.130 -18.279 -22.880  0.00  0.00    +0.210 HD
ENDBRANCH  35  36
ENDBRANCH  24  35
ENDBRANCH  23  24
ENDBRANCH  22  23
ENDBRANCH   1  22
TORSDOF 11
ENDMDL
MODEL 9
REMARK VINA RESULT:     -11.5      2.754      4.754
REMARK  Name = 448903
REMARK  11 active torsions:
REMARK  status: ('A' for Active; 'I' for Inactive)
REMARK    1  A    between atoms: N_1  and  C_22
REMARK    2  A    between atoms: C_8  and  N_11
REMARK    3  A    between atoms: C_12  and  C_14
REMARK    4  A    between atoms: C_14  and  C_15
REMARK    5  A    between atoms: C_15  and  C_16
REMARK    6  A    between atoms: C_22  and  C_23
REMARK    7  A    between atoms: C_23  and  C_24
REMARK    8  A    between atoms: C_24  and  N_25
REMARK    9  A    between atoms: C_24  and  C_35
REMARK   10  A    between atoms: C_29  and  C_32
REMARK   11  A    between atoms: C_35  and  O_36
REMARK                            x       y       z     vdW  Elec       q    Type
REMARK                         _______ _______ _______ _____ _____    ______ ____
ROOT
ATOM      1  N   UNL     1      33.675 -21.764 -18.240  0.00  0.00    -0.286 N 
ATOM      2  C   UNL     1      34.223 -20.887 -19.149  0.00  0.00    +0.053 C 
ATOM      3  C   UNL     1      35.590 -20.810 -18.870  0.00  0.00    +0.015 C 
ATOM      4  C   UNL     1      34.644 -22.244 -17.401  0.00  0.00    +0.065 C 
ATOM      5  C   UNL     1      35.840 -21.672 -17.766  0.00  0.00    +0.017 C 
ATOM      6  C   UNL     1      33.621 -20.163 -20.184  0.00  0.00    +0.029 C 
ATOM      7  C   UNL     1      36.397 -19.969 -19.663  0.00  0.00    +0.003 C 
ATOM      8  C   UNL     1      34.442 -19.337 -20.958  0.00  0.00    +0.052 C 
ATOM      9  C   UNL     1      35.809 -19.241 -20.703  0.00  0.00    +0.015 C 
ENDROOT
BRANCH   8  11
ATOM     10  O   UNL     1      34.594 -19.741 -23.933  0.00  0.00    -0.275 OA
ATOM     11  N   UNL     1      33.882 -18.599 -22.001  0.00  0.00    -0.284 N 
ATOM     12  C   UNL     1      33.972 -18.839 -23.378  0.00  0.00    +0.226 C 
ATOM     13  H   UNL     1      33.357 -17.809 -21.736  0.00  0.00    +0.155 HD
BRANCH  12  14
ATOM     14  C   UNL     1      33.221 -17.804 -24.200  0.00  0.00    +0.090 C 
BRANCH  14  15
ATOM     15  C   UNL     1      34.101 -16.597 -24.530  0.00  0.00    +0.036 C 
BRANCH  15  16
ATOM     16  C   UNL     1      33.773 -15.375 -23.707  0.00  0.00    -0.022 C 
ATOM     17  C   UNL     1      33.027 -14.338 -24.264  0.00  0.00    -0.004 C 
ATOM     18  C   UNL     1      34.217 -15.285 -22.387  0.00  0.00    -0.004 C 
ATOM     19  C   UNL     1      32.725 -13.209 -23.503  0.00  0.00    -0.000 C 
ATOM     20  C   UNL     1      33.915 -14.155 -21.626  0.00  0.00    -0.000 C 
ATOM     21  C   UNL     1      33.169 -13.117 -22.184  0.00  0.00    -0.000 C 
ENDBRANCH  15  16
ENDBRANCH  14  15
ENDBRANCH  12  14
ENDBRANCH   8  11
BRANCH   1  22
ATOM     22  C   UNL     1      32.278 -22.137 -18.170  0.00  0.00    +0.097 C 
BRANCH  22  23
ATOM     23  C   UNL     1      31.638 -21.932 -16.790  0.00  0.00    +0.040 C 
BRANCH  23  24
ATOM     24  C   UNL     1      31.025 -23.201 -16.156  0.00  0.00    +0.091 C 
BRANCH  24  25
ATOM     25  N   UNL     1      31.632 -23.567 -14.865  0.00  0.00    -0.246 NA
ATOM     26  N   UNL     1      31.967 -24.370 -12.822  0.00  0.00    -0.251 NA
ATOM     27  C   UNL     1      32.913 -23.294 -14.456  0.00  0.00    +0.125 C 
ATOM     28  C   UNL     1      31.089 -24.215 -13.859  0.00  0.00    +0.201 C 
ATOM     29  C   UNL     1      33.145 -23.783 -13.191  0.00  0.00    +0.124 C 
BRANCH  29  32
ATOM     30  O   UNL     1      34.522 -24.438 -11.385  0.00  0.00    -0.269 OA
ATOM     31  N   UNL     1      35.331 -22.827 -12.780  0.00  0.00    -0.324 N 
ATOM     32  C   UNL     1      34.325 -23.722 -12.396  0.00  0.00    +0.257 C 
ATOM     33  H   UNL     1      36.159 -22.761 -12.251  0.00  0.00    +0.145 HD
ATOM     34  H   UNL     1      35.211 -22.263 -13.578  0.00  0.00    +0.145 HD
ENDBRANCH  29  32
ENDBRANCH  24  25
BRANCH  24  35
ATOM     35  C   UNL     1      29.502 -23.052 -16.011  0.00  0.00    +0.153 C 
BRANCH  35  36
ATOM     36  O   UNL     1      29.032 -22.041 -16.896  0.00  0.00    -0.381 OA
ATOM     37  H   UNL     1      29.150 -21.170 -16.484  0.00  0.00    +0.210 HD
ENDBRANCH  35  36
ENDBRANCH  24  35
ENDBRANCH  23  24
ENDBRANCH  22  23
ENDBRANCH   1  22
TORSDOF 11
ENDMDL
