MODEL 1
REMARK VINA RESULT:     -12.1      0.000      0.000
REMARK  Name = 5288581
REMARK  14 active torsions:
REMARK  status: ('A' for Active; 'I' for Inactive)
REMARK    1  A    between atoms: C_1  and  C_2
REMARK    2  A    between atoms: C_1  and  C_20
REMARK    3  A    between atoms: C_2  and  C_4
REMARK    4  A    between atoms: C_2  and  C_10
REMARK    5  A    between atoms: N_9  and  CA_12
REMARK    6  A    between atoms: CA_12  and  C_14
REMARK    7  A    between atoms: CA_12  and  CB_15
REMARK    8  A    between atoms: CB_15  and  CG_17
REMARK    9  A    between atoms: CG_17  and  OD1_18
REMARK   10  A    between atoms: C_20  and  C_21
REMARK   11  A    between atoms: C_21  and  C_22
REMARK   12  A    between atoms: C_22  and  N_24
REMARK   13  A    between atoms: C_25  and  C_28
REMARK   14  A    between atoms: C_33  and  O_37
REMARK                            x       y       z     vdW  Elec       q    Type
REMARK                         _______ _______ _______ _____ _____    ______ ____
ROOT
ATOM      1  C   UNL     1      35.220 -22.377 -16.270  0.00  0.00    +0.014 C 
ENDROOT
BRANCH   1   2
ATOM      2  C   UNL     1      34.967 -23.003 -14.884  0.00  0.00    +0.105 C 
BRANCH   2   4
ATOM      3  S   UNL     1      32.962 -23.921 -13.166  0.00  0.00    -0.090 S 
ATOM      4  C   UNL     1      33.482 -23.242 -14.650  0.00  0.00    +0.016 C 
ATOM      5  C   UNL     1      32.427 -22.981 -15.496  0.00  0.00    +0.003 C 
ATOM      6  C   UNL     1      31.176 -23.344 -14.920  0.00  0.00    +0.007 C 
ATOM      7  C   UNL     1      31.322 -23.868 -13.654  0.00  0.00    +0.035 C 
ENDBRANCH   2   4
BRANCH   2  10
ATOM      8  O   UNL     1      35.433 -25.340 -15.353  0.00  0.00    -0.275 OA
ATOM      9  N   UNL     1      36.670 -24.268 -13.707  0.00  0.00    -0.299 N 
ATOM     10  C   ACE A   0      35.700 -24.334 -14.697  0.00  0.00    +0.227 C 
ATOM     11  H   UNL     1      36.808 -23.414 -13.238  0.00  0.00    +0.150 HD
BRANCH   9  12
ATOM     12  CA  UNL     1      37.489 -25.400 -13.335  0.00  0.00    +0.148 C 
BRANCH  12  14
ATOM     13  O   UNL     1      36.138 -25.301 -11.331  0.00  0.00    -0.286 OA
ATOM     14  C   UNL     1      37.117 -25.761 -11.913  0.00  0.00    +0.227 C 
ENDBRANCH  12  14
BRANCH  12  15
ATOM     15  CB  UNL     1      38.975 -25.100 -13.480  0.00  0.00    +0.137 C 
BRANCH  15  17
ATOM     16  OD2 UNL     1      39.027 -23.399 -15.195  0.00  0.00    -0.250 OA
ATOM     17  CG  UNL     1      39.289 -24.543 -14.847  0.00  0.00    +0.316 C 
BRANCH  17  18
ATOM     18  OD1 UNL     1      39.877 -25.455 -15.660  0.00  0.00    -0.480 OA
ATOM     19  HD1 UNL     1      40.415 -25.169 -16.373  0.00  0.00    +0.295 HD
ENDBRANCH  17  18
ENDBRANCH  15  17
ENDBRANCH  12  15
ENDBRANCH   9  12
ENDBRANCH   2  10
ENDBRANCH   1   2
BRANCH   1  20
ATOM     20  C   UNL     1      36.561 -21.638 -16.333  0.00  0.00    +0.003 C 
BRANCH  20  21
ATOM     21  C   UNL     1      36.602 -20.661 -17.508  0.00  0.00    +0.021 C 
BRANCH  21  22
ATOM     22  C   UNL     1      35.871 -21.220 -18.722  0.00  0.00    +0.090 C 
BRANCH  22  24
ATOM     23  O   UNL     1      33.374 -20.438 -19.905  0.00  0.00    -0.267 OA
ATOM     24  N   UNL     1      35.677 -20.216 -19.731  0.00  0.00    -0.299 N 
ATOM     25  C   UNL     1      34.425 -19.902 -20.247  0.00  0.00    +0.276 C 
ATOM     26  H   UNL     1      36.463 -19.729 -20.070  0.00  0.00    +0.150 HD
BRANCH  25  28
ATOM     27  N   UNL     1      34.286 -17.583 -20.864  0.00  0.00    -0.398 NA
ATOM     28  C   UNL     1      34.396 -18.858 -21.305  0.00  0.00    +0.184 C 
ATOM     29  C   UNL     1      34.255 -16.595 -21.778  0.00  0.00    +0.150 C 
ATOM     30  C   UNL     1      34.479 -19.212 -22.635  0.00  0.00    +0.033 C 
ATOM     31  C   UNL     1      34.334 -16.857 -23.161  0.00  0.00    +0.099 C 
ATOM     32  C   UNL     1      34.447 -18.192 -23.575  0.00  0.00    -0.012 C 
ATOM     33  C   UNL     1      34.142 -15.269 -21.369  0.00  0.00    +0.160 C 
ATOM     34  C   UNL     1      34.298 -15.801 -24.087  0.00  0.00    -0.015 C 
ATOM     35  C   UNL     1      34.106 -14.219 -22.289  0.00  0.00    +0.039 C 
ATOM     36  C   UNL     1      34.185 -14.485 -23.650  0.00  0.00    -0.001 C 
BRANCH  33  37
ATOM     37  O   UNL     1      34.062 -14.967 -20.037  0.00  0.00    -0.503 OA
ATOM     38  H   UNL     1      34.627 -15.397 -19.425  0.00  0.00    +0.292 HD
ENDBRANCH  33  37
ENDBRANCH  25  28
ENDBRANCH  22  24
ENDBRANCH  21  22
ENDBRANCH  20  21
ENDBRANCH   1  20
TORSDOF 14
ENDMDL
MODEL 2
REMARK VINA RESULT:     -11.9      1.808      2.080
REMARK  Name = 5288581
REMARK  14 active torsions:
REMARK  status: ('A' for Active; 'I' for Inactive)
REMARK    1  A    between atoms: C_1  and  C_2
REMARK    2  A    between atoms: C_1  and  C_20
REMARK    3  A    between atoms: C_2  and  C_4
REMARK    4  A    between atoms: C_2  and  C_10
REMARK    5  A    between atoms: N_9  and  CA_12
REMARK    6  A    between atoms: CA_12  and  C_14
REMARK    7  A    between atoms: CA_12  and  CB_15
REMARK    8  A    between atoms: CB_15  and  CG_17
REMARK    9  A    between atoms: CG_17  and  OD1_18
REMARK   10  A    between atoms: C_20  and  C_21
REMARK   11  A    between atoms: C_21  and  C_22
REMARK   12  A    between atoms: C_22  and  N_24
REMARK   13  A    between atoms: C_25  and  C_28
REMARK   14  A    between atoms: C_33  and  O_37
REMARK                            x       y       z     vdW  Elec       q    Type
REMARK                         _______ _______ _______ _____ _____    ______ ____
ROOT
ATOM      1  C   UNL     1      33.428 -22.653 -17.076  0.00  0.00    +0.014 C 
ENDROOT
BRANCH   1   2
ATOM      2  C   UNL     1      33.535 -22.593 -15.539  0.00  0.00    +0.105 C 
BRANCH   2   4
ATOM      3  S   UNL     1      30.792 -23.034 -15.858  0.00  0.00    -0.090 S 
ATOM      4  C   UNL     1      32.190 -22.873 -14.882  0.00  0.00    +0.016 C 
ATOM      5  C   UNL     1      31.905 -23.026 -13.543  0.00  0.00    +0.003 C 
ATOM      6  C   UNL     1      30.522 -23.278 -13.315  0.00  0.00    +0.007 C 
ATOM      7  C   UNL     1      29.802 -23.309 -14.490  0.00  0.00    +0.035 C 
ENDBRANCH   2   4
BRANCH   2  10
ATOM      8  O   UNL     1      34.591 -24.769 -15.323  0.00  0.00    -0.275 OA
ATOM      9  N   UNL     1      35.403 -23.008 -14.048  0.00  0.00    -0.299 N 
ATOM     10  C   ACE A   0      34.555 -23.588 -14.980  0.00  0.00    +0.227 C 
ATOM     11  H   UNL     1      35.293 -22.052 -13.841  0.00  0.00    +0.150 HD
BRANCH   9  12
ATOM     12  CA  UNL     1      36.444 -23.745 -13.368  0.00  0.00    +0.148 C 
BRANCH  12  14
ATOM     13  O   UNL     1      37.649 -22.149 -12.008  0.00  0.00    -0.286 OA
ATOM     14  C   UNL     1      36.757 -22.989 -12.095  0.00  0.00    +0.227 C 
ENDBRANCH  12  14
BRANCH  12  15
ATOM     15  CB  UNL     1      37.676 -23.930 -14.243  0.00  0.00    +0.137 C 
BRANCH  15  17
ATOM     16  OD2 UNL     1      38.918 -25.920 -13.664  0.00  0.00    -0.250 OA
ATOM     17  CG  UNL     1      38.057 -25.386 -14.351  0.00  0.00    +0.316 C 
BRANCH  17  18
ATOM     18  OD1 UNL     1      37.355 -26.040 -15.309  0.00  0.00    -0.480 OA
ATOM     19  HD1 UNL     1      36.612 -25.629 -15.708  0.00  0.00    +0.295 HD
ENDBRANCH  17  18
ENDBRANCH  15  17
ENDBRANCH  12  15
ENDBRANCH   9  12
ENDBRANCH   2  10
ENDBRANCH   1   2
BRANCH   1  20
ATOM     20  C   UNL     1      34.553 -21.871 -17.762  0.00  0.00    +0.003 C 
BRANCH  20  21
ATOM     21  C   UNL     1      34.078 -21.255 -19.078  0.00  0.00    +0.021 C 
BRANCH  21  22
ATOM     22  C   UNL     1      35.243 -20.680 -19.875  0.00  0.00    +0.090 C 
BRANCH  22  24
ATOM     23  O   UNL     1      36.613 -18.206 -20.370  0.00  0.00    -0.267 OA
ATOM     24  N   UNL     1      34.814 -19.621 -20.748  0.00  0.00    -0.299 N 
ATOM     25  C   UNL     1      35.546 -18.454 -20.927  0.00  0.00    +0.276 C 
ATOM     26  H   UNL     1      33.968 -19.728 -21.239  0.00  0.00    +0.150 HD
BRANCH  25  28
ATOM     27  N   UNL     1      34.691 -16.237 -21.289  0.00  0.00    -0.398 NA
ATOM     28  C   UNL     1      34.954 -17.444 -21.842  0.00  0.00    +0.184 C 
ATOM     29  C   UNL     1      34.153 -15.282 -22.072  0.00  0.00    +0.150 C 
ATOM     30  C   UNL     1      34.707 -17.761 -23.162  0.00  0.00    +0.033 C 
ATOM     31  C   UNL     1      33.865 -15.511 -23.433  0.00  0.00    +0.099 C 
ATOM     32  C   UNL     1      34.153 -16.775 -23.966  0.00  0.00    -0.012 C 
ATOM     33  C   UNL     1      33.866 -14.027 -21.544  0.00  0.00    +0.160 C 
ATOM     34  C   UNL     1      33.304 -14.491 -24.221  0.00  0.00    -0.015 C 
ATOM     35  C   UNL     1      33.309 -13.013 -22.326  0.00  0.00    +0.039 C 
ATOM     36  C   UNL     1      33.028 -13.245 -23.667  0.00  0.00    -0.001 C 
BRANCH  33  37
ATOM     37  O   UNL     1      34.129 -13.760 -20.228  0.00  0.00    -0.503 OA
ATOM     38  H   UNL     1      33.741 -14.286 -19.557  0.00  0.00    +0.292 HD
ENDBRANCH  33  37
ENDBRANCH  25  28
ENDBRANCH  22  24
ENDBRANCH  21  22
ENDBRANCH  20  21
ENDBRANCH   1  20
TORSDOF 14
ENDMDL
MODEL 3
REMARK VINA RESULT:     -11.4      2.048      2.864
REMARK  Name = 5288581
REMARK  14 active torsions:
REMARK  status: ('A' for Active; 'I' for Inactive)
REMARK    1  A    between atoms: C_1  and  C_2
REMARK    2  A    between atoms: C_1  and  C_20
REMARK    3  A    between atoms: C_2  and  C_4
REMARK    4  A    between atoms: C_2  and  C_10
REMARK    5  A    between atoms: N_9  and  CA_12
REMARK    6  A    between atoms: CA_12  and  C_14
REMARK    7  A    between atoms: CA_12  and  CB_15
REMARK    8  A    between atoms: CB_15  and  CG_17
REMARK    9  A    between atoms: CG_17  and  OD1_18
REMARK   10  A    between atoms: C_20  and  C_21
REMARK   11  A    between atoms: C_21  and  C_22
REMARK   12  A    between atoms: C_22  and  N_24
REMARK   13  A    between atoms: C_25  and  C_28
REMARK   14  A    between atoms: C_33  and  O_37
REMARK                            x       y       z     vdW  Elec       q    Type
REMARK                         _______ _______ _______ _____ _____    ______ ____
ROOT
ATOM      1  C   UNL     1      33.411 -22.594 -17.678  0.00  0.00    +0.014 C 
ENDROOT
BRANCH   1   2
ATOM      2  C   UNL     1      33.386 -22.486 -16.140  0.00  0.00    +0.105 C 
BRANCH   2   4
ATOM      3  S   UNL     1      31.737 -22.814 -13.906  0.00  0.00    -0.090 S 
ATOM      4  C   UNL     1      31.977 -22.679 -15.597  0.00  0.00    +0.016 C 
ATOM      5  C   UNL     1      30.793 -22.766 -16.295  0.00  0.00    +0.003 C 
ATOM      6  C   UNL     1      29.675 -22.947 -15.432  0.00  0.00    +0.007 C 
ATOM      7  C   UNL     1      30.047 -22.991 -14.106  0.00  0.00    +0.035 C 
ENDBRANCH   2   4
BRANCH   2  10
ATOM      8  O   UNL     1      34.321 -24.697 -15.776  0.00  0.00    -0.275 OA
ATOM      9  N   UNL     1      35.081 -22.939 -14.464  0.00  0.00    -0.299 N 
ATOM     10  C   ACE A   0      34.303 -23.508 -15.462  0.00  0.00    +0.227 C 
ATOM     11  H   UNL     1      34.993 -21.975 -14.289  0.00  0.00    +0.150 HD
BRANCH   9  12
ATOM     12  CA  UNL     1      36.018 -23.701 -13.670  0.00  0.00    +0.148 C 
BRANCH  12  14
ATOM     13  O   UNL     1      37.452 -22.177 -12.458  0.00  0.00    -0.286 OA
ATOM     14  C   UNL     1      36.411 -22.828 -12.499  0.00  0.00    +0.227 C 
ENDBRANCH  12  14
BRANCH  12  15
ATOM     15  CB  UNL     1      37.224 -24.147 -14.484  0.00  0.00    +0.137 C 
BRANCH  15  17
ATOM     16  OD2 UNL     1      37.819 -26.284 -13.526  0.00  0.00    -0.250 OA
ATOM     17  CG  UNL     1      37.369 -25.649 -14.471  0.00  0.00    +0.316 C 
BRANCH  17  18
ATOM     18  OD1 UNL     1      36.965 -26.223 -15.631  0.00  0.00    -0.480 OA
ATOM     19  HD1 UNL     1      36.284 -26.869 -15.622  0.00  0.00    +0.295 HD
ENDBRANCH  17  18
ENDBRANCH  15  17
ENDBRANCH  12  15
ENDBRANCH   9  12
ENDBRANCH   2  10
ENDBRANCH   1   2
BRANCH   1  20
ATOM     20  C   UNL     1      34.403 -21.611 -18.309  0.00  0.00    +0.003 C 
BRANCH  20  21
ATOM     21  C   UNL     1      33.777 -20.873 -19.492  0.00  0.00    +0.021 C 
BRANCH  21  22
ATOM     22  C   UNL     1      34.829 -20.120 -20.298  0.00  0.00    +0.090 C 
BRANCH  22  24
ATOM     23  O   UNL     1      36.240 -18.196 -21.894  0.00  0.00    -0.267 OA
ATOM     24  N   UNL     1      34.388 -18.793 -20.631  0.00  0.00    -0.299 N 
ATOM     25  C   UNL     1      35.142 -17.927 -21.415  0.00  0.00    +0.276 C 
ATOM     26  H   UNL     1      33.517 -18.486 -20.292  0.00  0.00    +0.150 HD
BRANCH  25  28
ATOM     27  N   UNL     1      34.246 -16.292 -22.932  0.00  0.00    -0.398 NA
ATOM     28  C   UNL     1      34.559 -16.580 -21.647  0.00  0.00    +0.184 C 
ATOM     29  C   UNL     1      33.715 -15.085 -23.203  0.00  0.00    +0.150 C 
ATOM     30  C   UNL     1      34.367 -15.713 -20.592  0.00  0.00    +0.033 C 
ATOM     31  C   UNL     1      33.480 -14.131 -22.190  0.00  0.00    +0.099 C 
ATOM     32  C   UNL     1      33.819 -14.470 -20.873  0.00  0.00    -0.012 C 
ATOM     33  C   UNL     1      33.378 -14.748 -24.511  0.00  0.00    +0.160 C 
ATOM     34  C   UNL     1      32.924 -12.881 -22.509  0.00  0.00    -0.015 C 
ATOM     35  C   UNL     1      32.825 -13.505 -24.828  0.00  0.00    +0.039 C 
ATOM     36  C   UNL     1      32.597 -12.571 -23.826  0.00  0.00    -0.001 C 
BRANCH  33  37
ATOM     37  O   UNL     1      33.588 -15.642 -25.524  0.00  0.00    -0.503 OA
ATOM     38  H   UNL     1      34.421 -16.062 -25.613  0.00  0.00    +0.292 HD
ENDBRANCH  33  37
ENDBRANCH  25  28
ENDBRANCH  22  24
ENDBRANCH  21  22
ENDBRANCH  20  21
ENDBRANCH   1  20
TORSDOF 14
ENDMDL
MODEL 4
REMARK VINA RESULT:     -11.4      2.734      5.072
REMARK  Name = 5288581
REMARK  14 active torsions:
REMARK  status: ('A' for Active; 'I' for Inactive)
REMARK    1  A    between atoms: C_1  and  C_2
REMARK    2  A    between atoms: C_1  and  C_20
REMARK    3  A    between atoms: C_2  and  C_4
REMARK    4  A    between atoms: C_2  and  C_10
REMARK    5  A    between atoms: N_9  and  CA_12
REMARK    6  A    between atoms: CA_12  and  C_14
REMARK    7  A    between atoms: CA_12  and  CB_15
REMARK    8  A    between atoms: CB_15  and  CG_17
REMARK    9  A    between atoms: CG_17  and  OD1_18
REMARK   10  A    between atoms: C_20  and  C_21
REMARK   11  A    between atoms: C_21  and  C_22
REMARK   12  A    between atoms: C_22  and  N_24
REMARK   13  A    between atoms: C_25  and  C_28
REMARK   14  A    between atoms: C_33  and  O_37
REMARK                            x       y       z     vdW  Elec       q    Type
REMARK                         _______ _______ _______ _____ _____    ______ ____
ROOT
ATOM      1  C   UNL     1      33.866 -22.184 -16.778  0.00  0.00    +0.014 C 
ENDROOT
BRANCH   1   2
ATOM      2  C   UNL     1      33.687 -23.453 -15.921  0.00  0.00    +0.105 C 
BRANCH   2   4
ATOM      3  S   UNL     1      36.289 -22.764 -15.163  0.00  0.00    -0.090 S 
ATOM      4  C   UNL     1      35.008 -23.892 -15.305  0.00  0.00    +0.016 C 
ATOM      5  C   UNL     1      35.355 -25.132 -14.814  0.00  0.00    +0.003 C 
ATOM      6  C   UNL     1      36.689 -25.156 -14.315  0.00  0.00    +0.007 C 
ATOM      7  C   UNL     1      37.312 -23.933 -14.444  0.00  0.00    +0.035 C 
ENDBRANCH   2   4
BRANCH   2  10
ATOM      8  O   UNL     1      32.988 -22.838 -13.678  0.00  0.00    -0.275 OA
ATOM      9  N   UNL     1      31.389 -23.631 -15.163  0.00  0.00    -0.299 N 
ATOM     10  C   ACE A   0      32.674 -23.262 -14.789  0.00  0.00    +0.227 C 
ATOM     11  H   UNL     1      31.240 -23.959 -16.078  0.00  0.00    +0.150 HD
BRANCH   9  12
ATOM     12  CA  UNL     1      30.259 -23.554 -14.265  0.00  0.00    +0.148 C 
BRANCH  12  14
ATOM     13  O   UNL     1      28.413 -25.115 -14.208  0.00  0.00    -0.286 OA
ATOM     14  C   UNL     1      29.626 -24.929 -14.239  0.00  0.00    +0.227 C 
ENDBRANCH  12  14
BRANCH  12  15
ATOM     15  CB  UNL     1      29.271 -22.475 -14.684  0.00  0.00    +0.137 C 
BRANCH  15  17
ATOM     16  OD2 UNL     1      29.806 -21.931 -16.977  0.00  0.00    -0.250 OA
ATOM     17  CG  UNL     1      29.058 -22.479 -16.178  0.00  0.00    +0.316 C 
BRANCH  17  18
ATOM     18  OD1 UNL     1      27.931 -23.140 -16.543  0.00  0.00    -0.480 OA
ATOM     19  HD1 UNL     1      27.891 -23.576 -17.372  0.00  0.00    +0.295 HD
ENDBRANCH  17  18
ENDBRANCH  15  17
ENDBRANCH  12  15
ENDBRANCH   9  12
ENDBRANCH   2  10
ENDBRANCH   1   2
BRANCH   1  20
ATOM     20  C   UNL     1      33.726 -22.476 -18.276  0.00  0.00    +0.003 C 
BRANCH  20  21
ATOM     21  C   UNL     1      33.434 -21.200 -19.066  0.00  0.00    +0.021 C 
BRANCH  21  22
ATOM     22  C   UNL     1      34.685 -20.680 -19.763  0.00  0.00    +0.090 C 
BRANCH  22  24
ATOM     23  O   UNL     1      36.351 -18.412 -20.335  0.00  0.00    -0.267 OA
ATOM     24  N   UNL     1      34.380 -19.593 -20.653  0.00  0.00    -0.299 N 
ATOM     25  C   UNL     1      35.252 -18.533 -20.870  0.00  0.00    +0.276 C 
ATOM     26  H   UNL     1      33.519 -19.601 -21.130  0.00  0.00    +0.150 HD
BRANCH  25  28
ATOM     27  N   UNL     1      34.573 -16.258 -21.245  0.00  0.00    -0.398 NA
ATOM     28  C   UNL     1      34.778 -17.475 -21.800  0.00  0.00    +0.184 C 
ATOM     29  C   UNL     1      34.143 -15.260 -22.040  0.00  0.00    +0.150 C 
ATOM     30  C   UNL     1      34.573 -17.761 -23.134  0.00  0.00    +0.033 C 
ATOM     31  C   UNL     1      33.906 -15.455 -23.416  0.00  0.00    +0.099 C 
ATOM     32  C   UNL     1      34.130 -16.731 -23.951  0.00  0.00    -0.012 C 
ATOM     33  C   UNL     1      33.920 -13.992 -21.510  0.00  0.00    +0.160 C 
ATOM     34  C   UNL     1      33.457 -14.391 -24.217  0.00  0.00    -0.015 C 
ATOM     35  C   UNL     1      33.474 -12.934 -22.305  0.00  0.00    +0.039 C 
ATOM     36  C   UNL     1      33.243 -13.133 -23.660  0.00  0.00    -0.001 C 
BRANCH  33  37
ATOM     37  O   UNL     1      34.137 -13.757 -20.180  0.00  0.00    -0.503 OA
ATOM     38  H   UNL     1      33.493 -14.011 -19.549  0.00  0.00    +0.292 HD
ENDBRANCH  33  37
ENDBRANCH  25  28
ENDBRANCH  22  24
ENDBRANCH  21  22
ENDBRANCH  20  21
ENDBRANCH   1  20
TORSDOF 14
ENDMDL
MODEL 5
REMARK VINA RESULT:     -11.3      1.006      1.958
REMARK  Name = 5288581
REMARK  14 active torsions:
REMARK  status: ('A' for Active; 'I' for Inactive)
REMARK    1  A    between atoms: C_1  and  C_2
REMARK    2  A    between atoms: C_1  and  C_20
REMARK    3  A    between atoms: C_2  and  C_4
REMARK    4  A    between atoms: C_2  and  C_10
REMARK    5  A    between atoms: N_9  and  CA_12
REMARK    6  A    between atoms: CA_12  and  C_14
REMARK    7  A    between atoms: CA_12  and  CB_15
REMARK    8  A    between atoms: CB_15  and  CG_17
REMARK    9  A    between atoms: CG_17  and  OD1_18
REMARK   10  A    between atoms: C_20  and  C_21
REMARK   11  A    between atoms: C_21  and  C_22
REMARK   12  A    between atoms: C_22  and  N_24
REMARK   13  A    between atoms: C_25  and  C_28
REMARK   14  A    between atoms: C_33  and  O_37
REMARK                            x       y       z     vdW  Elec       q    Type
REMARK                         _______ _______ _______ _____ _____    ______ ____
ROOT
ATOM      1  C   UNL     1      35.324 -22.195 -16.368  0.00  0.00    +0.014 C 
ENDROOT
BRANCH   1   2
ATOM      2  C   UNL     1      34.880 -22.739 -14.996  0.00  0.00    +0.105 C 
BRANCH   2   4
ATOM      3  S   UNL     1      32.663 -23.632 -13.544  0.00  0.00    -0.090 S 
ATOM      4  C   UNL     1      33.386 -23.034 -14.977  0.00  0.00    +0.016 C 
ATOM      5  C   UNL     1      32.470 -22.886 -15.995  0.00  0.00    +0.003 C 
ATOM      6  C   UNL     1      31.158 -23.268 -15.593  0.00  0.00    +0.007 C 
ATOM      7  C   UNL     1      31.121 -23.694 -14.283  0.00  0.00    +0.035 C 
ENDBRANCH   2   4
BRANCH   2  10
ATOM      8  O   UNL     1      35.312 -25.128 -15.028  0.00  0.00    -0.275 OA
ATOM      9  N   UNL     1      36.658 -23.773 -13.709  0.00  0.00    -0.299 N 
ATOM     10  C   ACE A   0      35.623 -24.018 -14.601  0.00  0.00    +0.227 C 
ATOM     11  H   UNL     1      36.827 -22.846 -13.427  0.00  0.00    +0.150 HD
BRANCH   9  12
ATOM     12  CA  UNL     1      37.499 -24.821 -13.178  0.00  0.00    +0.148 C 
BRANCH  12  14
ATOM     13  O   UNL     1      37.856 -26.942 -14.284  0.00  0.00    -0.286 OA
ATOM     14  C   UNL     1      37.872 -25.715 -14.340  0.00  0.00    +0.227 C 
ENDBRANCH  12  14
BRANCH  12  15
ATOM     15  CB  UNL     1      36.813 -25.591 -12.059  0.00  0.00    +0.137 C 
BRANCH  15  17
ATOM     16  OD2 UNL     1      34.842 -24.669 -11.008  0.00  0.00    -0.250 OA
ATOM     17  CG  UNL     1      36.059 -24.662 -11.139  0.00  0.00    +0.316 C 
BRANCH  17  18
ATOM     18  OD1 UNL     1      36.875 -23.799 -10.484  0.00  0.00    -0.480 OA
ATOM     19  HD1 UNL     1      36.512 -23.168  -9.892  0.00  0.00    +0.295 HD
ENDBRANCH  17  18
ENDBRANCH  15  17
ENDBRANCH  12  15
ENDBRANCH   9  12
ENDBRANCH   2  10
ENDBRANCH   1   2
BRANCH   1  20
ATOM     20  C   UNL     1      36.565 -21.302 -16.260  0.00  0.00    +0.003 C 
BRANCH  20  21
ATOM     21  C   UNL     1      36.716 -20.410 -17.492  0.00  0.00    +0.021 C 
BRANCH  21  22
ATOM     22  C   UNL     1      36.081 -21.048 -18.722  0.00  0.00    +0.090 C 
BRANCH  22  24
ATOM     23  O   UNL     1      33.530 -20.394 -19.865  0.00  0.00    -0.267 OA
ATOM     24  N   UNL     1      35.825 -20.075 -19.748  0.00  0.00    -0.299 N 
ATOM     25  C   UNL     1      34.550 -19.824 -20.243  0.00  0.00    +0.276 C 
ATOM     26  H   UNL     1      36.583 -19.565 -20.115  0.00  0.00    +0.150 HD
BRANCH  25  28
ATOM     27  N   UNL     1      34.347 -17.523 -20.906  0.00  0.00    -0.398 NA
ATOM     28  C   UNL     1      34.456 -18.806 -21.322  0.00  0.00    +0.184 C 
ATOM     29  C   UNL     1      34.258 -16.557 -21.841  0.00  0.00    +0.150 C 
ATOM     30  C   UNL     1      34.481 -19.192 -22.646  0.00  0.00    +0.033 C 
ATOM     31  C   UNL     1      34.275 -16.853 -23.220  0.00  0.00    +0.099 C 
ATOM     32  C   UNL     1      34.388 -18.195 -23.607  0.00  0.00    -0.012 C 
ATOM     33  C   UNL     1      34.146 -15.224 -21.458  0.00  0.00    +0.160 C 
ATOM     34  C   UNL     1      34.180 -15.819 -24.168  0.00  0.00    -0.015 C 
ATOM     35  C   UNL     1      34.051 -14.197 -22.400  0.00  0.00    +0.039 C 
ATOM     36  C   UNL     1      34.069 -14.495 -23.756  0.00  0.00    -0.001 C 
BRANCH  33  37
ATOM     37  O   UNL     1      34.125 -14.891 -20.131  0.00  0.00    -0.503 OA
ATOM     38  H   UNL     1      33.921 -15.542 -19.489  0.00  0.00    +0.292 HD
ENDBRANCH  33  37
ENDBRANCH  25  28
ENDBRANCH  22  24
ENDBRANCH  21  22
ENDBRANCH  20  21
ENDBRANCH   1  20
TORSDOF 14
ENDMDL
MODEL 6
REMARK VINA RESULT:     -11.3      1.848      4.150
REMARK  Name = 5288581
REMARK  14 active torsions:
REMARK  status: ('A' for Active; 'I' for Inactive)
REMARK    1  A    between atoms: C_1  and  C_2
REMARK    2  A    between atoms: C_1  and  C_20
REMARK    3  A    between atoms: C_2  and  C_4
REMARK    4  A    between atoms: C_2  and  C_10
REMARK    5  A    between atoms: N_9  and  CA_12
REMARK    6  A    between atoms: CA_12  and  C_14
REMARK    7  A    between atoms: CA_12  and  CB_15
REMARK    8  A    between atoms: CB_15  and  CG_17
REMARK    9  A    between atoms: CG_17  and  OD1_18
REMARK   10  A    between atoms: C_20  and  C_21
REMARK   11  A    between atoms: C_21  and  C_22
REMARK   12  A    between atoms: C_22  and  N_24
REMARK   13  A    between atoms: C_25  and  C_28
REMARK   14  A    between atoms: C_33  and  O_37
REMARK                            x       y       z     vdW  Elec       q    Type
REMARK                         _______ _______ _______ _____ _____    ______ ____
ROOT
ATOM      1  C   UNL     1      36.437 -21.914 -15.248  0.00  0.00    +0.014 C 
ENDROOT
BRANCH   1   2
ATOM      2  C   UNL     1      36.315 -23.441 -15.073  0.00  0.00    +0.105 C 
BRANCH   2   4
ATOM      3  S   UNL     1      36.406 -22.811 -12.350  0.00  0.00    -0.090 S 
ATOM      4  C   UNL     1      36.706 -23.867 -13.664  0.00  0.00    +0.016 C 
ATOM      5  C   UNL     1      37.299 -25.042 -13.258  0.00  0.00    +0.003 C 
ATOM      6  C   UNL     1      37.511 -25.075 -11.850  0.00  0.00    +0.007 C 
ATOM      7  C   UNL     1      37.071 -23.924 -11.233  0.00  0.00    +0.035 C 
ENDBRANCH   2   4
BRANCH   2  10
ATOM      8  O   UNL     1      34.620 -25.153 -15.379  0.00  0.00    -0.275 OA
ATOM      9  N   UNL     1      33.997 -22.925 -15.575  0.00  0.00    -0.299 N 
ATOM     10  C   ACE A   0      34.900 -23.955 -15.351  0.00  0.00    +0.227 C 
ATOM     11  H   UNL     1      34.321 -21.997 -15.529  0.00  0.00    +0.150 HD
BRANCH   9  12
ATOM     12  CA  UNL     1      32.602 -23.156 -15.871  0.00  0.00    +0.148 C 
BRANCH  12  14
ATOM     13  O   UNL     1      31.269 -22.003 -17.528  0.00  0.00    -0.286 OA
ATOM     14  C   UNL     1      32.333 -22.536 -17.225  0.00  0.00    +0.227 C 
ENDBRANCH  12  14
BRANCH  12  15
ATOM     15  CB  UNL     1      31.689 -22.592 -14.791  0.00  0.00    +0.137 C 
BRANCH  15  17
ATOM     16  OD2 UNL     1      31.796 -22.825 -12.388  0.00  0.00    -0.250 OA
ATOM     17  CG  UNL     1      31.845 -23.348 -13.494  0.00  0.00    +0.316 C 
BRANCH  17  18
ATOM     18  OD1 UNL     1      32.067 -24.672 -13.685  0.00  0.00    -0.480 OA
ATOM     19  HD1 UNL     1      32.751 -25.105 -13.213  0.00  0.00    +0.295 HD
ENDBRANCH  17  18
ENDBRANCH  15  17
ENDBRANCH  12  15
ENDBRANCH   9  12
ENDBRANCH   2  10
ENDBRANCH   1   2
BRANCH   1  20
ATOM     20  C   UNL     1      37.257 -21.540 -16.487  0.00  0.00    +0.003 C 
BRANCH  20  21
ATOM     21  C   UNL     1      36.514 -20.528 -17.360  0.00  0.00    +0.021 C 
BRANCH  21  22
ATOM     22  C   UNL     1      35.998 -21.172 -18.641  0.00  0.00    +0.090 C 
BRANCH  22  24
ATOM     23  O   UNL     1      33.485 -20.538 -19.875  0.00  0.00    -0.267 OA
ATOM     24  N   UNL     1      35.770 -20.194 -19.669  0.00  0.00    -0.299 N 
ATOM     25  C   UNL     1      34.512 -19.953 -20.209  0.00  0.00    +0.276 C 
ATOM     26  H   UNL     1      36.535 -19.672 -20.002  0.00  0.00    +0.150 HD
BRANCH  25  28
ATOM     27  N   UNL     1      34.338 -17.647 -20.862  0.00  0.00    -0.398 NA
ATOM     28  C   UNL     1      34.447 -18.928 -21.283  0.00  0.00    +0.184 C 
ATOM     29  C   UNL     1      34.275 -16.674 -21.792  0.00  0.00    +0.150 C 
ATOM     30  C   UNL     1      34.498 -19.305 -22.609  0.00  0.00    +0.033 C 
ATOM     31  C   UNL     1      34.319 -16.961 -23.172  0.00  0.00    +0.099 C 
ATOM     32  C   UNL     1      34.432 -18.301 -23.565  0.00  0.00    -0.012 C 
ATOM     33  C   UNL     1      34.163 -15.343 -21.402  0.00  0.00    +0.160 C 
ATOM     34  C   UNL     1      34.251 -15.921 -24.114  0.00  0.00    -0.015 C 
ATOM     35  C   UNL     1      34.094 -14.309 -22.339  0.00  0.00    +0.039 C 
ATOM     36  C   UNL     1      34.139 -14.598 -23.696  0.00  0.00    -0.001 C 
BRANCH  33  37
ATOM     37  O   UNL     1      34.116 -15.019 -20.074  0.00  0.00    -0.503 OA
ATOM     38  H   UNL     1      33.666 -14.245 -19.796  0.00  0.00    +0.292 HD
ENDBRANCH  33  37
ENDBRANCH  25  28
ENDBRANCH  22  24
ENDBRANCH  21  22
ENDBRANCH  20  21
ENDBRANCH   1  20
TORSDOF 14
ENDMDL
MODEL 7
REMARK VINA RESULT:     -10.7      2.406      4.015
REMARK  Name = 5288581
REMARK  14 active torsions:
REMARK  status: ('A' for Active; 'I' for Inactive)
REMARK    1  A    between atoms: C_1  and  C_2
REMARK    2  A    between atoms: C_1  and  C_20
REMARK    3  A    between atoms: C_2  and  C_4
REMARK    4  A    between atoms: C_2  and  C_10
REMARK    5  A    between atoms: N_9  and  CA_12
REMARK    6  A    between atoms: CA_12  and  C_14
REMARK    7  A    between atoms: CA_12  and  CB_15
REMARK    8  A    between atoms: CB_15  and  CG_17
REMARK    9  A    between atoms: CG_17  and  OD1_18
REMARK   10  A    between atoms: C_20  and  C_21
REMARK   11  A    between atoms: C_21  and  C_22
REMARK   12  A    between atoms: C_22  and  N_24
REMARK   13  A    between atoms: C_25  and  C_28
REMARK   14  A    between atoms: C_33  and  O_37
REMARK                            x       y       z     vdW  Elec       q    Type
REMARK                         _______ _______ _______ _____ _____    ______ ____
ROOT
ATOM      1  C   UNL     1      33.581 -23.524 -14.343  0.00  0.00    +0.014 C 
ENDROOT
BRANCH   1   2
ATOM      2  C   UNL     1      34.936 -22.970 -13.861  0.00  0.00    +0.105 C 
BRANCH   2   4
ATOM      3  S   UNL     1      36.516 -22.589 -11.586  0.00  0.00    -0.090 S 
ATOM      4  C   UNL     1      35.156 -23.259 -12.383  0.00  0.00    +0.016 C 
ATOM      5  C   UNL     1      34.385 -24.022 -11.534  0.00  0.00    +0.003 C 
ATOM      6  C   UNL     1      34.917 -24.058 -10.213  0.00  0.00    +0.007 C 
ATOM      7  C   UNL     1      36.075 -23.320 -10.102  0.00  0.00    +0.035 C 
ENDBRANCH   2   4
BRANCH   2  10
ATOM      8  O   UNL     1      36.733 -22.905 -15.492  0.00  0.00    -0.275 OA
ATOM      9  N   UNL     1      36.400 -24.858 -14.284  0.00  0.00    -0.299 N 
ATOM     10  C   ACE A   0      36.120 -23.546 -14.641  0.00  0.00    +0.227 C 
ATOM     11  H   UNL     1      35.850 -25.285 -13.588  0.00  0.00    +0.150 HD
BRANCH   9  12
ATOM     12  CA  UNL     1      37.465 -25.625 -14.888  0.00  0.00    +0.148 C 
BRANCH  12  14
ATOM     13  O   UNL     1      36.344 -27.263 -16.269  0.00  0.00    -0.286 OA
ATOM     14  C   UNL     1      36.895 -26.990 -15.207  0.00  0.00    +0.227 C 
ENDBRANCH  12  14
BRANCH  12  15
ATOM     15  CB  UNL     1      38.688 -25.711 -13.985  0.00  0.00    +0.137 C 
BRANCH  15  17
ATOM     16  OD2 UNL     1      40.562 -24.195 -14.161  0.00  0.00    -0.250 OA
ATOM     17  CG  UNL     1      39.900 -25.102 -14.648  0.00  0.00    +0.316 C 
BRANCH  17  18
ATOM     18  OD1 UNL     1      40.168 -25.657 -15.856  0.00  0.00    -0.480 OA
ATOM     19  HD1 UNL     1      40.869 -26.274 -15.943  0.00  0.00    +0.295 HD
ENDBRANCH  17  18
ENDBRANCH  15  17
ENDBRANCH  12  15
ENDBRANCH   9  12
ENDBRANCH   2  10
ENDBRANCH   1   2
BRANCH   1  20
ATOM     20  C   UNL     1      32.686 -22.428 -14.932  0.00  0.00    +0.003 C 
BRANCH  20  21
ATOM     21  C   UNL     1      31.290 -22.964 -15.251  0.00  0.00    +0.021 C 
BRANCH  21  22
ATOM     22  C   UNL     1      30.901 -22.674 -16.695  0.00  0.00    +0.090 C 
BRANCH  22  24
ATOM     23  O   UNL     1      33.059 -23.741 -18.260  0.00  0.00    -0.267 OA
ATOM     24  N   UNL     1      31.920 -21.923 -17.376  0.00  0.00    -0.299 N 
ATOM     25  C   UNL     1      32.931 -22.528 -18.114  0.00  0.00    +0.276 C 
ATOM     26  H   UNL     1      31.901 -20.941 -17.318  0.00  0.00    +0.150 HD
BRANCH  25  28
ATOM     27  N   UNL     1      33.472 -20.886 -19.784  0.00  0.00    -0.398 NA
ATOM     28  C   UNL     1      33.924 -21.613 -18.736  0.00  0.00    +0.184 C 
ATOM     29  C   UNL     1      34.328 -20.040 -20.388  0.00  0.00    +0.150 C 
ATOM     30  C   UNL     1      35.210 -21.544 -18.243  0.00  0.00    +0.033 C 
ATOM     31  C   UNL     1      35.664 -19.899 -19.956  0.00  0.00    +0.099 C 
ATOM     32  C   UNL     1      36.091 -20.671 -18.867  0.00  0.00    -0.012 C 
ATOM     33  C   UNL     1      33.905 -19.273 -21.469  0.00  0.00    +0.160 C 
ATOM     34  C   UNL     1      36.530 -19.006 -20.609  0.00  0.00    -0.015 C 
ATOM     35  C   UNL     1      34.766 -18.385 -22.119  0.00  0.00    +0.039 C 
ATOM     36  C   UNL     1      36.080 -18.251 -21.688  0.00  0.00    -0.001 C 
BRANCH  33  37
ATOM     37  O   UNL     1      32.619 -19.377 -21.922  0.00  0.00    -0.503 OA
ATOM     38  H   UNL     1      32.063 -18.623 -21.930  0.00  0.00    +0.292 HD
ENDBRANCH  33  37
ENDBRANCH  25  28
ENDBRANCH  22  24
ENDBRANCH  21  22
ENDBRANCH  20  21
ENDBRANCH   1  20
TORSDOF 14
ENDMDL
MODEL 8
REMARK VINA RESULT:     -10.5      2.140      4.317
REMARK  Name = 5288581
REMARK  14 active torsions:
REMARK  status: ('A' for Active; 'I' for Inactive)
REMARK    1  A    between atoms: C_1  and  C_2
REMARK    2  A    between atoms: C_1  and  C_20
REMARK    3  A    between atoms: C_2  and  C_4
REMARK    4  A    between atoms: C_2  and  C_10
REMARK    5  A    between atoms: N_9  and  CA_12
REMARK    6  A    between atoms: CA_12  and  C_14
REMARK    7  A    between atoms: CA_12  and  CB_15
REMARK    8  A    between atoms: CB_15  and  CG_17
REMARK    9  A    between atoms: CG_17  and  OD1_18
REMARK   10  A    between atoms: C_20  and  C_21
REMARK   11  A    between atoms: C_21  and  C_22
REMARK   12  A    between atoms: C_22  and  N_24
REMARK   13  A    between atoms: C_25  and  C_28
REMARK   14  A    between atoms: C_33  and  O_37
REMARK                            x       y       z     vdW  Elec       q    Type
REMARK                         _______ _______ _______ _____ _____    ______ ____
ROOT
ATOM      1  C   UNL     1      36.250 -21.685 -15.633  0.00  0.00    +0.014 C 
ENDROOT
BRANCH   1   2
ATOM      2  C   UNL     1      35.614 -23.047 -15.290  0.00  0.00    +0.105 C 
BRANCH   2   4
ATOM      3  S   UNL     1      36.231 -25.710 -14.702  0.00  0.00    -0.090 S 
ATOM      4  C   UNL     1      36.674 -24.067 -14.896  0.00  0.00    +0.016 C 
ATOM      5  C   UNL     1      38.015 -23.861 -14.656  0.00  0.00    +0.003 C 
ATOM      6  C   UNL     1      38.687 -25.068 -14.309  0.00  0.00    +0.007 C 
ATOM      7  C   UNL     1      37.834 -26.151 -14.297  0.00  0.00    +0.035 C 
ENDBRANCH   2   4
BRANCH   2  10
ATOM      8  O   UNL     1      34.926 -22.885 -12.967  0.00  0.00    -0.275 OA
ATOM      9  N   UNL     1      33.287 -22.964 -14.608  0.00  0.00    -0.299 N 
ATOM     10  C   ACE A   0      34.597 -22.952 -14.150  0.00  0.00    +0.227 C 
ATOM     11  H   UNL     1      33.127 -23.020 -15.577  0.00  0.00    +0.150 HD
BRANCH   9  12
ATOM     12  CA  UNL     1      32.146 -22.897 -13.723  0.00  0.00    +0.148 C 
BRANCH  12  14
ATOM     13  O   UNL     1      30.832 -24.700 -12.790  0.00  0.00    -0.286 OA
ATOM     14  C   UNL     1      31.918 -24.297 -13.195  0.00  0.00    +0.227 C 
ENDBRANCH  12  14
BRANCH  12  15
ATOM     15  CB  UNL     1      30.914 -22.341 -14.424  0.00  0.00    +0.137 C 
BRANCH  15  17
ATOM     16  OD2 UNL     1      29.972 -23.920 -15.993  0.00  0.00    -0.250 OA
ATOM     17  CG  UNL     1      30.722 -22.976 -15.779  0.00  0.00    +0.316 C 
BRANCH  17  18
ATOM     18  OD1 UNL     1      31.489 -22.400 -16.739  0.00  0.00    -0.480 OA
ATOM     19  HD1 UNL     1      31.761 -22.900 -17.484  0.00  0.00    +0.295 HD
ENDBRANCH  17  18
ENDBRANCH  15  17
ENDBRANCH  12  15
ENDBRANCH   9  12
ENDBRANCH   2  10
ENDBRANCH   1   2
BRANCH   1  20
ATOM     20  C   UNL     1      36.791 -21.647 -17.067  0.00  0.00    +0.003 C 
BRANCH  20  21
ATOM     21  C   UNL     1      36.049 -20.612 -17.912  0.00  0.00    +0.021 C 
BRANCH  21  22
ATOM     22  C   UNL     1      35.365 -21.260 -19.110  0.00  0.00    +0.090 C 
BRANCH  22  24
ATOM     23  O   UNL     1      36.754 -18.821 -19.712  0.00  0.00    -0.267 OA
ATOM     24  N   UNL     1      34.997 -20.285 -20.099  0.00  0.00    -0.299 N 
ATOM     25  C   UNL     1      35.734 -19.128 -20.323  0.00  0.00    +0.276 C 
ATOM     26  H   UNL     1      34.191 -20.444 -20.642  0.00  0.00    +0.150 HD
BRANCH  25  28
ATOM     27  N   UNL     1      34.876 -16.967 -20.933  0.00  0.00    -0.398 NA
ATOM     28  C   UNL     1      35.207 -18.207 -21.363  0.00  0.00    +0.184 C 
ATOM     29  C   UNL     1      34.393 -16.090 -21.833  0.00  0.00    +0.150 C 
ATOM     30  C   UNL     1      35.081 -18.632 -22.670  0.00  0.00    +0.033 C 
ATOM     31  C   UNL     1      34.228 -16.432 -23.191  0.00  0.00    +0.099 C 
ATOM     32  C   UNL     1      34.582 -17.726 -23.595  0.00  0.00    -0.012 C 
ATOM     33  C   UNL     1      34.040 -14.804 -21.434  0.00  0.00    +0.160 C 
ATOM     34  C   UNL     1      33.720 -15.490 -24.103  0.00  0.00    -0.015 C 
ATOM     35  C   UNL     1      33.536 -13.868 -22.339  0.00  0.00    +0.039 C 
ATOM     36  C   UNL     1      33.376 -14.211 -23.676  0.00  0.00    -0.001 C 
BRANCH  33  37
ATOM     37  O   UNL     1      34.183 -14.429 -20.126  0.00  0.00    -0.503 OA
ATOM     38  H   UNL     1      35.039 -14.301 -19.766  0.00  0.00    +0.292 HD
ENDBRANCH  33  37
ENDBRANCH  25  28
ENDBRANCH  22  24
ENDBRANCH  21  22
ENDBRANCH  20  21
ENDBRANCH   1  20
TORSDOF 14
ENDMDL
MODEL 9
REMARK VINA RESULT:     -10.5      1.180      2.032
REMARK  Name = 5288581
REMARK  14 active torsions:
REMARK  status: ('A' for Active; 'I' for Inactive)
REMARK    1  A    between atoms: C_1  and  C_2
REMARK    2  A    between atoms: C_1  and  C_20
REMARK    3  A    between atoms: C_2  and  C_4
REMARK    4  A    between atoms: C_2  and  C_10
REMARK    5  A    between atoms: N_9  and  CA_12
REMARK    6  A    between atoms: CA_12  and  C_14
REMARK    7  A    between atoms: CA_12  and  CB_15
REMARK    8  A    between atoms: CB_15  and  CG_17
REMARK    9  A    between atoms: CG_17  and  OD1_18
REMARK   10  A    between atoms: C_20  and  C_21
REMARK   11  A    between atoms: C_21  and  C_22
REMARK   12  A    between atoms: C_22  and  N_24
REMARK   13  A    between atoms: C_25  and  C_28
REMARK   14  A    between atoms: C_33  and  O_37
REMARK                            x       y       z     vdW  Elec       q    Type
REMARK                         _______ _______ _______ _____ _____    ______ ____
ROOT
ATOM      1  C   UNL     1      36.902 -22.133 -15.784  0.00  0.00    +0.014 C 
ENDROOT
BRANCH   1   2
ATOM      2  C   UNL     1      36.408 -22.355 -14.340  0.00  0.00    +0.105 C 
BRANCH   2   4
ATOM      3  S   UNL     1      34.271 -23.409 -12.878  0.00  0.00    -0.090 S 
ATOM      4  C   UNL     1      34.942 -22.764 -14.316  0.00  0.00    +0.016 C 
ATOM      5  C   UNL     1      34.014 -22.692 -15.332  0.00  0.00    +0.003 C 
ATOM      6  C   UNL     1      32.737 -23.172 -14.924  0.00  0.00    +0.007 C 
ATOM      7  C   UNL     1      32.736 -23.593 -13.612  0.00  0.00    +0.035 C 
ENDBRANCH   2   4
BRANCH   2  10
ATOM      8  O   UNL     1      37.618 -23.276 -12.448  0.00  0.00    -0.275 OA
ATOM      9  N   UNL     1      37.437 -24.552 -14.378  0.00  0.00    -0.299 N 
ATOM     10  C   ACE A   0      37.214 -23.425 -13.600  0.00  0.00    +0.227 C 
ATOM     11  H   UNL     1      37.070 -24.575 -15.291  0.00  0.00    +0.150 HD
BRANCH   9  12
ATOM     12  CA  UNL     1      38.184 -25.696 -13.907  0.00  0.00    +0.148 C 
BRANCH  12  14
ATOM     13  O   UNL     1      40.582 -26.006 -13.860  0.00  0.00    -0.286 OA
ATOM     14  C   UNL     1      39.597 -25.540 -14.426  0.00  0.00    +0.227 C 
ENDBRANCH  12  14
BRANCH  12  15
ATOM     15  CB  UNL     1      37.552 -27.009 -14.347  0.00  0.00    +0.137 C 
BRANCH  15  17
ATOM     16  OD2 UNL     1      35.309 -26.214 -14.764  0.00  0.00    -0.250 OA
ATOM     17  CG  UNL     1      36.317 -26.770 -15.180  0.00  0.00    +0.316 C 
BRANCH  17  18
ATOM     18  OD1 UNL     1      36.435 -27.259 -16.440  0.00  0.00    -0.480 OA
ATOM     19  HD1 UNL     1      36.013 -28.064 -16.671  0.00  0.00    +0.295 HD
ENDBRANCH  17  18
ENDBRANCH  15  17
ENDBRANCH  12  15
ENDBRANCH   9  12
ENDBRANCH   2  10
ENDBRANCH   1   2
BRANCH   1  20
ATOM     20  C   UNL     1      36.301 -20.870 -16.411  0.00  0.00    +0.003 C 
BRANCH  20  21
ATOM     21  C   UNL     1      36.757 -20.698 -17.860  0.00  0.00    +0.021 C 
BRANCH  21  22
ATOM     22  C   UNL     1      35.647 -21.061 -18.838  0.00  0.00    +0.090 C 
BRANCH  22  24
ATOM     23  O   UNL     1      33.214 -20.424 -20.224  0.00  0.00    -0.267 OA
ATOM     24  N   UNL     1      35.469 -20.041 -19.836  0.00  0.00    -0.299 N 
ATOM     25  C   UNL     1      34.248 -19.803 -20.456  0.00  0.00    +0.276 C 
ATOM     26  H   UNL     1      36.243 -19.488 -20.089  0.00  0.00    +0.150 HD
BRANCH  25  28
ATOM     27  N   UNL     1      34.177 -17.465 -21.010  0.00  0.00    -0.398 NA
ATOM     28  C   UNL     1      34.235 -18.731 -21.485  0.00  0.00    +0.184 C 
ATOM     29  C   UNL     1      34.162 -16.453 -21.897  0.00  0.00    +0.150 C 
ATOM     30  C   UNL     1      34.280 -19.053 -22.826  0.00  0.00    +0.033 C 
ATOM     31  C   UNL     1      34.206 -16.681 -23.288  0.00  0.00    +0.099 C 
ATOM     32  C   UNL     1      34.265 -18.007 -23.738  0.00  0.00    -0.012 C 
ATOM     33  C   UNL     1      34.104 -15.135 -21.451  0.00  0.00    +0.160 C 
ATOM     34  C   UNL     1      34.189 -15.600 -24.185  0.00  0.00    -0.015 C 
ATOM     35  C   UNL     1      34.087 -14.060 -22.343  0.00  0.00    +0.039 C 
ATOM     36  C   UNL     1      34.130 -14.293 -23.712  0.00  0.00    -0.001 C 
BRANCH  33  37
ATOM     37  O   UNL     1      34.060 -14.866 -20.111  0.00  0.00    -0.503 OA
ATOM     38  H   UNL     1      33.535 -15.396 -19.544  0.00  0.00    +0.292 HD
ENDBRANCH  33  37
ENDBRANCH  25  28
ENDBRANCH  22  24
ENDBRANCH  21  22
ENDBRANCH  20  21
ENDBRANCH   1  20
TORSDOF 14
ENDMDL
