MODEL 1
REMARK VINA RESULT:     -10.6      0.000      0.000
REMARK  Name = 86677874
REMARK  5 active torsions:
REMARK  status: ('A' for Active; 'I' for Inactive)
REMARK    1  A    between atoms: C_3  and  C_11
REMARK    2  A    between atoms: C_4  and  O_31
REMARK    3  A    between atoms: C_5  and  C_16
REMARK    4  A    between atoms: C_16  and  N_18
REMARK    5  A    between atoms: O_31  and  C_32
REMARK                            x       y       z     vdW  Elec       q    Type
REMARK                         _______ _______ _______ _____ _____    ______ ____
ROOT
ATOM      1 CL   UNL     1      31.593 -23.278 -15.799  0.00  0.00    -0.080 Cl
ATOM      2  F   UNL     1      33.259 -23.997 -13.465  0.00  0.00    -0.204 F 
ATOM      3  C   UNL     1      35.297 -23.119 -14.289  0.00  0.00    +0.042 C 
ATOM      4  C   UNL     1      36.003 -22.467 -15.301  0.00  0.00    +0.134 C 
ATOM      5  C   UNL     1      35.345 -22.067 -16.464  0.00  0.00    +0.032 C 
ATOM      6  C   UNL     1      33.933 -23.370 -14.441  0.00  0.00    +0.150 C 
ATOM      7  C   UNL     1      33.981 -22.319 -16.616  0.00  0.00    +0.014 C 
ATOM      8  C   UNL     1      33.275 -22.970 -15.604  0.00  0.00    +0.085 C 
ENDROOT
BRANCH   3  11
ATOM      9  O   UNL     1      35.918 -23.777  -9.463  0.00  0.00    -0.275 OA
ATOM     10  N   UNL     1      36.211 -25.155 -11.332  0.00  0.00    -0.304 N 
ATOM     11  C   UNL     1      35.996 -23.558 -13.022  0.00  0.00    +0.056 C 
ATOM     12  C   UNL     1      35.997 -25.063 -12.749  0.00  0.00    +0.094 C 
ATOM     13  C   UNL     1      35.420 -22.994 -11.708  0.00  0.00    +0.091 C 
ATOM     14  C   UNL     1      35.885 -23.981 -10.667  0.00  0.00    +0.223 C 
ATOM     15  H   UNL     1      36.550 -25.961 -10.881  0.00  0.00    +0.149 HD
ENDBRANCH   3  11
BRANCH   5  16
ATOM     16  C   UNL     1      36.084 -21.367 -17.556  0.00  0.00    +0.123 C 
ATOM     17  C   UNL     1      37.036 -20.246 -17.068  0.00  0.00    +0.029 C 
BRANCH  16  18
ATOM     18  N   UNL     1      35.165 -20.877 -18.681  0.00  0.00    -0.196 N 
ATOM     19  N   UNL     1      33.885 -21.293 -18.722  0.00  0.00    -0.185 NA
ATOM     20  N   UNL     1      36.692 -19.463 -19.919  0.00  0.00    -0.231 NA
ATOM     21  N   UNL     1      35.613 -18.451 -21.857  0.00  0.00    -0.234 NA
ATOM     22  C   UNL     1      35.496 -20.034 -19.700  0.00  0.00    +0.137 C 
ATOM     23  C   UNL     1      34.351 -19.887 -20.462  0.00  0.00    +0.146 C 
ATOM     24  C   UNL     1      33.394 -20.686 -19.808  0.00  0.00    +0.068 C 
ATOM     25  C   UNL     1      34.435 -19.060 -21.577  0.00  0.00    +0.111 C 
ATOM     26  C   UNL     1      31.985 -20.905 -20.179  0.00  0.00    +0.050 C 
ATOM     27  C   UNL     1      36.652 -18.687 -21.023  0.00  0.00    +0.252 C 
ATOM     28  N   UNL     1      33.324 -18.848 -22.411  0.00  0.00    -0.346 N 
ATOM     29  H   UNL     1      33.402 -18.259 -23.197  0.00  0.00    +0.143 HD
ATOM     30  H   UNL     1      32.466 -19.288 -22.210  0.00  0.00    +0.143 HD
ENDBRANCH  16  18
ENDBRANCH   5  16
BRANCH   4  31
ATOM     31  O   UNL     1      37.336 -22.220 -15.152  0.00  0.00    -0.476 OA
BRANCH  31  32
ATOM     32  C   UNL     1      38.236 -23.154 -15.744  0.00  0.00    +0.205 C 
ATOM     33  C   UNL     1      38.938 -23.925 -14.646  0.00  0.00    +0.051 C 
ENDBRANCH  31  32
ENDBRANCH   4  31
TORSDOF 5
ENDMDL
MODEL 2
REMARK VINA RESULT:     -10.2      4.740      7.935
REMARK  Name = 86677874
REMARK  5 active torsions:
REMARK  status: ('A' for Active; 'I' for Inactive)
REMARK    1  A    between atoms: C_3  and  C_11
REMARK    2  A    between atoms: C_4  and  O_31
REMARK    3  A    between atoms: C_5  and  C_16
REMARK    4  A    between atoms: C_16  and  N_18
REMARK    5  A    between atoms: O_31  and  C_32
REMARK                            x       y       z     vdW  Elec       q    Type
REMARK                         _______ _______ _______ _____ _____    ______ ____
ROOT
ATOM      1 CL   UNL     1      35.119 -21.869 -17.831  0.00  0.00    -0.080 Cl
ATOM      2  F   UNL     1      32.189 -21.674 -18.176  0.00  0.00    -0.204 F 
ATOM      3  C   UNL     1      31.595 -22.576 -16.069  0.00  0.00    +0.042 C 
ATOM      4  C   UNL     1      31.979 -23.113 -14.840  0.00  0.00    +0.134 C 
ATOM      5  C   UNL     1      33.333 -23.265 -14.537  0.00  0.00    +0.032 C 
ATOM      6  C   UNL     1      32.564 -22.190 -16.995  0.00  0.00    +0.150 C 
ATOM      7  C   UNL     1      34.301 -22.879 -15.465  0.00  0.00    +0.014 C 
ATOM      8  C   UNL     1      33.918 -22.342 -16.692  0.00  0.00    +0.085 C 
ENDROOT
BRANCH   3  11
ATOM      9  O   UNL     1      26.982 -23.964 -17.023  0.00  0.00    -0.275 OA
ATOM     10  N   UNL     1      27.922 -22.305 -15.665  0.00  0.00    -0.304 N 
ATOM     11  C   UNL     1      30.132 -22.405 -16.412  0.00  0.00    +0.056 C 
ATOM     12  C   UNL     1      29.240 -21.879 -15.286  0.00  0.00    +0.094 C 
ATOM     13  C   UNL     1      29.389 -23.687 -16.837  0.00  0.00    +0.091 C 
ATOM     14  C   UNL     1      27.941 -23.364 -16.562  0.00  0.00    +0.223 C 
ATOM     15  H   UNL     1      27.095 -21.893 -15.324  0.00  0.00    +0.149 HD
ENDBRANCH   3  11
BRANCH   5  16
ATOM     16  C   UNL     1      33.762 -23.837 -13.227  0.00  0.00    +0.123 C 
ATOM     17  C   UNL     1      33.232 -23.068 -11.990  0.00  0.00    +0.029 C 
BRANCH  16  18
ATOM     18  N   UNL     1      35.275 -24.068 -13.143  0.00  0.00    -0.196 N 
ATOM     19  N   UNL     1      36.029 -23.261 -12.374  0.00  0.00    -0.185 NA
ATOM     20  N   UNL     1      35.515 -25.976 -14.614  0.00  0.00    -0.231 NA
ATOM     21  N   UNL     1      37.839 -26.698 -14.782  0.00  0.00    -0.234 NA
ATOM     22  C   UNL     1      35.992 -25.034 -13.785  0.00  0.00    +0.137 C 
ATOM     23  C   UNL     1      37.310 -24.845 -13.408  0.00  0.00    +0.146 C 
ATOM     24  C   UNL     1      37.267 -23.739 -12.539  0.00  0.00    +0.068 C 
ATOM     25  C   UNL     1      38.250 -25.722 -13.938  0.00  0.00    +0.111 C 
ATOM     26  C   UNL     1      38.387 -23.096 -11.830  0.00  0.00    +0.050 C 
ATOM     27  C   UNL     1      36.516 -26.763 -15.064  0.00  0.00    +0.252 C 
ATOM     28  N   UNL     1      39.614 -25.610 -13.612  0.00  0.00    -0.346 N 
ATOM     29  H   UNL     1      40.266 -26.239 -13.998  0.00  0.00    +0.143 HD
ATOM     30  H   UNL     1      39.916 -24.902 -12.998  0.00  0.00    +0.143 HD
ENDBRANCH  16  18
ENDBRANCH   5  16
BRANCH   4  31
ATOM     31  O   UNL     1      31.032 -23.489 -13.934  0.00  0.00    -0.476 OA
BRANCH  31  32
ATOM     32  C   UNL     1      30.735 -24.881 -13.849  0.00  0.00    +0.205 C 
ATOM     33  C   UNL     1      29.260 -25.054 -13.554  0.00  0.00    +0.051 C 
ENDBRANCH  31  32
ENDBRANCH   4  31
TORSDOF 5
ENDMDL
MODEL 3
REMARK VINA RESULT:      -9.9     11.126     15.225
REMARK  Name = 86677874
REMARK  5 active torsions:
REMARK  status: ('A' for Active; 'I' for Inactive)
REMARK    1  A    between atoms: C_3  and  C_11
REMARK    2  A    between atoms: C_4  and  O_31
REMARK    3  A    between atoms: C_5  and  C_16
REMARK    4  A    between atoms: C_16  and  N_18
REMARK    5  A    between atoms: O_31  and  C_32
REMARK                            x       y       z     vdW  Elec       q    Type
REMARK                         _______ _______ _______ _____ _____    ______ ____
ROOT
ATOM      1 CL   UNL     1      35.416  -8.899 -24.525  0.00  0.00    -0.080 Cl
ATOM      2  F   UNL     1      33.631  -6.618 -23.933  0.00  0.00    -0.204 F 
ATOM      3  C   UNL     1      31.998  -7.840 -22.730  0.00  0.00    +0.042 C 
ATOM      4  C   UNL     1      31.541  -9.055 -22.219  0.00  0.00    +0.134 C 
ATOM      5  C   UNL     1      32.282 -10.220 -22.421  0.00  0.00    +0.032 C 
ATOM      6  C   UNL     1      33.196  -7.790 -23.443  0.00  0.00    +0.150 C 
ATOM      7  C   UNL     1      33.480 -10.168 -23.135  0.00  0.00    +0.014 C 
ATOM      8  C   UNL     1      33.937  -8.954 -23.645  0.00  0.00    +0.085 C 
ENDROOT
BRANCH   3  11
ATOM      9  O   UNL     1      31.260  -3.039 -22.011  0.00  0.00    -0.275 OA
ATOM     10  N   UNL     1      30.303  -4.623 -23.443  0.00  0.00    -0.304 N 
ATOM     11  C   UNL     1      31.206  -6.569 -22.520  0.00  0.00    +0.056 C 
ATOM     12  C   UNL     1      30.499  -6.011 -23.757  0.00  0.00    +0.094 C 
ATOM     13  C   UNL     1      32.013  -5.348 -22.034  0.00  0.00    +0.091 C 
ATOM     14  C   UNL     1      31.162  -4.174 -22.450  0.00  0.00    +0.223 C 
ATOM     15  H   UNL     1      29.633  -4.053 -23.884  0.00  0.00    +0.149 HD
ENDBRANCH   3  11
BRANCH   5  16
ATOM     16  C   UNL     1      31.809 -11.528 -21.880  0.00  0.00    +0.123 C 
ATOM     17  C   UNL     1      31.864 -11.638 -20.335  0.00  0.00    +0.029 C 
BRANCH  16  18
ATOM     18  N   UNL     1      32.478 -12.730 -22.556  0.00  0.00    -0.196 N 
ATOM     19  N   UNL     1      32.426 -12.853 -23.896  0.00  0.00    -0.185 NA
ATOM     20  N   UNL     1      33.362 -13.892 -20.624  0.00  0.00    -0.231 NA
ATOM     21  N   UNL     1      34.537 -15.932 -21.259  0.00  0.00    -0.234 NA
ATOM     22  C   UNL     1      33.149 -13.745 -21.942  0.00  0.00    +0.137 C 
ATOM     23  C   UNL     1      33.567 -14.594 -22.952  0.00  0.00    +0.146 C 
ATOM     24  C   UNL     1      33.091 -13.989 -24.131  0.00  0.00    +0.068 C 
ATOM     25  C   UNL     1      34.286 -15.722 -22.573  0.00  0.00    +0.111 C 
ATOM     26  C   UNL     1      33.248 -14.457 -25.520  0.00  0.00    +0.050 C 
ATOM     27  C   UNL     1      34.066 -15.017 -20.379  0.00  0.00    +0.252 C 
ATOM     28  N   UNL     1      34.754 -16.642 -23.529  0.00  0.00    -0.346 N 
ATOM     29  H   UNL     1      35.261 -17.435 -23.242  0.00  0.00    +0.143 HD
ATOM     30  H   UNL     1      34.574 -16.491 -24.485  0.00  0.00    +0.143 HD
ENDBRANCH  16  18
ENDBRANCH   5  16
BRANCH   4  31
ATOM     31  O   UNL     1      30.370  -9.104 -21.521  0.00  0.00    -0.476 OA
BRANCH  31  32
ATOM     32  C   UNL     1      30.466  -9.296 -20.112  0.00  0.00    +0.205 C 
ATOM     33  C   UNL     1      31.290  -8.175 -19.516  0.00  0.00    +0.051 C 
ENDBRANCH  31  32
ENDBRANCH   4  31
TORSDOF 5
ENDMDL
MODEL 4
REMARK VINA RESULT:      -9.8      4.659      7.848
REMARK  Name = 86677874
REMARK  5 active torsions:
REMARK  status: ('A' for Active; 'I' for Inactive)
REMARK    1  A    between atoms: C_3  and  C_11
REMARK    2  A    between atoms: C_4  and  O_31
REMARK    3  A    between atoms: C_5  and  C_16
REMARK    4  A    between atoms: C_16  and  N_18
REMARK    5  A    between atoms: O_31  and  C_32
REMARK                            x       y       z     vdW  Elec       q    Type
REMARK                         _______ _______ _______ _____ _____    ______ ____
ROOT
ATOM      1 CL   UNL     1      34.716 -21.835 -18.370  0.00  0.00    -0.080 Cl
ATOM      2  F   UNL     1      31.791 -21.405 -18.363  0.00  0.00    -0.204 F 
ATOM      3  C   UNL     1      31.359 -22.429 -16.272  0.00  0.00    +0.042 C 
ATOM      4  C   UNL     1      31.831 -23.089 -15.137  0.00  0.00    +0.134 C 
ATOM      5  C   UNL     1      33.193 -23.359 -15.003  0.00  0.00    +0.032 C 
ATOM      6  C   UNL     1      32.249 -22.040 -17.273  0.00  0.00    +0.150 C 
ATOM      7  C   UNL     1      34.082 -22.970 -16.004  0.00  0.00    +0.014 C 
ATOM      8  C   UNL     1      33.611 -22.310 -17.139  0.00  0.00    +0.085 C 
ENDROOT
BRANCH   3  11
ATOM      9  O   UNL     1      26.611 -23.384 -17.080  0.00  0.00    -0.275 OA
ATOM     10  N   UNL     1      27.753 -22.112 -15.482  0.00  0.00    -0.304 N 
ATOM     11  C   UNL     1      29.885 -22.128 -16.433  0.00  0.00    +0.056 C 
ATOM     12  C   UNL     1      29.120 -21.834 -15.141  0.00  0.00    +0.094 C 
ATOM     13  C   UNL     1      29.036 -23.251 -17.060  0.00  0.00    +0.091 C 
ATOM     14  C   UNL     1      27.637 -22.941 -16.589  0.00  0.00    +0.223 C 
ATOM     15  H   UNL     1      26.983 -21.755 -14.984  0.00  0.00    +0.149 HD
ENDBRANCH   3  11
BRANCH   5  16
ATOM     16  C   UNL     1      33.715 -24.063 -13.794  0.00  0.00    +0.123 C 
ATOM     17  C   UNL     1      33.686 -23.214 -12.498  0.00  0.00    +0.029 C 
BRANCH  16  18
ATOM     18  N   UNL     1      35.090 -24.700 -14.022  0.00  0.00    -0.196 N 
ATOM     19  N   UNL     1      35.212 -25.727 -14.883  0.00  0.00    -0.185 NA
ATOM     20  N   UNL     1      36.451 -23.361 -12.533  0.00  0.00    -0.231 NA
ATOM     21  N   UNL     1      38.788 -24.059 -12.577  0.00  0.00    -0.234 NA
ATOM     22  C   UNL     1      36.265 -24.343 -13.430  0.00  0.00    +0.137 C 
ATOM     23  C   UNL     1      37.226 -25.199 -13.940  0.00  0.00    +0.146 C 
ATOM     24  C   UNL     1      36.515 -26.026 -14.829  0.00  0.00    +0.068 C 
ATOM     25  C   UNL     1      38.528 -25.031 -13.483  0.00  0.00    +0.111 C 
ATOM     26  C   UNL     1      37.035 -27.124 -15.663  0.00  0.00    +0.050 C 
ATOM     27  C   UNL     1      37.749 -23.295 -12.164  0.00  0.00    +0.252 C 
ATOM     28  N   UNL     1      39.572 -25.851 -13.945  0.00  0.00    -0.346 N 
ATOM     29  H   UNL     1      40.488 -25.719 -13.610  0.00  0.00    +0.143 HD
ATOM     30  H   UNL     1      39.387 -26.559 -14.605  0.00  0.00    +0.143 HD
ENDBRANCH  16  18
ENDBRANCH   5  16
BRANCH   4  31
ATOM     31  O   UNL     1      30.960 -23.468 -14.158  0.00  0.00    -0.476 OA
BRANCH  31  32
ATOM     32  C   UNL     1      30.733 -24.866 -14.001  0.00  0.00    +0.205 C 
ATOM     33  C   UNL     1      29.242 -25.125 -13.979  0.00  0.00    +0.051 C 
ENDBRANCH  31  32
ENDBRANCH   4  31
TORSDOF 5
ENDMDL
MODEL 5
REMARK VINA RESULT:      -9.7      3.928      7.193
REMARK  Name = 86677874
REMARK  5 active torsions:
REMARK  status: ('A' for Active; 'I' for Inactive)
REMARK    1  A    between atoms: C_3  and  C_11
REMARK    2  A    between atoms: C_4  and  O_31
REMARK    3  A    between atoms: C_5  and  C_16
REMARK    4  A    between atoms: C_16  and  N_18
REMARK    5  A    between atoms: O_31  and  C_32
REMARK                            x       y       z     vdW  Elec       q    Type
REMARK                         _______ _______ _______ _____ _____    ______ ____
ROOT
ATOM      1 CL   UNL     1      33.361 -21.732 -19.946  0.00  0.00    -0.080 Cl
ATOM      2  F   UNL     1      31.059 -22.322 -18.188  0.00  0.00    -0.204 F 
ATOM      3  C   UNL     1      32.276 -22.460 -16.162  0.00  0.00    +0.042 C 
ATOM      4  C   UNL     1      33.494 -22.392 -15.485  0.00  0.00    +0.134 C 
ATOM      5  C   UNL     1      34.668 -22.120 -16.187  0.00  0.00    +0.032 C 
ATOM      6  C   UNL     1      32.233 -22.256 -17.541  0.00  0.00    +0.150 C 
ATOM      7  C   UNL     1      34.624 -21.916 -17.567  0.00  0.00    +0.014 C 
ATOM      8  C   UNL     1      33.407 -21.984 -18.244  0.00  0.00    +0.085 C 
ENDROOT
BRANCH   3  11
ATOM      9  O   UNL     1      27.444 -22.437 -15.291  0.00  0.00    -0.275 OA
ATOM     10  N   UNL     1      29.095 -24.093 -15.193  0.00  0.00    -0.304 N 
ATOM     11  C   UNL     1      30.994 -22.753 -15.415  0.00  0.00    +0.056 C 
ATOM     12  C   UNL     1      30.496 -24.198 -15.487  0.00  0.00    +0.094 C 
ATOM     13  C   UNL     1      29.753 -21.964 -15.877  0.00  0.00    +0.091 C 
ATOM     14  C   UNL     1      28.599 -22.814 -15.409  0.00  0.00    +0.223 C 
ATOM     15  H   UNL     1      28.545 -24.845 -14.875  0.00  0.00    +0.149 HD
ENDBRANCH   3  11
BRANCH   5  16
ATOM     16  C   UNL     1      35.980 -22.042 -15.479  0.00  0.00    +0.123 C 
ATOM     17  C   UNL     1      37.160 -21.573 -16.368  0.00  0.00    +0.029 C 
BRANCH  16  18
ATOM     18  N   UNL     1      36.323 -23.326 -14.716  0.00  0.00    -0.196 N 
ATOM     19  N   UNL     1      36.240 -24.514 -15.343  0.00  0.00    -0.185 NA
ATOM     20  N   UNL     1      36.890 -22.415 -12.545  0.00  0.00    -0.231 NA
ATOM     21  N   UNL     1      37.513 -24.167 -10.967  0.00  0.00    -0.234 NA
ATOM     22  C   UNL     1      36.719 -23.424 -13.415  0.00  0.00    +0.137 C 
ATOM     23  C   UNL     1      36.908 -24.773 -13.173  0.00  0.00    +0.146 C 
ATOM     24  C   UNL     1      36.598 -25.391 -14.399  0.00  0.00    +0.068 C 
ATOM     25  C   UNL     1      37.321 -25.135 -11.895  0.00  0.00    +0.111 C 
ATOM     26  C   UNL     1      36.630 -26.828 -14.726  0.00  0.00    +0.050 C 
ATOM     27  C   UNL     1      37.289 -22.886 -11.344  0.00  0.00    +0.252 C 
ATOM     28  N   UNL     1      37.541 -26.481 -11.556  0.00  0.00    -0.346 N 
ATOM     29  H   UNL     1      37.833 -26.719 -10.646  0.00  0.00    +0.143 HD
ATOM     30  H   UNL     1      37.403 -27.187 -12.228  0.00  0.00    +0.143 HD
ENDBRANCH  16  18
ENDBRANCH   5  16
BRANCH   4  31
ATOM     31  O   UNL     1      33.536 -22.590 -14.136  0.00  0.00    -0.476 OA
BRANCH  31  32
ATOM     32  C   UNL     1      33.254 -23.906 -13.668  0.00  0.00    +0.205 C 
ATOM     33  C   UNL     1      33.521 -23.967 -12.179  0.00  0.00    +0.051 C 
ENDBRANCH  31  32
ENDBRANCH   4  31
TORSDOF 5
ENDMDL
MODEL 6
REMARK VINA RESULT:      -9.7     11.130     15.242
REMARK  Name = 86677874
REMARK  5 active torsions:
REMARK  status: ('A' for Active; 'I' for Inactive)
REMARK    1  A    between atoms: C_3  and  C_11
REMARK    2  A    between atoms: C_4  and  O_31
REMARK    3  A    between atoms: C_5  and  C_16
REMARK    4  A    between atoms: C_16  and  N_18
REMARK    5  A    between atoms: O_31  and  C_32
REMARK                            x       y       z     vdW  Elec       q    Type
REMARK                         _______ _______ _______ _____ _____    ______ ____
ROOT
ATOM      1 CL   UNL     1      35.453  -9.212 -24.517  0.00  0.00    -0.080 Cl
ATOM      2  F   UNL     1      33.694  -6.874 -24.094  0.00  0.00    -0.204 F 
ATOM      3  C   UNL     1      32.048  -7.986 -22.805  0.00  0.00    +0.042 C 
ATOM      4  C   UNL     1      31.579  -9.156 -22.206  0.00  0.00    +0.134 C 
ATOM      5  C   UNL     1      32.308 -10.340 -22.321  0.00  0.00    +0.032 C 
ATOM      6  C   UNL     1      33.246  -8.001 -23.519  0.00  0.00    +0.150 C 
ATOM      7  C   UNL     1      33.505 -10.354 -23.037  0.00  0.00    +0.014 C 
ATOM      8  C   UNL     1      33.975  -9.185 -23.635  0.00  0.00    +0.085 C 
ENDROOT
BRANCH   3  11
ATOM      9  O   UNL     1      31.358  -3.161 -22.211  0.00  0.00    -0.275 OA
ATOM     10  N   UNL     1      30.513  -4.740 -23.717  0.00  0.00    -0.304 N 
ATOM     11  C   UNL     1      31.271  -6.694 -22.688  0.00  0.00    +0.056 C 
ATOM     12  C   UNL     1      30.706  -6.136 -23.995  0.00  0.00    +0.094 C 
ATOM     13  C   UNL     1      32.054  -5.487 -22.136  0.00  0.00    +0.091 C 
ATOM     14  C   UNL     1      31.278  -4.299 -22.647  0.00  0.00    +0.223 C 
ATOM     15  H   UNL     1      29.905  -4.160 -24.229  0.00  0.00    +0.149 HD
ENDBRANCH   3  11
BRANCH   5  16
ATOM     16  C   UNL     1      31.821 -11.600 -21.686  0.00  0.00    +0.123 C 
ATOM     17  C   UNL     1      31.763 -11.554 -20.138  0.00  0.00    +0.029 C 
BRANCH  16  18
ATOM     18  N   UNL     1      32.560 -12.846 -22.187  0.00  0.00    -0.196 N 
ATOM     19  N   UNL     1      33.165 -13.660 -21.302  0.00  0.00    -0.185 NA
ATOM     20  N   UNL     1      32.200 -12.646 -24.573  0.00  0.00    -0.231 NA
ATOM     21  N   UNL     1      33.246 -14.478 -25.798  0.00  0.00    -0.234 NA
ATOM     22  C   UNL     1      32.693 -13.253 -23.481  0.00  0.00    +0.137 C 
ATOM     23  C   UNL     1      33.439 -14.418 -23.441  0.00  0.00    +0.146 C 
ATOM     24  C   UNL     1      33.698 -14.615 -22.071  0.00  0.00    +0.068 C 
ATOM     25  C   UNL     1      33.713 -15.036 -24.656  0.00  0.00    +0.111 C 
ATOM     26  C   UNL     1      34.453 -15.711 -21.438  0.00  0.00    +0.050 C 
ATOM     27  C   UNL     1      32.529 -13.334 -25.687  0.00  0.00    +0.252 C 
ATOM     28  N   UNL     1      34.462 -16.224 -24.715  0.00  0.00    -0.346 N 
ATOM     29  H   UNL     1      34.646 -16.648 -25.584  0.00  0.00    +0.143 HD
ATOM     30  H   UNL     1      34.802 -16.633 -23.886  0.00  0.00    +0.143 HD
ENDBRANCH  16  18
ENDBRANCH   5  16
BRANCH   4  31
ATOM     31  O   UNL     1      30.408  -9.141 -21.506  0.00  0.00    -0.476 OA
BRANCH  31  32
ATOM     32  C   UNL     1      30.504  -9.217 -20.086  0.00  0.00    +0.205 C 
ATOM     33  C   UNL     1      31.341  -8.060 -19.585  0.00  0.00    +0.051 C 
ENDBRANCH  31  32
ENDBRANCH   4  31
TORSDOF 5
ENDMDL
MODEL 7
REMARK VINA RESULT:      -9.2     11.299     15.273
REMARK  Name = 86677874
REMARK  5 active torsions:
REMARK  status: ('A' for Active; 'I' for Inactive)
REMARK    1  A    between atoms: C_3  and  C_11
REMARK    2  A    between atoms: C_4  and  O_31
REMARK    3  A    between atoms: C_5  and  C_16
REMARK    4  A    between atoms: C_16  and  N_18
REMARK    5  A    between atoms: O_31  and  C_32
REMARK                            x       y       z     vdW  Elec       q    Type
REMARK                         _______ _______ _______ _____ _____    ______ ____
ROOT
ATOM      1 CL   UNL     1      35.717  -9.149 -24.719  0.00  0.00    -0.080 Cl
ATOM      2  F   UNL     1      34.375  -6.603 -24.041  0.00  0.00    -0.204 F 
ATOM      3  C   UNL     1      32.570  -7.546 -22.833  0.00  0.00    +0.042 C 
ATOM      4  C   UNL     1      31.913  -8.674 -22.340  0.00  0.00    +0.134 C 
ATOM      5  C   UNL     1      32.432  -9.946 -22.582  0.00  0.00    +0.032 C 
ATOM      6  C   UNL     1      33.746  -7.691 -23.569  0.00  0.00    +0.150 C 
ATOM      7  C   UNL     1      33.609 -10.089 -23.319  0.00  0.00    +0.014 C 
ATOM      8  C   UNL     1      34.266  -8.963 -23.811  0.00  0.00    +0.085 C 
ENDROOT
BRANCH   3  11
ATOM      9  O   UNL     1      29.190  -4.149 -21.762  0.00  0.00    -0.275 OA
ATOM     10  N   UNL     1      31.378  -4.539 -21.027  0.00  0.00    -0.304 N 
ATOM     11  C   UNL     1      32.020  -6.160 -22.579  0.00  0.00    +0.056 C 
ATOM     12  C   UNL     1      32.397  -5.528 -21.238  0.00  0.00    +0.094 C 
ATOM     13  C   UNL     1      30.483  -6.041 -22.570  0.00  0.00    +0.091 C 
ATOM     14  C   UNL     1      30.232  -4.787 -21.770  0.00  0.00    +0.223 C 
ATOM     15  H   UNL     1      31.479  -3.771 -20.420  0.00  0.00    +0.149 HD
ENDBRANCH   3  11
BRANCH   5  16
ATOM     16  C   UNL     1      31.743 -11.163 -22.061  0.00  0.00    +0.123 C 
ATOM     17  C   UNL     1      31.399 -11.105 -20.551  0.00  0.00    +0.029 C 
BRANCH  16  18
ATOM     18  N   UNL     1      32.469 -12.463 -22.426  0.00  0.00    -0.196 N 
ATOM     19  N   UNL     1      33.021 -13.210 -21.453  0.00  0.00    -0.185 NA
ATOM     20  N   UNL     1      32.200 -12.462 -24.832  0.00  0.00    -0.231 NA
ATOM     21  N   UNL     1      33.244 -14.414 -25.856  0.00  0.00    -0.234 NA
ATOM     22  C   UNL     1      32.638 -12.982 -23.675  0.00  0.00    +0.137 C 
ATOM     23  C   UNL     1      33.353 -14.155 -23.506  0.00  0.00    +0.146 C 
ATOM     24  C   UNL     1      33.558 -14.240 -22.116  0.00  0.00    +0.068 C 
ATOM     25  C   UNL     1      33.655 -14.881 -24.653  0.00  0.00    +0.111 C 
ATOM     26  C   UNL     1      34.262 -15.293 -21.363  0.00  0.00    +0.050 C 
ATOM     27  C   UNL     1      32.552 -13.250 -25.871  0.00  0.00    +0.252 C 
ATOM     28  N   UNL     1      34.377 -16.086 -24.583  0.00  0.00    -0.346 N 
ATOM     29  H   UNL     1      34.582 -16.587 -25.405  0.00  0.00    +0.143 HD
ATOM     30  H   UNL     1      34.676 -16.429 -23.710  0.00  0.00    +0.143 HD
ENDBRANCH  16  18
ENDBRANCH   5  16
BRANCH   4  31
ATOM     31  O   UNL     1      30.763  -8.532 -21.620  0.00  0.00    -0.476 OA
BRANCH  31  32
ATOM     32  C   UNL     1      30.815  -8.894 -20.243  0.00  0.00    +0.205 C 
ATOM     33  C   UNL     1      31.461  -7.770 -19.461  0.00  0.00    +0.051 C 
ENDBRANCH  31  32
ENDBRANCH   4  31
TORSDOF 5
ENDMDL
MODEL 8
REMARK VINA RESULT:      -9.2      5.672     10.254
REMARK  Name = 86677874
REMARK  5 active torsions:
REMARK  status: ('A' for Active; 'I' for Inactive)
REMARK    1  A    between atoms: C_3  and  C_11
REMARK    2  A    between atoms: C_4  and  O_31
REMARK    3  A    between atoms: C_5  and  C_16
REMARK    4  A    between atoms: C_16  and  N_18
REMARK    5  A    between atoms: O_31  and  C_32
REMARK                            x       y       z     vdW  Elec       q    Type
REMARK                         _______ _______ _______ _____ _____    ______ ____
ROOT
ATOM      1 CL   UNL     1      33.294 -19.968 -25.317  0.00  0.00    -0.080 Cl
ATOM      2  F   UNL     1      32.368 -17.168 -25.532  0.00  0.00    -0.204 F 
ATOM      3  C   UNL     1      33.551 -16.333 -23.659  0.00  0.00    +0.042 C 
ATOM      4  C   UNL     1      34.418 -16.555 -22.588  0.00  0.00    +0.134 C 
ATOM      5  C   UNL     1      34.936 -17.831 -22.363  0.00  0.00    +0.032 C 
ATOM      6  C   UNL     1      33.202 -17.387 -24.504  0.00  0.00    +0.150 C 
ATOM      7  C   UNL     1      34.587 -18.884 -23.209  0.00  0.00    +0.014 C 
ATOM      8  C   UNL     1      33.721 -18.662 -24.279  0.00  0.00    +0.085 C 
ENDROOT
BRANCH   3  11
ATOM      9  O   UNL     1      33.444 -11.424 -23.731  0.00  0.00    -0.275 OA
ATOM     10  N   UNL     1      32.895 -13.075 -25.297  0.00  0.00    -0.304 N 
ATOM     11  C   UNL     1      32.981 -14.956 -23.916  0.00  0.00    +0.056 C 
ATOM     12  C   UNL     1      32.955 -14.507 -25.378  0.00  0.00    +0.094 C 
ATOM     13  C   UNL     1      33.720 -13.787 -23.235  0.00  0.00    +0.091 C 
ATOM     14  C   UNL     1      33.336 -12.592 -24.073  0.00  0.00    +0.223 C 
ATOM     15  H   UNL     1      32.578 -12.499 -26.029  0.00  0.00    +0.149 HD
ENDBRANCH   3  11
BRANCH   5  16
ATOM     16  C   UNL     1      35.866 -18.086 -21.224  0.00  0.00    +0.123 C 
ATOM     17  C   UNL     1      37.354 -18.229 -21.633  0.00  0.00    +0.029 C 
BRANCH  16  18
ATOM     18  N   UNL     1      35.412 -19.246 -20.331  0.00  0.00    -0.196 N 
ATOM     19  N   UNL     1      36.301 -19.844 -19.516  0.00  0.00    -0.185 NA
ATOM     20  N   UNL     1      33.075 -19.393 -20.947  0.00  0.00    -0.231 NA
ATOM     21  N   UNL     1      31.932 -21.171 -19.730  0.00  0.00    -0.234 NA
ATOM     22  C   UNL     1      34.160 -19.780 -20.256  0.00  0.00    +0.137 C 
ATOM     23  C   UNL     1      34.234 -20.801 -19.325  0.00  0.00    +0.146 C 
ATOM     24  C   UNL     1      35.578 -20.789 -18.906  0.00  0.00    +0.068 C 
ATOM     25  C   UNL     1      33.065 -21.508 -19.068  0.00  0.00    +0.111 C 
ATOM     26  C   UNL     1      36.228 -21.665 -17.914  0.00  0.00    +0.050 C 
ATOM     27  C   UNL     1      32.007 -20.149 -20.615  0.00  0.00    +0.252 C 
ATOM     28  N   UNL     1      33.042 -22.561 -18.137  0.00  0.00    -0.346 N 
ATOM     29  H   UNL     1      32.205 -23.052 -17.968  0.00  0.00    +0.143 HD
ATOM     30  H   UNL     1      33.863 -22.808 -17.653  0.00  0.00    +0.143 HD
ENDBRANCH  16  18
ENDBRANCH   5  16
BRANCH   4  31
ATOM     31  O   UNL     1      34.760 -15.525 -21.763  0.00  0.00    -0.476 OA
BRANCH  31  32
ATOM     32  C   UNL     1      34.155 -15.503 -20.472  0.00  0.00    +0.205 C 
ATOM     33  C   UNL     1      33.404 -14.199 -20.302  0.00  0.00    +0.051 C 
ENDBRANCH  31  32
ENDBRANCH   4  31
TORSDOF 5
ENDMDL
MODEL 9
REMARK VINA RESULT:      -9.2      2.658      7.272
REMARK  Name = 86677874
REMARK  5 active torsions:
REMARK  status: ('A' for Active; 'I' for Inactive)
REMARK    1  A    between atoms: C_3  and  C_11
REMARK    2  A    between atoms: C_4  and  O_31
REMARK    3  A    between atoms: C_5  and  C_16
REMARK    4  A    between atoms: C_16  and  N_18
REMARK    5  A    between atoms: O_31  and  C_32
REMARK                            x       y       z     vdW  Elec       q    Type
REMARK                         _______ _______ _______ _____ _____    ______ ____
ROOT
ATOM      1 CL   UNL     1      29.510 -22.622 -16.129  0.00  0.00    -0.080 Cl
ATOM      2  F   UNL     1      31.352 -21.832 -18.302  0.00  0.00    -0.204 F 
ATOM      3  C   UNL     1      33.363 -22.419 -17.198  0.00  0.00    +0.042 C 
ATOM      4  C   UNL     1      34.011 -22.930 -16.073  0.00  0.00    +0.134 C 
ATOM      5  C   UNL     1      33.268 -23.344 -14.968  0.00  0.00    +0.032 C 
ATOM      6  C   UNL     1      31.971 -22.323 -17.217  0.00  0.00    +0.150 C 
ATOM      7  C   UNL     1      31.876 -23.248 -14.988  0.00  0.00    +0.014 C 
ATOM      8  C   UNL     1      31.228 -22.738 -16.112  0.00  0.00    +0.085 C 
ENDROOT
BRANCH   3  11
ATOM      9  O   UNL     1      34.424 -19.706 -21.151  0.00  0.00    -0.275 OA
ATOM     10  N   UNL     1      35.676 -20.448 -19.317  0.00  0.00    -0.304 N 
ATOM     11  C   UNL     1      34.154 -21.965 -18.404  0.00  0.00    +0.056 C 
ATOM     12  C   UNL     1      35.433 -21.180 -18.107  0.00  0.00    +0.094 C 
ATOM     13  C   UNL     1      33.416 -21.021 -19.374  0.00  0.00    +0.091 C 
ATOM     14  C   UNL     1      34.535 -20.314 -20.097  0.00  0.00    +0.223 C 
ATOM     15  H   UNL     1      36.554 -20.080 -19.567  0.00  0.00    +0.149 HD
ENDBRANCH   3  11
BRANCH   5  16
ATOM     16  C   UNL     1      33.944 -23.894 -13.756  0.00  0.00    +0.123 C 
ATOM     17  C   UNL     1      34.182 -22.855 -12.631  0.00  0.00    +0.029 C 
BRANCH  16  18
ATOM     18  N   UNL     1      35.224 -24.671 -14.088  0.00  0.00    -0.196 N 
ATOM     19  N   UNL     1      35.178 -25.675 -14.983  0.00  0.00    -0.185 NA
ATOM     20  N   UNL     1      36.813 -23.543 -12.651  0.00  0.00    -0.231 NA
ATOM     21  N   UNL     1      39.050 -24.492 -12.861  0.00  0.00    -0.234 NA
ATOM     22  C   UNL     1      36.464 -24.466 -13.561  0.00  0.00    +0.137 C 
ATOM     23  C   UNL     1      37.291 -25.405 -14.155  0.00  0.00    +0.146 C 
ATOM     24  C   UNL     1      36.440 -26.117 -15.020  0.00  0.00    +0.068 C 
ATOM     25  C   UNL     1      38.629 -25.398 -13.776  0.00  0.00    +0.111 C 
ATOM     26  C   UNL     1      36.783 -27.237 -15.914  0.00  0.00    +0.050 C 
ATOM     27  C   UNL     1      38.129 -23.633 -12.363  0.00  0.00    +0.252 C 
ATOM     28  N   UNL     1      39.545 -26.312 -14.326  0.00  0.00    -0.346 N 
ATOM     29  H   UNL     1      40.488 -26.293 -14.045  0.00  0.00    +0.143 HD
ATOM     30  H   UNL     1      39.242 -26.971 -14.992  0.00  0.00    +0.143 HD
ENDBRANCH  16  18
ENDBRANCH   5  16
BRANCH   4  31
ATOM     31  O   UNL     1      35.372 -23.024 -16.054  0.00  0.00    -0.476 OA
BRANCH  31  32
ATOM     32  C   UNL     1      36.093 -21.879 -15.606  0.00  0.00    +0.205 C 
ATOM     33  C   UNL     1      37.570 -22.099 -15.853  0.00  0.00    +0.051 C 
ENDBRANCH  31  32
ENDBRANCH   4  31
TORSDOF 5
ENDMDL
