MODEL 1
REMARK VINA RESULT:     -10.8      0.000      0.000
REMARK  Name = 5288016
REMARK  4 active torsions:
REMARK  status: ('A' for Active; 'I' for Inactive)
REMARK    1  A    between atoms: N_1  and  C_26
REMARK    2  A    between atoms: C_8  and  C_13
REMARK    3  A    between atoms: C_11  and  C_25
REMARK    4  A    between atoms: C_16  and  N_19
REMARK                            x       y       z     vdW  Elec       q    Type
REMARK                         _______ _______ _______ _____ _____    ______ ____
ROOT
ATOM      1  N   UNL     1      32.090 -23.563 -16.133  0.00  0.00    -0.314 N 
ATOM      2  N   UNL     1      32.293 -22.103 -17.967  0.00  0.00    -0.326 NA
ATOM      3  N   UNL     1      34.412 -21.089 -18.503  0.00  0.00    -0.341 NA
ATOM      4  C   UNL     1      32.899 -22.719 -16.934  0.00  0.00    +0.180 C 
ATOM      5  C   UNL     1      34.248 -22.571 -16.625  0.00  0.00    +0.143 C 
ATOM      6  C   UNL     1      34.986 -21.720 -17.463  0.00  0.00    +0.133 C 
ATOM      7  C   UNL     1      34.858 -23.226 -15.540  0.00  0.00    -0.011 C 
ATOM      8  C   UNL     1      36.212 -23.035 -15.286  0.00  0.00    -0.003 C 
ATOM      9  C   UNL     1      36.340 -21.548 -17.185  0.00  0.00    +0.029 C 
ATOM     10  C   UNL     1      36.953 -22.195 -16.108  0.00  0.00    +0.002 C 
ATOM     11  C   UNL     1      33.098 -21.315 -18.698  0.00  0.00    +0.212 C 
ATOM     12  H   UNL     1      32.325 -24.516 -16.062  0.00  0.00    +0.149 HD
ENDROOT
BRANCH   8  13
ATOM     13  C   UNL     1      36.846 -23.706 -14.172  0.00  0.00    +0.001 C 
ATOM     14  C   UNL     1      37.967 -24.509 -14.386  0.00  0.00    +0.014 C 
ATOM     15  C   UNL     1      36.336 -23.550 -12.883  0.00  0.00    +0.000 C 
ATOM     16  C   UNL     1      38.578 -25.155 -13.311  0.00  0.00    +0.042 C 
ATOM     17  C   UNL     1      36.947 -24.197 -11.807  0.00  0.00    +0.001 C 
ATOM     18  C   UNL     1      38.069 -24.998 -12.023  0.00  0.00    +0.014 C 
BRANCH  16  19
ATOM     19  N   UNL     1      39.711 -25.966 -13.529  0.00  0.00    -0.357 N 
ATOM     20  H   UNL     1      39.977 -26.206 -14.445  0.00  0.00    +0.142 HD
ATOM     21  H   UNL     1      40.237 -26.293 -12.762  0.00  0.00    +0.142 HD
ENDBRANCH  16  19
ENDBRANCH   8  13
BRANCH  11  25
ATOM     22  F   UNL     1      31.630 -19.598 -19.484  0.00  0.00    -0.156 F 
ATOM     23  F   UNL     1      33.372 -20.033 -20.699  0.00  0.00    -0.156 F 
ATOM     24  F   UNL     1      31.717 -21.443 -20.631  0.00  0.00    -0.156 F 
ATOM     25  C   UNL     1      32.468 -20.611 -19.853  0.00  0.00    +0.500 C 
ENDBRANCH  11  25
BRANCH   1  26
ATOM     26  C   UNL     1      30.946 -23.086 -15.425  0.00  0.00    +0.056 C 
ATOM     27  C   UNL     1      31.411 -22.119 -14.330  0.00  0.00    +0.020 C 
ATOM     28  C   UNL     1      30.023 -22.362 -16.408  0.00  0.00    +0.020 C 
ATOM     29  C   UNL     1      30.225 -24.285 -14.803  0.00  0.00    +0.020 C 
ENDBRANCH   1  26
TORSDOF 4
ENDMDL
MODEL 2
REMARK VINA RESULT:     -10.4      4.220      6.861
REMARK  Name = 5288016
REMARK  4 active torsions:
REMARK  status: ('A' for Active; 'I' for Inactive)
REMARK    1  A    between atoms: N_1  and  C_26
REMARK    2  A    between atoms: C_8  and  C_13
REMARK    3  A    between atoms: C_11  and  C_25
REMARK    4  A    between atoms: C_16  and  N_19
REMARK                            x       y       z     vdW  Elec       q    Type
REMARK                         _______ _______ _______ _____ _____    ______ ____
ROOT
ATOM      1  N   UNL     1      32.412 -22.588 -13.953  0.00  0.00    -0.314 N 
ATOM      2  N   UNL     1      34.082 -23.440 -12.532  0.00  0.00    -0.326 NA
ATOM      3  N   UNL     1      36.382 -23.516 -13.243  0.00  0.00    -0.341 NA
ATOM      4  C   UNL     1      33.776 -22.900 -13.726  0.00  0.00    +0.180 C 
ATOM      5  C   UNL     1      34.711 -22.639 -14.723  0.00  0.00    +0.143 C 
ATOM      6  C   UNL     1      36.042 -22.974 -14.427  0.00  0.00    +0.133 C 
ATOM      7  C   UNL     1      34.367 -22.073 -15.963  0.00  0.00    -0.011 C 
ATOM      8  C   UNL     1      35.352 -21.837 -16.917  0.00  0.00    -0.003 C 
ATOM      9  C   UNL     1      37.007 -22.726 -15.399  0.00  0.00    +0.029 C 
ATOM     10  C   UNL     1      36.673 -22.165 -16.635  0.00  0.00    +0.002 C 
ATOM     11  C   UNL     1      35.384 -23.719 -12.361  0.00  0.00    +0.212 C 
ATOM     12  H   UNL     1      32.165 -21.653 -14.139  0.00  0.00    +0.149 HD
ENDROOT
BRANCH   8  13
ATOM     13  C   UNL     1      35.005 -21.255 -18.195  0.00  0.00    +0.001 C 
ATOM     14  C   UNL     1      33.669 -21.199 -18.597  0.00  0.00    +0.014 C 
ATOM     15  C   UNL     1      36.004 -20.750 -19.026  0.00  0.00    +0.000 C 
ATOM     16  C   UNL     1      33.335 -20.638 -19.829  0.00  0.00    +0.042 C 
ATOM     17  C   UNL     1      35.670 -20.189 -20.259  0.00  0.00    +0.001 C 
ATOM     18  C   UNL     1      34.335 -20.132 -20.660  0.00  0.00    +0.014 C 
BRANCH  16  19
ATOM     19  N   UNL     1      31.985 -20.581 -20.235  0.00  0.00    -0.357 N 
ATOM     20  H   UNL     1      31.282 -20.375 -19.579  0.00  0.00    +0.142 HD
ATOM     21  H   UNL     1      31.747 -20.748 -21.176  0.00  0.00    +0.142 HD
ENDBRANCH  16  19
ENDBRANCH   8  13
BRANCH  11  25
ATOM     22  F   UNL     1      36.501 -23.484 -10.259  0.00  0.00    -0.156 F 
ATOM     23  F   UNL     1      34.700 -24.692 -10.285  0.00  0.00    -0.156 F 
ATOM     24  F   UNL     1      36.527 -25.447 -11.193  0.00  0.00    -0.156 F 
ATOM     25  C   UNL     1      35.769 -24.321 -11.051  0.00  0.00    +0.500 C 
ENDBRANCH  11  25
BRANCH   1  26
ATOM     26  C   UNL     1      31.381 -23.574 -13.922  0.00  0.00    +0.056 C 
ATOM     27  C   UNL     1      32.015 -24.943 -13.655  0.00  0.00    +0.020 C 
ATOM     28  C   UNL     1      30.397 -23.224 -12.803  0.00  0.00    +0.020 C 
ATOM     29  C   UNL     1      30.668 -23.574 -15.277  0.00  0.00    +0.020 C 
ENDBRANCH   1  26
TORSDOF 4
ENDMDL
MODEL 3
REMARK VINA RESULT:     -10.2      3.382      7.316
REMARK  Name = 5288016
REMARK  4 active torsions:
REMARK  status: ('A' for Active; 'I' for Inactive)
REMARK    1  A    between atoms: N_1  and  C_26
REMARK    2  A    between atoms: C_8  and  C_13
REMARK    3  A    between atoms: C_11  and  C_25
REMARK    4  A    between atoms: C_16  and  N_19
REMARK                            x       y       z     vdW  Elec       q    Type
REMARK                         _______ _______ _______ _____ _____    ______ ____
ROOT
ATOM      1  N   UNL     1      35.663 -22.787 -16.578  0.00  0.00    -0.314 N 
ATOM      2  N   UNL     1      33.566 -23.370 -15.687  0.00  0.00    -0.326 NA
ATOM      3  N   UNL     1      31.533 -22.550 -16.687  0.00  0.00    -0.341 NA
ATOM      4  C   UNL     1      34.250 -22.695 -16.630  0.00  0.00    +0.180 C 
ATOM      5  C   UNL     1      33.651 -21.931 -17.627  0.00  0.00    +0.143 C 
ATOM      6  C   UNL     1      32.247 -21.887 -17.614  0.00  0.00    +0.133 C 
ATOM      7  C   UNL     1      34.387 -21.234 -18.601  0.00  0.00    -0.011 C 
ATOM      8  C   UNL     1      33.726 -20.488 -19.571  0.00  0.00    -0.003 C 
ATOM      9  C   UNL     1      31.611 -21.133 -18.597  0.00  0.00    +0.029 C 
ATOM     10  C   UNL     1      32.337 -20.437 -19.569  0.00  0.00    +0.002 C 
ATOM     11  C   UNL     1      32.231 -23.255 -15.775  0.00  0.00    +0.212 C 
ATOM     12  H   UNL     1      36.141 -23.162 -17.353  0.00  0.00    +0.149 HD
ENDROOT
BRANCH   8  13
ATOM     13  C   UNL     1      34.478 -19.769 -20.576  0.00  0.00    +0.001 C 
ATOM     14  C   UNL     1      33.853 -19.357 -21.754  0.00  0.00    +0.014 C 
ATOM     15  C   UNL     1      35.828 -19.487 -20.368  0.00  0.00    +0.000 C 
ATOM     16  C   UNL     1      34.578 -18.663 -22.722  0.00  0.00    +0.042 C 
ATOM     17  C   UNL     1      36.554 -18.793 -21.337  0.00  0.00    +0.001 C 
ATOM     18  C   UNL     1      35.928 -18.381 -22.513  0.00  0.00    +0.014 C 
BRANCH  16  19
ATOM     19  N   UNL     1      33.946 -18.246 -23.912  0.00  0.00    -0.357 N 
ATOM     20  H   UNL     1      34.485 -18.022 -24.704  0.00  0.00    +0.142 HD
ATOM     21  H   UNL     1      32.964 -18.181 -23.951  0.00  0.00    +0.142 HD
ENDBRANCH  16  19
ENDBRANCH   8  13
BRANCH  11  25
ATOM     22  F   UNL     1      30.373 -24.675 -15.270  0.00  0.00    -0.156 F 
ATOM     23  F   UNL     1      32.153 -24.916 -14.055  0.00  0.00    -0.156 F 
ATOM     24  F   UNL     1      30.899 -23.156 -13.807  0.00  0.00    -0.156 F 
ATOM     25  C   UNL     1      31.432 -23.987 -14.749  0.00  0.00    +0.500 C 
ENDBRANCH  11  25
BRANCH   1  26
ATOM     26  C   UNL     1      36.422 -22.357 -15.449  0.00  0.00    +0.056 C 
ATOM     27  C   UNL     1      35.464 -22.079 -14.287  0.00  0.00    +0.020 C 
ATOM     28  C   UNL     1      37.406 -23.465 -15.065  0.00  0.00    +0.020 C 
ATOM     29  C   UNL     1      37.179 -21.082 -15.829  0.00  0.00    +0.020 C 
ENDBRANCH   1  26
TORSDOF 4
ENDMDL
MODEL 4
REMARK VINA RESULT:      -9.2     12.807     16.508
REMARK  Name = 5288016
REMARK  4 active torsions:
REMARK  status: ('A' for Active; 'I' for Inactive)
REMARK    1  A    between atoms: N_1  and  C_26
REMARK    2  A    between atoms: C_8  and  C_13
REMARK    3  A    between atoms: C_11  and  C_25
REMARK    4  A    between atoms: C_16  and  N_19
REMARK                            x       y       z     vdW  Elec       q    Type
REMARK                         _______ _______ _______ _____ _____    ______ ____
ROOT
ATOM      1  N   UNL     1      34.066  -7.057 -23.846  0.00  0.00    -0.314 N 
ATOM      2  N   UNL     1      32.767  -6.053 -22.161  0.00  0.00    -0.326 NA
ATOM      3  N   UNL     1      31.272  -7.374 -20.809  0.00  0.00    -0.341 NA
ATOM      4  C   UNL     1      33.108  -7.183 -22.809  0.00  0.00    +0.180 C 
ATOM      5  C   UNL     1      32.578  -8.436 -22.517  0.00  0.00    +0.143 C 
ATOM      6  C   UNL     1      31.636  -8.484 -21.478  0.00  0.00    +0.133 C 
ATOM      7  C   UNL     1      32.951  -9.602 -23.209  0.00  0.00    -0.011 C 
ATOM      8  C   UNL     1      32.384 -10.825 -22.866  0.00  0.00    -0.003 C 
ATOM      9  C   UNL     1      31.084  -9.721 -21.155  0.00  0.00    +0.029 C 
ATOM     10  C   UNL     1      31.449 -10.885 -21.839  0.00  0.00    +0.002 C 
ATOM     11  C   UNL     1      31.858  -6.220 -21.187  0.00  0.00    +0.212 C 
ATOM     12  H   UNL     1      34.912  -7.556 -23.771  0.00  0.00    +0.149 HD
ENDROOT
BRANCH   8  13
ATOM     13  C   UNL     1      32.762 -12.029 -23.574  0.00  0.00    +0.001 C 
ATOM     14  C   UNL     1      33.496 -13.021 -22.922  0.00  0.00    +0.014 C 
ATOM     15  C   UNL     1      32.395 -12.198 -24.908  0.00  0.00    +0.000 C 
ATOM     16  C   UNL     1      33.861 -14.181 -23.605  0.00  0.00    +0.042 C 
ATOM     17  C   UNL     1      32.760 -13.358 -25.592  0.00  0.00    +0.001 C 
ATOM     18  C   UNL     1      33.492 -14.350 -24.939  0.00  0.00    +0.014 C 
BRANCH  16  19
ATOM     19  N   UNL     1      34.602 -15.183 -22.945  0.00  0.00    -0.357 N 
ATOM     20  H   UNL     1      35.563 -15.056 -22.779  0.00  0.00    +0.142 HD
ATOM     21  H   UNL     1      34.157 -16.011 -22.650  0.00  0.00    +0.142 HD
ENDBRANCH  16  19
ENDBRANCH   8  13
BRANCH  11  25
ATOM     22  F   UNL     1      30.120  -4.965 -20.124  0.00  0.00    -0.156 F 
ATOM     23  F   UNL     1      32.102  -4.834 -19.253  0.00  0.00    -0.156 F 
ATOM     24  F   UNL     1      31.682  -3.849 -21.146  0.00  0.00    -0.156 F 
ATOM     25  C   UNL     1      31.448  -4.994 -20.442  0.00  0.00    +0.500 C 
ENDBRANCH  11  25
BRANCH   1  26
ATOM     26  C   UNL     1      33.855  -6.236 -24.994  0.00  0.00    +0.056 C 
ATOM     27  C   UNL     1      32.435  -6.478 -25.519  0.00  0.00    +0.020 C 
ATOM     28  C   UNL     1      34.023  -4.769 -24.589  0.00  0.00    +0.020 C 
ATOM     29  C   UNL     1      34.886  -6.616 -26.059  0.00  0.00    +0.020 C 
ENDBRANCH   1  26
TORSDOF 4
ENDMDL
MODEL 5
REMARK VINA RESULT:      -9.1      2.366      4.053
REMARK  Name = 5288016
REMARK  4 active torsions:
REMARK  status: ('A' for Active; 'I' for Inactive)
REMARK    1  A    between atoms: N_1  and  C_26
REMARK    2  A    between atoms: C_8  and  C_13
REMARK    3  A    between atoms: C_11  and  C_25
REMARK    4  A    between atoms: C_16  and  N_19
REMARK                            x       y       z     vdW  Elec       q    Type
REMARK                         _______ _______ _______ _____ _____    ______ ____
ROOT
ATOM      1  N   UNL     1      33.224 -21.683 -17.284  0.00  0.00    -0.314 N 
ATOM      2  N   UNL     1      30.988 -22.202 -16.772  0.00  0.00    -0.326 NA
ATOM      3  N   UNL     1      30.447 -23.546 -14.848  0.00  0.00    -0.341 NA
ATOM      4  C   UNL     1      32.286 -22.327 -16.440  0.00  0.00    +0.180 C 
ATOM      5  C   UNL     1      32.740 -23.041 -15.334  0.00  0.00    +0.143 C 
ATOM      6  C   UNL     1      31.753 -23.652 -14.544  0.00  0.00    +0.133 C 
ATOM      7  C   UNL     1      34.102 -23.158 -15.008  0.00  0.00    -0.011 C 
ATOM      8  C   UNL     1      34.489 -23.886 -13.887  0.00  0.00    -0.003 C 
ATOM      9  C   UNL     1      32.168 -24.374 -13.428  0.00  0.00    +0.029 C 
ATOM     10  C   UNL     1      33.521 -24.495 -13.097  0.00  0.00    +0.002 C 
ATOM     11  C   UNL     1      30.136 -22.827 -15.944  0.00  0.00    +0.212 C 
ATOM     12  H   UNL     1      33.811 -20.992 -16.900  0.00  0.00    +0.149 HD
ENDROOT
BRANCH   8  13
ATOM     13  C   UNL     1      35.889 -24.010 -13.546  0.00  0.00    +0.001 C 
ATOM     14  C   UNL     1      36.830 -24.279 -14.541  0.00  0.00    +0.014 C 
ATOM     15  C   UNL     1      36.300 -23.861 -12.221  0.00  0.00    +0.000 C 
ATOM     16  C   UNL     1      38.179 -24.399 -14.212  0.00  0.00    +0.042 C 
ATOM     17  C   UNL     1      37.651 -23.980 -11.892  0.00  0.00    +0.001 C 
ATOM     18  C   UNL     1      38.590 -24.248 -12.887  0.00  0.00    +0.014 C 
BRANCH  16  19
ATOM     19  N   UNL     1      39.129 -24.671 -15.218  0.00  0.00    -0.357 N 
ATOM     20  H   UNL     1      39.866 -24.040 -15.384  0.00  0.00    +0.142 HD
ATOM     21  H   UNL     1      39.055 -25.493 -15.756  0.00  0.00    +0.142 HD
ENDBRANCH  16  19
ENDBRANCH   8  13
BRANCH  11  25
ATOM     22  F   UNL     1      28.334 -21.503 -16.796  0.00  0.00    -0.156 F 
ATOM     23  F   UNL     1      28.262 -23.634 -17.194  0.00  0.00    -0.156 F 
ATOM     24  F   UNL     1      27.883 -22.892 -15.185  0.00  0.00    -0.156 F 
ATOM     25  C   UNL     1      28.685 -22.716 -16.275  0.00  0.00    +0.500 C 
ENDBRANCH  11  25
BRANCH   1  26
ATOM     26  C   UNL     1      33.353 -21.994 -18.671  0.00  0.00    +0.056 C 
ATOM     27  C   UNL     1      32.312 -21.190 -19.456  0.00  0.00    +0.020 C 
ATOM     28  C   UNL     1      34.763 -21.619 -19.133  0.00  0.00    +0.020 C 
ATOM     29  C   UNL     1      33.115 -23.495 -18.856  0.00  0.00    +0.020 C 
ENDBRANCH   1  26
TORSDOF 4
ENDMDL
