MODEL 1
REMARK VINA RESULT:     -11.4      0.000      0.000
REMARK  Name = 7013169
REMARK  8 active torsions:
REMARK  status: ('A' for Active; 'I' for Inactive)
REMARK    1  A    between atoms: N_3  and  C_16
REMARK    2  A    between atoms: C_10  and  C_13
REMARK    3  A    between atoms: C_13  and  O_14
REMARK    4  A    between atoms: C_16  and  C_18
REMARK    5  A    between atoms: C_16  and  C_21
REMARK    6  A    between atoms: C_18  and  O_19
REMARK    7  A    between atoms: C_21  and  C_22
REMARK    8  A    between atoms: C_27  and  O_28
REMARK                            x       y       z     vdW  Elec       q    Type
REMARK                         _______ _______ _______ _____ _____    ______ ____
ROOT
ATOM      1  O   UNL     1      36.075 -21.907 -17.115  0.00  0.00    -0.269 OA
ATOM      2  O   UNL     1      31.553 -22.072 -18.115  0.00  0.00    -0.269 OA
ATOM      3  N   UNL     1      33.746 -22.233 -17.268  0.00  0.00    -0.213 N 
ATOM      4  C   UNL     1      34.754 -20.935 -18.826  0.00  0.00    +0.059 C 
ATOM      5  C   UNL     1      33.401 -20.984 -19.125  0.00  0.00    +0.058 C 
ATOM      6  C   UNL     1      34.984 -21.743 -17.629  0.00  0.00    +0.256 C 
ATOM      7  C   UNL     1      32.746 -21.824 -18.123  0.00  0.00    +0.256 C 
ATOM      8  C   UNL     1      35.647 -20.217 -19.595  0.00  0.00    +0.011 C 
ATOM      9  C   UNL     1      32.868 -20.318 -20.209  0.00  0.00    +0.005 C 
ATOM     10  C   UNL     1      35.129 -19.533 -20.698  0.00  0.00    +0.076 C 
ATOM     11  C   UNL     1      33.754 -19.582 -21.003  0.00  0.00    +0.007 C 
ENDROOT
BRANCH  10  13
ATOM     12  O   UNL     1      35.846 -18.527 -22.748  0.00  0.00    -0.245 OA
ATOM     13  C   UNL     1      36.022 -18.758 -21.547  0.00  0.00    +0.338 C 
BRANCH  13  14
ATOM     14  O   UNL     1      37.108 -18.293 -20.872  0.00  0.00    -0.477 OA
ATOM     15  H   UNL     1      37.243 -18.535 -19.977  0.00  0.00    +0.295 HD
ENDBRANCH  13  14
ENDBRANCH  10  13
BRANCH   3  16
ATOM     16  C   UNL     1      33.522 -23.083 -16.116  0.00  0.00    +0.186 C 
BRANCH  16  18
ATOM     17  O   UNL     1      35.433 -24.466 -15.574  0.00  0.00    -0.248 OA
ATOM     18  C   UNL     1      34.831 -23.408 -15.412  0.00  0.00    +0.333 C 
BRANCH  18  19
ATOM     19  O   UNL     1      35.288 -22.439 -14.582  0.00  0.00    -0.479 OA
ATOM     20  H   UNL     1      36.132 -22.059 -14.725  0.00  0.00    +0.295 HD
ENDBRANCH  18  19
ENDBRANCH  16  18
BRANCH  16  21
ATOM     21  C   UNL     1      32.544 -22.433 -15.127  0.00  0.00    +0.058 C 
BRANCH  21  22
ATOM     22  C   UNL     1      31.376 -23.332 -14.794  0.00  0.00    -0.020 C 
ATOM     23  C   UNL     1      31.485 -24.218 -13.735  0.00  0.00    -0.001 C 
ATOM     24  C   UNL     1      30.220 -23.251 -15.552  0.00  0.00    -0.001 C 
ATOM     25  C   UNL     1      30.407 -25.049 -13.427  0.00  0.00    +0.036 C 
ATOM     26  C   UNL     1      29.142 -24.081 -15.244  0.00  0.00    +0.036 C 
ATOM     27  C   UNL     1      29.235 -24.980 -14.181  0.00  0.00    +0.134 C 
BRANCH  27  28
ATOM     28  O   UNL     1      28.185 -25.790 -13.881  0.00  0.00    -0.506 OA
ATOM     29  H   UNL     1      28.328 -26.700 -13.710  0.00  0.00    +0.292 HD
ENDBRANCH  27  28
ENDBRANCH  21  22
ENDBRANCH  16  21
ENDBRANCH   3  16
TORSDOF 8
ENDMDL
MODEL 2
REMARK VINA RESULT:     -11.2      0.848      1.934
REMARK  Name = 7013169
REMARK  8 active torsions:
REMARK  status: ('A' for Active; 'I' for Inactive)
REMARK    1  A    between atoms: N_3  and  C_16
REMARK    2  A    between atoms: C_10  and  C_13
REMARK    3  A    between atoms: C_13  and  O_14
REMARK    4  A    between atoms: C_16  and  C_18
REMARK    5  A    between atoms: C_16  and  C_21
REMARK    6  A    between atoms: C_18  and  O_19
REMARK    7  A    between atoms: C_21  and  C_22
REMARK    8  A    between atoms: C_27  and  O_28
REMARK                            x       y       z     vdW  Elec       q    Type
REMARK                         _______ _______ _______ _____ _____    ______ ____
ROOT
ATOM      1  O   UNL     1      31.655 -21.658 -18.395  0.00  0.00    -0.269 OA
ATOM      2  O   UNL     1      35.998 -22.248 -16.889  0.00  0.00    -0.269 OA
ATOM      3  N   UNL     1      33.683 -22.206 -17.326  0.00  0.00    -0.213 N 
ATOM      4  C   UNL     1      33.762 -20.901 -19.175  0.00  0.00    +0.059 C 
ATOM      5  C   UNL     1      35.061 -21.077 -18.724  0.00  0.00    +0.058 C 
ATOM      6  C   UNL     1      32.866 -21.624 -18.273  0.00  0.00    +0.256 C 
ATOM      7  C   UNL     1      35.016 -21.917 -17.528  0.00  0.00    +0.256 C 
ATOM      8  C   UNL     1      33.473 -20.147 -20.294  0.00  0.00    +0.011 C 
ATOM      9  C   UNL     1      36.141 -20.510 -19.369  0.00  0.00    +0.005 C 
ATOM     10  C   UNL     1      34.552 -19.564 -20.964  0.00  0.00    +0.076 C 
ATOM     11  C   UNL     1      35.873 -19.744 -20.507  0.00  0.00    +0.007 C 
ENDROOT
BRANCH  10  13
ATOM     12  O   UNL     1      33.886 -19.185 -23.231  0.00  0.00    -0.245 OA
ATOM     13  C   UNL     1      34.309 -18.759 -22.152  0.00  0.00    +0.338 C 
BRANCH  13  14
ATOM     14  O   UNL     1      34.601 -17.444 -21.957  0.00  0.00    -0.477 OA
ATOM     15  H   UNL     1      33.921 -16.843 -21.721  0.00  0.00    +0.295 HD
ENDBRANCH  13  14
ENDBRANCH  10  13
BRANCH   3  16
ATOM     16  C   UNL     1      33.194 -23.030 -16.238  0.00  0.00    +0.186 C 
BRANCH  16  18
ATOM     17  O   UNL     1      34.884 -24.569 -15.445  0.00  0.00    -0.248 OA
ATOM     18  C   UNL     1      34.333 -23.478 -15.335  0.00  0.00    +0.333 C 
BRANCH  18  19
ATOM     19  O   UNL     1      34.696 -22.578 -14.388  0.00  0.00    -0.479 OA
ATOM     20  H   UNL     1      34.520 -21.667 -14.516  0.00  0.00    +0.295 HD
ENDBRANCH  18  19
ENDBRANCH  16  18
BRANCH  16  21
ATOM     21  C   UNL     1      32.132 -22.288 -15.414  0.00  0.00    +0.058 C 
BRANCH  21  22
ATOM     22  C   UNL     1      31.002 -23.192 -14.979  0.00  0.00    -0.020 C 
ATOM     23  C   UNL     1      31.151 -23.959 -13.835  0.00  0.00    -0.001 C 
ATOM     24  C   UNL     1      29.840 -23.235 -15.731  0.00  0.00    -0.001 C 
ATOM     25  C   UNL     1      30.108 -24.795 -13.433  0.00  0.00    +0.036 C 
ATOM     26  C   UNL     1      28.798 -24.070 -15.330  0.00  0.00    +0.036 C 
ATOM     27  C   UNL     1      28.931 -24.849 -14.181  0.00  0.00    +0.134 C 
BRANCH  27  28
ATOM     28  O   UNL     1      27.915 -25.664 -13.789  0.00  0.00    -0.506 OA
ATOM     29  H   UNL     1      28.090 -26.556 -13.560  0.00  0.00    +0.292 HD
ENDBRANCH  27  28
ENDBRANCH  21  22
ENDBRANCH  16  21
ENDBRANCH   3  16
TORSDOF 8
ENDMDL
MODEL 3
REMARK VINA RESULT:     -11.0      4.712      7.771
REMARK  Name = 7013169
REMARK  8 active torsions:
REMARK  status: ('A' for Active; 'I' for Inactive)
REMARK    1  A    between atoms: N_3  and  C_16
REMARK    2  A    between atoms: C_10  and  C_13
REMARK    3  A    between atoms: C_13  and  O_14
REMARK    4  A    between atoms: C_16  and  C_18
REMARK    5  A    between atoms: C_16  and  C_21
REMARK    6  A    between atoms: C_18  and  O_19
REMARK    7  A    between atoms: C_21  and  C_22
REMARK    8  A    between atoms: C_27  and  O_28
REMARK                            x       y       z     vdW  Elec       q    Type
REMARK                         _______ _______ _______ _____ _____    ______ ____
ROOT
ATOM      1  O   UNL     1      34.531 -15.398 -20.599  0.00  0.00    -0.269 OA
ATOM      2  O   UNL     1      33.830 -17.435 -24.702  0.00  0.00    -0.269 OA
ATOM      3  N   UNL     1      34.277 -16.798 -22.478  0.00  0.00    -0.213 N 
ATOM      4  C   UNL     1      33.836 -14.590 -22.716  0.00  0.00    +0.059 C 
ATOM      5  C   UNL     1      33.626 -15.199 -23.943  0.00  0.00    +0.058 C 
ATOM      6  C   UNL     1      34.260 -15.617 -21.765  0.00  0.00    +0.256 C 
ATOM      7  C   UNL     1      33.913 -16.625 -23.796  0.00  0.00    +0.256 C 
ATOM      8  C   UNL     1      33.649 -13.235 -22.531  0.00  0.00    +0.011 C 
ATOM      9  C   UNL     1      33.218 -14.487 -25.052  0.00  0.00    +0.005 C 
ATOM     10  C   UNL     1      33.235 -12.493 -23.641  0.00  0.00    +0.076 C 
ATOM     11  C   UNL     1      33.021 -13.112 -24.889  0.00  0.00    +0.007 C 
ENDROOT
BRANCH  10  13
ATOM     12  O   UNL     1      31.939 -10.518 -23.260  0.00  0.00    -0.245 OA
ATOM     13  C   UNL     1      33.021 -11.060 -23.507  0.00  0.00    +0.338 C 
BRANCH  13  14
ATOM     14  O   UNL     1      34.165 -10.344 -23.685  0.00  0.00    -0.477 OA
ATOM     15  H   UNL     1      34.633 -10.402 -24.495  0.00  0.00    +0.295 HD
ENDBRANCH  13  14
ENDBRANCH  10  13
BRANCH   3  16
ATOM     16  C   UNL     1      34.637 -18.079 -21.903  0.00  0.00    +0.186 C 
BRANCH  16  18
ATOM     17  O   UNL     1      36.845 -18.546 -22.777  0.00  0.00    -0.248 OA
ATOM     18  C   UNL     1      36.148 -18.235 -21.816  0.00  0.00    +0.333 C 
BRANCH  18  19
ATOM     19  O   UNL     1      36.674 -18.007 -20.588  0.00  0.00    -0.479 OA
ATOM     20  H   UNL     1      37.569 -17.745 -20.503  0.00  0.00    +0.295 HD
ENDBRANCH  18  19
ENDBRANCH  16  18
BRANCH  16  21
ATOM     21  C   UNL     1      34.010 -18.260 -20.513  0.00  0.00    +0.058 C 
BRANCH  21  22
ATOM     22  C   UNL     1      33.846 -19.714 -20.138  0.00  0.00    -0.020 C 
ATOM     23  C   UNL     1      34.973 -20.507 -19.995  0.00  0.00    -0.001 C 
ATOM     24  C   UNL     1      32.574 -20.226 -19.945  0.00  0.00    -0.001 C 
ATOM     25  C   UNL     1      34.822 -21.851 -19.649  0.00  0.00    +0.036 C 
ATOM     26  C   UNL     1      32.423 -21.568 -19.599  0.00  0.00    +0.036 C 
ATOM     27  C   UNL     1      33.547 -22.381 -19.450  0.00  0.00    +0.134 C 
BRANCH  27  28
ATOM     28  O   UNL     1      33.400 -23.691 -19.113  0.00  0.00    -0.506 OA
ATOM     29  H   UNL     1      33.973 -24.336 -19.478  0.00  0.00    +0.292 HD
ENDBRANCH  27  28
ENDBRANCH  21  22
ENDBRANCH  16  21
ENDBRANCH   3  16
TORSDOF 8
ENDMDL
MODEL 4
REMARK VINA RESULT:     -10.9      6.906     11.650
REMARK  Name = 7013169
REMARK  8 active torsions:
REMARK  status: ('A' for Active; 'I' for Inactive)
REMARK    1  A    between atoms: N_3  and  C_16
REMARK    2  A    between atoms: C_10  and  C_13
REMARK    3  A    between atoms: C_13  and  O_14
REMARK    4  A    between atoms: C_16  and  C_18
REMARK    5  A    between atoms: C_16  and  C_21
REMARK    6  A    between atoms: C_18  and  O_19
REMARK    7  A    between atoms: C_21  and  C_22
REMARK    8  A    between atoms: C_27  and  O_28
REMARK                            x       y       z     vdW  Elec       q    Type
REMARK                         _______ _______ _______ _____ _____    ______ ____
ROOT
ATOM      1  O   UNL     1      34.106 -13.954 -21.007  0.00  0.00    -0.269 OA
ATOM      2  O   UNL     1      33.176 -15.422 -25.303  0.00  0.00    -0.269 OA
ATOM      3  N   UNL     1      33.512 -14.293 -23.262  0.00  0.00    -0.213 N 
ATOM      4  C   UNL     1      34.360 -16.042 -22.100  0.00  0.00    +0.059 C 
ATOM      5  C   UNL     1      34.081 -16.481 -23.385  0.00  0.00    +0.058 C 
ATOM      6  C   UNL     1      33.990 -14.629 -22.013  0.00  0.00    +0.256 C 
ATOM      7  C   UNL     1      33.530 -15.355 -24.140  0.00  0.00    +0.256 C 
ATOM      8  C   UNL     1      34.892 -16.879 -21.141  0.00  0.00    +0.011 C 
ATOM      9  C   UNL     1      34.321 -17.781 -23.781  0.00  0.00    +0.005 C 
ATOM     10  C   UNL     1      35.144 -18.200 -21.520  0.00  0.00    +0.076 C 
ATOM     11  C   UNL     1      34.861 -18.647 -22.826  0.00  0.00    +0.007 C 
ENDROOT
BRANCH  10  13
ATOM     12  O   UNL     1      35.270 -20.262 -20.312  0.00  0.00    -0.245 OA
ATOM     13  C   UNL     1      35.705 -19.131 -20.552  0.00  0.00    +0.338 C 
BRANCH  13  14
ATOM     14  O   UNL     1      36.793 -18.622 -19.912  0.00  0.00    -0.477 OA
ATOM     15  H   UNL     1      36.812 -18.588 -18.975  0.00  0.00    +0.295 HD
ENDBRANCH  13  14
ENDBRANCH  10  13
BRANCH   3  16
ATOM     16  C   UNL     1      33.042 -12.967 -23.613  0.00  0.00    +0.186 C 
BRANCH  16  18
ATOM     17  O   UNL     1      33.793 -12.388 -25.839  0.00  0.00    -0.248 OA
ATOM     18  C   UNL     1      32.897 -12.819 -25.120  0.00  0.00    +0.333 C 
BRANCH  18  19
ATOM     19  O   UNL     1      31.693 -13.196 -25.617  0.00  0.00    -0.479 OA
ATOM     20  H   UNL     1      31.563 -13.245 -26.543  0.00  0.00    +0.295 HD
ENDBRANCH  18  19
ENDBRANCH  16  18
BRANCH  16  21
ATOM     21  C   UNL     1      31.706 -12.651 -22.925  0.00  0.00    +0.058 C 
BRANCH  21  22
ATOM     22  C   UNL     1      31.666 -11.253 -22.354  0.00  0.00    -0.020 C 
ATOM     23  C   UNL     1      32.183 -10.204 -23.098  0.00  0.00    -0.001 C 
ATOM     24  C   UNL     1      31.115 -11.047 -21.101  0.00  0.00    -0.001 C 
ATOM     25  C   UNL     1      32.146  -8.912 -22.571  0.00  0.00    +0.036 C 
ATOM     26  C   UNL     1      31.078  -9.756 -20.574  0.00  0.00    +0.036 C 
ATOM     27  C   UNL     1      31.594  -8.688 -21.309  0.00  0.00    +0.134 C 
BRANCH  27  28
ATOM     28  O   UNL     1      31.559  -7.429 -20.796  0.00  0.00    -0.506 OA
ATOM     29  H   UNL     1      32.280  -7.108 -20.290  0.00  0.00    +0.292 HD
ENDBRANCH  27  28
ENDBRANCH  21  22
ENDBRANCH  16  21
ENDBRANCH   3  16
TORSDOF 8
ENDMDL
MODEL 5
REMARK VINA RESULT:     -10.8      4.302      7.345
REMARK  Name = 7013169
REMARK  8 active torsions:
REMARK  status: ('A' for Active; 'I' for Inactive)
REMARK    1  A    between atoms: N_3  and  C_16
REMARK    2  A    between atoms: C_10  and  C_13
REMARK    3  A    between atoms: C_13  and  O_14
REMARK    4  A    between atoms: C_16  and  C_18
REMARK    5  A    between atoms: C_16  and  C_21
REMARK    6  A    between atoms: C_18  and  O_19
REMARK    7  A    between atoms: C_21  and  C_22
REMARK    8  A    between atoms: C_27  and  O_28
REMARK                            x       y       z     vdW  Elec       q    Type
REMARK                         _______ _______ _______ _____ _____    ______ ____
ROOT
ATOM      1  O   UNL     1      33.023 -22.288 -16.172  0.00  0.00    -0.269 OA
ATOM      2  O   UNL     1      31.960 -25.027 -12.588  0.00  0.00    -0.269 OA
ATOM      3  N   UNL     1      32.905 -23.668 -14.265  0.00  0.00    -0.213 N 
ATOM      4  C   UNL     1      30.979 -23.153 -15.339  0.00  0.00    +0.059 C 
ATOM      5  C   UNL     1      30.661 -23.973 -14.267  0.00  0.00    +0.058 C 
ATOM      6  C   UNL     1      32.428 -22.956 -15.346  0.00  0.00    +0.256 C 
ATOM      7  C   UNL     1      31.902 -24.311 -13.571  0.00  0.00    +0.256 C 
ATOM      8  C   UNL     1      30.015 -22.664 -16.197  0.00  0.00    +0.011 C 
ATOM      9  C   UNL     1      29.362 -24.347 -13.994  0.00  0.00    +0.005 C 
ATOM     10  C   UNL     1      28.691 -23.029 -15.938  0.00  0.00    +0.076 C 
ATOM     11  C   UNL     1      28.367 -23.861 -14.849  0.00  0.00    +0.007 C 
ENDROOT
BRANCH  10  13
ATOM     12  O   UNL     1      27.074 -23.201 -17.694  0.00  0.00    -0.245 OA
ATOM     13  C   UNL     1      27.629 -22.544 -16.808  0.00  0.00    +0.338 C 
BRANCH  13  14
ATOM     14  O   UNL     1      27.291 -21.252 -16.545  0.00  0.00    -0.477 OA
ATOM     15  H   UNL     1      27.784 -20.552 -16.925  0.00  0.00    +0.295 HD
ENDBRANCH  13  14
ENDBRANCH  10  13
BRANCH   3  16
ATOM     16  C   UNL     1      34.306 -23.732 -13.899  0.00  0.00    +0.186 C 
BRANCH  16  18
ATOM     17  O   UNL     1      35.129 -24.691 -11.835  0.00  0.00    -0.248 OA
ATOM     18  C   UNL     1      34.474 -23.813 -12.389  0.00  0.00    +0.333 C 
BRANCH  18  19
ATOM     19  O   UNL     1      33.840 -22.839 -11.692  0.00  0.00    -0.479 OA
ATOM     20  H   UNL     1      33.502 -23.018 -10.837  0.00  0.00    +0.295 HD
ENDBRANCH  18  19
ENDBRANCH  16  18
BRANCH  16  21
ATOM     21  C   UNL     1      35.001 -24.927 -14.568  0.00  0.00    +0.058 C 
BRANCH  21  22
ATOM     22  C   UNL     1      36.505 -24.794 -14.570  0.00  0.00    -0.020 C 
ATOM     23  C   UNL     1      37.078 -23.593 -14.955  0.00  0.00    -0.001 C 
ATOM     24  C   UNL     1      37.282 -25.875 -14.187  0.00  0.00    -0.001 C 
ATOM     25  C   UNL     1      38.468 -23.470 -14.957  0.00  0.00    +0.036 C 
ATOM     26  C   UNL     1      38.672 -25.752 -14.190  0.00  0.00    +0.036 C 
ATOM     27  C   UNL     1      39.265 -24.550 -14.574  0.00  0.00    +0.134 C 
BRANCH  27  28
ATOM     28  O   UNL     1      40.620 -24.429 -14.577  0.00  0.00    -0.506 OA
ATOM     29  H   UNL     1      41.152 -25.124 -14.912  0.00  0.00    +0.292 HD
ENDBRANCH  27  28
ENDBRANCH  21  22
ENDBRANCH  16  21
ENDBRANCH   3  16
TORSDOF 8
ENDMDL
MODEL 6
REMARK VINA RESULT:     -10.6      3.146      7.178
REMARK  Name = 7013169
REMARK  8 active torsions:
REMARK  status: ('A' for Active; 'I' for Inactive)
REMARK    1  A    between atoms: N_3  and  C_16
REMARK    2  A    between atoms: C_10  and  C_13
REMARK    3  A    between atoms: C_13  and  O_14
REMARK    4  A    between atoms: C_16  and  C_18
REMARK    5  A    between atoms: C_16  and  C_21
REMARK    6  A    between atoms: C_18  and  O_19
REMARK    7  A    between atoms: C_21  and  C_22
REMARK    8  A    between atoms: C_27  and  O_28
REMARK                            x       y       z     vdW  Elec       q    Type
REMARK                         _______ _______ _______ _____ _____    ______ ____
ROOT
ATOM      1  O   UNL     1      33.757 -22.624 -17.734  0.00  0.00    -0.269 OA
ATOM      2  O   UNL     1      34.202 -23.156 -13.151  0.00  0.00    -0.269 OA
ATOM      3  N   UNL     1      34.407 -22.884 -15.483  0.00  0.00    -0.213 N 
ATOM      4  C   UNL     1      32.195 -22.772 -15.956  0.00  0.00    +0.059 C 
ATOM      5  C   UNL     1      32.328 -22.931 -14.586  0.00  0.00    +0.058 C 
ATOM      6  C   UNL     1      33.535 -22.745 -16.542  0.00  0.00    +0.256 C 
ATOM      7  C   UNL     1      33.755 -23.007 -14.275  0.00  0.00    +0.256 C 
ATOM      8  C   UNL     1      30.960 -22.670 -16.564  0.00  0.00    +0.011 C 
ATOM      9  C   UNL     1      31.234 -22.996 -13.748  0.00  0.00    +0.005 C 
ATOM     10  C   UNL     1      29.837 -22.732 -15.734  0.00  0.00    +0.076 C 
ATOM     11  C   UNL     1      29.972 -22.894 -14.341  0.00  0.00    +0.007 C 
ENDROOT
BRANCH  10  13
ATOM     12  O   UNL     1      27.983 -21.588 -16.725  0.00  0.00    -0.245 OA
ATOM     13  C   UNL     1      28.507 -22.630 -16.317  0.00  0.00    +0.338 C 
BRANCH  13  14
ATOM     14  O   UNL     1      27.871 -23.832 -16.375  0.00  0.00    -0.477 OA
ATOM     15  H   UNL     1      28.272 -24.553 -16.820  0.00  0.00    +0.295 HD
ENDBRANCH  13  14
ENDBRANCH  10  13
BRANCH   3  16
ATOM     16  C   UNL     1      35.849 -22.899 -15.625  0.00  0.00    +0.186 C 
BRANCH  16  18
ATOM     17  O   UNL     1      36.629 -20.647 -16.046  0.00  0.00    -0.248 OA
ATOM     18  C   UNL     1      36.326 -21.747 -16.498  0.00  0.00    +0.333 C 
BRANCH  18  19
ATOM     19  O   UNL     1      36.387 -22.024 -17.823  0.00  0.00    -0.479 OA
ATOM     20  H   UNL     1      35.643 -21.865 -18.370  0.00  0.00    +0.295 HD
ENDBRANCH  18  19
ENDBRANCH  16  18
BRANCH  16  21
ATOM     21  C   UNL     1      36.543 -22.841 -14.256  0.00  0.00    +0.058 C 
BRANCH  21  22
ATOM     22  C   UNL     1      37.699 -23.807 -14.152  0.00  0.00    -0.020 C 
ATOM     23  C   UNL     1      37.719 -24.730 -13.119  0.00  0.00    -0.001 C 
ATOM     24  C   UNL     1      38.716 -23.752 -15.091  0.00  0.00    -0.001 C 
ATOM     25  C   UNL     1      38.787 -25.623 -13.023  0.00  0.00    +0.036 C 
ATOM     26  C   UNL     1      39.783 -24.644 -14.995  0.00  0.00    +0.036 C 
ATOM     27  C   UNL     1      39.819 -25.580 -13.961  0.00  0.00    +0.134 C 
BRANCH  27  28
ATOM     28  O   UNL     1      40.860 -26.450 -13.866  0.00  0.00    -0.506 OA
ATOM     29  H   UNL     1      41.599 -26.362 -14.436  0.00  0.00    +0.292 HD
ENDBRANCH  27  28
ENDBRANCH  21  22
ENDBRANCH  16  21
ENDBRANCH   3  16
TORSDOF 8
ENDMDL
MODEL 7
REMARK VINA RESULT:     -10.6      2.044      3.253
REMARK  Name = 7013169
REMARK  8 active torsions:
REMARK  status: ('A' for Active; 'I' for Inactive)
REMARK    1  A    between atoms: N_3  and  C_16
REMARK    2  A    between atoms: C_10  and  C_13
REMARK    3  A    between atoms: C_13  and  O_14
REMARK    4  A    between atoms: C_16  and  C_18
REMARK    5  A    between atoms: C_16  and  C_21
REMARK    6  A    between atoms: C_18  and  O_19
REMARK    7  A    between atoms: C_21  and  C_22
REMARK    8  A    between atoms: C_27  and  O_28
REMARK                            x       y       z     vdW  Elec       q    Type
REMARK                         _______ _______ _______ _____ _____    ______ ____
ROOT
ATOM      1  O   UNL     1      31.829 -20.561 -20.196  0.00  0.00    -0.269 OA
ATOM      2  O   UNL     1      36.113 -21.337 -18.607  0.00  0.00    -0.269 OA
ATOM      3  N   UNL     1      33.821 -21.263 -19.151  0.00  0.00    -0.213 N 
ATOM      4  C   UNL     1      33.943 -19.612 -20.695  0.00  0.00    +0.059 C 
ATOM      5  C   UNL     1      35.225 -19.844 -20.220  0.00  0.00    +0.058 C 
ATOM      6  C   UNL     1      33.031 -20.523 -20.005  0.00  0.00    +0.256 C 
ATOM      7  C   UNL     1      35.151 -20.908 -19.220  0.00  0.00    +0.256 C 
ATOM      8  C   UNL     1      33.682 -18.656 -21.656  0.00  0.00    +0.011 C 
ATOM      9  C   UNL     1      36.314 -19.133 -20.679  0.00  0.00    +0.005 C 
ATOM     10  C   UNL     1      34.771 -17.924 -22.137  0.00  0.00    +0.076 C 
ATOM     11  C   UNL     1      36.074 -18.160 -21.654  0.00  0.00    +0.007 C 
ENDROOT
BRANCH  10  13
ATOM     12  O   UNL     1      33.993 -17.077 -24.235  0.00  0.00    -0.245 OA
ATOM     13  C   UNL     1      34.558 -16.902 -23.151  0.00  0.00    +0.338 C 
BRANCH  13  14
ATOM     14  O   UNL     1      35.055 -15.690 -22.781  0.00  0.00    -0.477 OA
ATOM     15  H   UNL     1      35.896 -15.414 -23.091  0.00  0.00    +0.295 HD
ENDBRANCH  13  14
ENDBRANCH  10  13
BRANCH   3  16
ATOM     16  C   UNL     1      33.309 -22.301 -18.277  0.00  0.00    +0.186 C 
BRANCH  16  18
ATOM     17  O   UNL     1      33.801 -23.828 -20.088  0.00  0.00    -0.248 OA
ATOM     18  C   UNL     1      33.381 -23.665 -18.947  0.00  0.00    +0.333 C 
BRANCH  18  19
ATOM     19  O   UNL     1      32.940 -24.697 -18.186  0.00  0.00    -0.479 OA
ATOM     20  H   UNL     1      32.392 -25.356 -18.564  0.00  0.00    +0.295 HD
ENDBRANCH  18  19
ENDBRANCH  16  18
BRANCH  16  21
ATOM     21  C   UNL     1      34.070 -22.330 -16.944  0.00  0.00    +0.058 C 
BRANCH  21  22
ATOM     22  C   UNL     1      33.182 -22.698 -15.779  0.00  0.00    -0.020 C 
ATOM     23  C   UNL     1      33.747 -23.270 -14.651  0.00  0.00    -0.001 C 
ATOM     24  C   UNL     1      31.821 -22.456 -15.861  0.00  0.00    -0.001 C 
ATOM     25  C   UNL     1      32.927 -23.611 -13.575  0.00  0.00    +0.036 C 
ATOM     26  C   UNL     1      31.001 -22.795 -14.785  0.00  0.00    +0.036 C 
ATOM     27  C   UNL     1      31.554 -23.372 -13.642  0.00  0.00    +0.134 C 
BRANCH  27  28
ATOM     28  O   UNL     1      30.754 -23.705 -12.592  0.00  0.00    -0.506 OA
ATOM     29  H   UNL     1      31.135 -23.953 -11.773  0.00  0.00    +0.292 HD
ENDBRANCH  27  28
ENDBRANCH  21  22
ENDBRANCH  16  21
ENDBRANCH   3  16
TORSDOF 8
ENDMDL
MODEL 8
REMARK VINA RESULT:     -10.5      7.969     11.763
REMARK  Name = 7013169
REMARK  8 active torsions:
REMARK  status: ('A' for Active; 'I' for Inactive)
REMARK    1  A    between atoms: N_3  and  C_16
REMARK    2  A    between atoms: C_10  and  C_13
REMARK    3  A    between atoms: C_13  and  O_14
REMARK    4  A    between atoms: C_16  and  C_18
REMARK    5  A    between atoms: C_16  and  C_21
REMARK    6  A    between atoms: C_18  and  O_19
REMARK    7  A    between atoms: C_21  and  C_22
REMARK    8  A    between atoms: C_27  and  O_28
REMARK                            x       y       z     vdW  Elec       q    Type
REMARK                         _______ _______ _______ _____ _____    ______ ____
ROOT
ATOM      1  O   UNL     1      33.437 -11.403 -24.647  0.00  0.00    -0.269 OA
ATOM      2  O   UNL     1      31.451 -13.512 -21.030  0.00  0.00    -0.269 OA
ATOM      3  N   UNL     1      32.561 -12.839 -22.997  0.00  0.00    -0.213 N 
ATOM      4  C   UNL     1      32.326 -10.606 -22.711  0.00  0.00    +0.059 C 
ATOM      5  C   UNL     1      31.732 -11.236 -21.629  0.00  0.00    +0.058 C 
ATOM      6  C   UNL     1      32.860 -11.636 -23.601  0.00  0.00    +0.256 C 
ATOM      7  C   UNL     1      31.878 -12.680 -21.810  0.00  0.00    +0.256 C 
ATOM      8  C   UNL     1      32.352  -9.231 -22.832  0.00  0.00    +0.011 C 
ATOM      9  C   UNL     1      31.132 -10.527 -20.609  0.00  0.00    +0.005 C 
ATOM     10  C   UNL     1      31.750  -8.492 -21.810  0.00  0.00    +0.076 C 
ATOM     11  C   UNL     1      31.146  -9.132 -20.710  0.00  0.00    +0.007 C 
ENDROOT
BRANCH  10  13
ATOM     12  O   UNL     1      30.757  -6.338 -22.126  0.00  0.00    -0.245 OA
ATOM     13  C   UNL     1      31.745  -7.038 -21.882  0.00  0.00    +0.338 C 
BRANCH  13  14
ATOM     14  O   UNL     1      32.973  -6.501 -21.646  0.00  0.00    -0.477 OA
ATOM     15  H   UNL     1      33.525  -6.262 -22.365  0.00  0.00    +0.295 HD
ENDBRANCH  13  14
ENDBRANCH  10  13
BRANCH   3  16
ATOM     16  C   UNL     1      32.924 -14.129 -23.549  0.00  0.00    +0.186 C 
BRANCH  16  18
ATOM     17  O   UNL     1      33.527 -14.789 -25.798  0.00  0.00    -0.248 OA
ATOM     18  C   UNL     1      32.793 -14.133 -25.065  0.00  0.00    +0.333 C 
BRANCH  18  19
ATOM     19  O   UNL     1      31.802 -13.348 -25.553  0.00  0.00    -0.479 OA
ATOM     20  H   UNL     1      32.011 -12.591 -26.063  0.00  0.00    +0.295 HD
ENDBRANCH  18  19
ENDBRANCH  16  18
BRANCH  16  21
ATOM     21  C   UNL     1      34.352 -14.524 -23.146  0.00  0.00    +0.058 C 
BRANCH  21  22
ATOM     22  C   UNL     1      34.437 -15.941 -22.630  0.00  0.00    -0.020 C 
ATOM     23  C   UNL     1      34.291 -16.994 -23.518  0.00  0.00    -0.001 C 
ATOM     24  C   UNL     1      34.659 -16.160 -21.281  0.00  0.00    -0.001 C 
ATOM     25  C   UNL     1      34.369 -18.304 -23.042  0.00  0.00    +0.036 C 
ATOM     26  C   UNL     1      34.737 -17.468 -20.805  0.00  0.00    +0.036 C 
ATOM     27  C   UNL     1      34.593 -18.540 -21.685  0.00  0.00    +0.134 C 
BRANCH  27  28
ATOM     28  O   UNL     1      34.668 -19.817 -21.222  0.00  0.00    -0.506 OA
ATOM     29  H   UNL     1      33.904 -20.237 -20.877  0.00  0.00    +0.292 HD
ENDBRANCH  27  28
ENDBRANCH  21  22
ENDBRANCH  16  21
ENDBRANCH   3  16
TORSDOF 8
ENDMDL
MODEL 9
REMARK VINA RESULT:     -10.4      8.954     13.620
REMARK  Name = 7013169
REMARK  8 active torsions:
REMARK  status: ('A' for Active; 'I' for Inactive)
REMARK    1  A    between atoms: N_3  and  C_16
REMARK    2  A    between atoms: C_10  and  C_13
REMARK    3  A    between atoms: C_13  and  O_14
REMARK    4  A    between atoms: C_16  and  C_18
REMARK    5  A    between atoms: C_16  and  C_21
REMARK    6  A    between atoms: C_18  and  O_19
REMARK    7  A    between atoms: C_21  and  C_22
REMARK    8  A    between atoms: C_27  and  O_28
REMARK                            x       y       z     vdW  Elec       q    Type
REMARK                         _______ _______ _______ _____ _____    ______ ____
ROOT
ATOM      1  O   UNL     1      33.099 -12.430 -20.633  0.00  0.00    -0.269 OA
ATOM      2  O   UNL     1      32.560 -12.509 -25.235  0.00  0.00    -0.269 OA
ATOM      3  N   UNL     1      32.677 -12.068 -22.923  0.00  0.00    -0.213 N 
ATOM      4  C   UNL     1      33.579 -14.048 -22.297  0.00  0.00    +0.059 C 
ATOM      5  C   UNL     1      33.418 -14.072 -23.673  0.00  0.00    +0.058 C 
ATOM      6  C   UNL     1      33.099 -12.757 -21.806  0.00  0.00    +0.256 C 
ATOM      7  C   UNL     1      32.833 -12.796 -24.083  0.00  0.00    +0.256 C 
ATOM      8  C   UNL     1      34.111 -15.117 -21.605  0.00  0.00    +0.011 C 
ATOM      9  C   UNL     1      33.780 -15.166 -24.433  0.00  0.00    +0.005 C 
ATOM     10  C   UNL     1      34.486 -16.236 -22.354  0.00  0.00    +0.076 C 
ATOM     11  C   UNL     1      34.323 -16.261 -23.753  0.00  0.00    +0.007 C 
ENDROOT
BRANCH  10  13
ATOM     12  O   UNL     1      35.521 -17.399 -20.536  0.00  0.00    -0.245 OA
ATOM     13  C   UNL     1      35.053 -17.395 -21.679  0.00  0.00    +0.338 C 
BRANCH  13  14
ATOM     14  O   UNL     1      35.018 -18.515 -22.451  0.00  0.00    -0.477 OA
ATOM     15  H   UNL     1      34.469 -19.234 -22.208  0.00  0.00    +0.295 HD
ENDBRANCH  13  14
ENDBRANCH  10  13
BRANCH   3  16
ATOM     16  C   UNL     1      32.132 -10.726 -22.883  0.00  0.00    +0.186 C 
BRANCH  16  18
ATOM     17  O   UNL     1      31.546  -9.715 -20.764  0.00  0.00    -0.248 OA
ATOM     18  C   UNL     1      31.270 -10.522 -21.646  0.00  0.00    +0.333 C 
BRANCH  18  19
ATOM     19  O   UNL     1      30.167 -11.308 -21.585  0.00  0.00    -0.479 OA
ATOM     20  H   UNL     1      30.253 -12.240 -21.628  0.00  0.00    +0.295 HD
ENDBRANCH  18  19
ENDBRANCH  16  18
BRANCH  16  21
ATOM     21  C   UNL     1      33.247  -9.671 -22.923  0.00  0.00    +0.058 C 
BRANCH  21  22
ATOM     22  C   UNL     1      32.724  -8.287 -23.228  0.00  0.00    -0.020 C 
ATOM     23  C   UNL     1      33.492  -7.185 -22.894  0.00  0.00    -0.001 C 
ATOM     24  C   UNL     1      31.487  -8.149 -23.836  0.00  0.00    -0.001 C 
ATOM     25  C   UNL     1      33.009  -5.906 -23.175  0.00  0.00    +0.036 C 
ATOM     26  C   UNL     1      31.004  -6.871 -24.117  0.00  0.00    +0.036 C 
ATOM     27  C   UNL     1      31.765  -5.749 -23.787  0.00  0.00    +0.134 C 
BRANCH  27  28
ATOM     28  O   UNL     1      31.294  -4.503 -24.060  0.00  0.00    -0.506 OA
ATOM     29  H   UNL     1      31.575  -4.055 -24.834  0.00  0.00    +0.292 HD
ENDBRANCH  27  28
ENDBRANCH  21  22
ENDBRANCH  16  21
ENDBRANCH   3  16
TORSDOF 8
ENDMDL
