MODEL 1
REMARK VINA RESULT:     -12.1      0.000      0.000
REMARK  Name = 11616886
REMARK  5 active torsions:
REMARK  status: ('A' for Active; 'I' for Inactive)
REMARK    1  A    between atoms: C_4  and  C_21
REMARK    2  A    between atoms: C_7  and  O_12
REMARK    3  A    between atoms: O_12  and  C_13
REMARK    4  A    between atoms: C_13  and  C_15
REMARK    5  A    between atoms: C_21  and  N_22
REMARK                            x       y       z     vdW  Elec       q    Type
REMARK                         _______ _______ _______ _____ _____    ______ ____
ROOT
ATOM      1  O   UNL     1      33.644 -14.901 -24.765  0.00  0.00    -0.421 OA
ATOM      2  O   UNL     1      32.944 -13.652 -26.548  0.00  0.00    -0.244 OA
ATOM      3  C   UNL     1      33.410 -13.997 -22.507  0.00  0.00    +0.029 C 
ATOM      4  C   UNL     1      32.818 -12.782 -23.083  0.00  0.00    -0.034 C 
ATOM      5  C   UNL     1      33.807 -15.020 -23.370  0.00  0.00    +0.151 C 
ATOM      6  C   UNL     1      33.604 -14.193 -21.134  0.00  0.00    +0.006 C 
ATOM      7  C   UNL     1      34.561 -16.383 -21.539  0.00  0.00    +0.142 C 
ATOM      8  C   UNL     1      34.377 -16.208 -22.907  0.00  0.00    +0.074 C 
ATOM      9  C   UNL     1      32.676 -12.695 -24.413  0.00  0.00    +0.076 C 
ATOM     10  C   UNL     1      34.175 -15.378 -20.654  0.00  0.00    +0.037 C 
ATOM     11  C   UNL     1      33.089 -13.766 -25.336  0.00  0.00    +0.346 C 
ENDROOT
BRANCH   7  12
ATOM     12  O   UNL     1      35.115 -17.532 -21.066  0.00  0.00    -0.471 OA
BRANCH  12  13
ATOM     13  C   UNL     1      34.671 -18.756 -21.650  0.00  0.00    +0.232 C 
BRANCH  13  15
ATOM     14 CL   UNL     1      36.373 -21.747 -17.751  0.00  0.00    -0.082 Cl
ATOM     15  C   UNL     1      34.365 -19.737 -20.557  0.00  0.00    +0.022 C 
ATOM     16  C   UNL     1      35.393 -20.224 -19.760  0.00  0.00    +0.011 C 
ATOM     17  C   UNL     1      33.052 -20.149 -20.351  0.00  0.00    -0.001 C 
ATOM     18  C   UNL     1      35.106 -21.136 -18.743  0.00  0.00    +0.057 C 
ATOM     19  C   UNL     1      32.765 -21.060 -19.335  0.00  0.00    +0.001 C 
ATOM     20  C   UNL     1      33.793 -21.554 -18.531  0.00  0.00    +0.011 C 
ENDBRANCH  13  15
ENDBRANCH  12  13
ENDBRANCH   7  12
BRANCH   4  21
ATOM     21  C   UNL     1      32.383 -11.663 -22.182  0.00  0.00    -0.054 C 
BRANCH  21  22
ATOM     22  N   UNL     1      31.026 -11.856 -21.700  0.00  0.00    +0.385 N 
ATOM     23  C   UNL     1      30.414 -10.585 -21.333  0.00  0.00    -0.105 C 
ATOM     24  H   UNL     1      31.047 -12.465 -20.881  0.00  0.00    -0.084 HD
ATOM     25  H   UNL     1      30.474 -12.279 -22.446  0.00  0.00    -0.084 HD
ENDBRANCH  21  22
ENDBRANCH   4  21
TORSDOF 5
ENDMDL
MODEL 2
REMARK VINA RESULT:     -11.7      4.463      9.224
REMARK  Name = 11616886
REMARK  5 active torsions:
REMARK  status: ('A' for Active; 'I' for Inactive)
REMARK    1  A    between atoms: C_4  and  C_21
REMARK    2  A    between atoms: C_7  and  O_12
REMARK    3  A    between atoms: O_12  and  C_13
REMARK    4  A    between atoms: C_13  and  C_15
REMARK    5  A    between atoms: C_21  and  N_22
REMARK                            x       y       z     vdW  Elec       q    Type
REMARK                         _______ _______ _______ _____ _____    ______ ____
ROOT
ATOM      1  O   UNL     1      31.702 -21.688 -18.108  0.00  0.00    -0.421 OA
ATOM      2  O   UNL     1      30.562 -22.764 -16.444  0.00  0.00    -0.244 OA
ATOM      3  C   UNL     1      34.145 -21.658 -18.057  0.00  0.00    +0.029 C 
ATOM      4  C   UNL     1      34.103 -22.441 -16.815  0.00  0.00    -0.034 C 
ATOM      5  C   UNL     1      32.939 -21.305 -18.666  0.00  0.00    +0.151 C 
ATOM      6  C   UNL     1      35.330 -21.239 -18.674  0.00  0.00    +0.006 C 
ATOM      7  C   UNL     1      34.077 -20.158 -20.445  0.00  0.00    +0.142 C 
ATOM      8  C   UNL     1      32.888 -20.564 -19.848  0.00  0.00    +0.074 C 
ATOM      9  C   UNL     1      32.913 -22.791 -16.307  0.00  0.00    +0.076 C 
ATOM     10  C   UNL     1      35.296 -20.495 -19.859  0.00  0.00    +0.037 C 
ATOM     11  C   UNL     1      31.632 -22.426 -16.937  0.00  0.00    +0.346 C 
ENDROOT
BRANCH   7  12
ATOM     12  O   UNL     1      34.051 -19.434 -21.597  0.00  0.00    -0.471 OA
BRANCH  12  13
ATOM     13  C   UNL     1      35.181 -18.607 -21.871  0.00  0.00    +0.232 C 
BRANCH  13  15
ATOM     14 CL   UNL     1      33.880 -13.734 -20.607  0.00  0.00    -0.082 Cl
ATOM     15  C   UNL     1      34.703 -17.253 -22.305  0.00  0.00    +0.022 C 
ATOM     16  C   UNL     1      34.536 -16.246 -21.362  0.00  0.00    +0.011 C 
ATOM     17  C   UNL     1      34.435 -17.017 -23.649  0.00  0.00    -0.001 C 
ATOM     18  C   UNL     1      34.093 -14.987 -21.768  0.00  0.00    +0.057 C 
ATOM     19  C   UNL     1      33.992 -15.758 -24.055  0.00  0.00    +0.001 C 
ATOM     20  C   UNL     1      33.821 -14.742 -23.114  0.00  0.00    +0.011 C 
ENDBRANCH  13  15
ENDBRANCH  12  13
ENDBRANCH   7  12
BRANCH   4  21
ATOM     21  C   UNL     1      35.382 -22.834 -16.136  0.00  0.00    -0.054 C 
BRANCH  21  22
ATOM     22  N   UNL     1      35.140 -23.690 -14.986  0.00  0.00    +0.385 N 
ATOM     23  C   UNL     1      36.288 -24.548 -14.721  0.00  0.00    -0.105 C 
ATOM     24  H   UNL     1      34.324 -24.274 -15.171  0.00  0.00    -0.084 HD
ATOM     25  H   UNL     1      34.980 -23.099 -14.170  0.00  0.00    -0.084 HD
ENDBRANCH  21  22
ENDBRANCH   4  21
TORSDOF 5
ENDMDL
MODEL 3
REMARK VINA RESULT:     -11.5      4.601      9.281
REMARK  Name = 11616886
REMARK  5 active torsions:
REMARK  status: ('A' for Active; 'I' for Inactive)
REMARK    1  A    between atoms: C_4  and  C_21
REMARK    2  A    between atoms: C_7  and  O_12
REMARK    3  A    between atoms: O_12  and  C_13
REMARK    4  A    between atoms: C_13  and  C_15
REMARK    5  A    between atoms: C_21  and  N_22
REMARK                            x       y       z     vdW  Elec       q    Type
REMARK                         _______ _______ _______ _____ _____    ______ ____
ROOT
ATOM      1  O   UNL     1      31.584 -21.699 -18.061  0.00  0.00    -0.421 OA
ATOM      2  O   UNL     1      30.472 -22.764 -16.371  0.00  0.00    -0.244 OA
ATOM      3  C   UNL     1      34.028 -21.668 -18.050  0.00  0.00    +0.029 C 
ATOM      4  C   UNL     1      34.006 -22.443 -16.802  0.00  0.00    -0.034 C 
ATOM      5  C   UNL     1      32.812 -21.319 -18.641  0.00  0.00    +0.151 C 
ATOM      6  C   UNL     1      35.203 -21.254 -18.690  0.00  0.00    +0.006 C 
ATOM      7  C   UNL     1      33.922 -20.184 -20.446  0.00  0.00    +0.142 C 
ATOM      8  C   UNL     1      32.742 -20.586 -19.827  0.00  0.00    +0.074 C 
ATOM      9  C   UNL     1      32.825 -22.789 -16.273  0.00  0.00    +0.076 C 
ATOM     10  C   UNL     1      35.150 -20.517 -19.879  0.00  0.00    +0.037 C 
ATOM     11  C   UNL     1      31.534 -22.429 -16.884  0.00  0.00    +0.346 C 
ENDROOT
BRANCH   7  12
ATOM     12  O   UNL     1      33.876 -19.468 -21.603  0.00  0.00    -0.471 OA
BRANCH  12  13
ATOM     13  C   UNL     1      35.025 -18.687 -21.929  0.00  0.00    +0.232 C 
BRANCH  13  15
ATOM     14 CL   UNL     1      33.518 -14.908 -25.168  0.00  0.00    -0.082 Cl
ATOM     15  C   UNL     1      34.607 -17.260 -22.130  0.00  0.00    +0.022 C 
ATOM     16  C   UNL     1      34.295 -16.807 -23.406  0.00  0.00    +0.011 C 
ATOM     17  C   UNL     1      34.534 -16.405 -21.036  0.00  0.00    -0.001 C 
ATOM     18  C   UNL     1      33.905 -15.480 -23.591  0.00  0.00    +0.057 C 
ATOM     19  C   UNL     1      34.145 -15.079 -21.221  0.00  0.00    +0.001 C 
ATOM     20  C   UNL     1      33.830 -14.615 -22.499  0.00  0.00    +0.011 C 
ENDBRANCH  13  15
ENDBRANCH  12  13
ENDBRANCH   7  12
BRANCH   4  21
ATOM     21  C   UNL     1      35.296 -22.832 -16.142  0.00  0.00    -0.054 C 
BRANCH  21  22
ATOM     22  N   UNL     1      35.075 -23.415 -14.829  0.00  0.00    +0.385 N 
ATOM     23  C   UNL     1      36.083 -24.422 -14.526  0.00  0.00    -0.105 C 
ATOM     24  H   UNL     1      34.152 -23.851 -14.809  0.00  0.00    -0.084 HD
ATOM     25  H   UNL     1      35.135 -22.674 -14.130  0.00  0.00    -0.084 HD
ENDBRANCH  21  22
ENDBRANCH   4  21
TORSDOF 5
ENDMDL
MODEL 4
REMARK VINA RESULT:     -11.4      4.321      9.058
REMARK  Name = 11616886
REMARK  5 active torsions:
REMARK  status: ('A' for Active; 'I' for Inactive)
REMARK    1  A    between atoms: C_4  and  C_21
REMARK    2  A    between atoms: C_7  and  O_12
REMARK    3  A    between atoms: O_12  and  C_13
REMARK    4  A    between atoms: C_13  and  C_15
REMARK    5  A    between atoms: C_21  and  N_22
REMARK                            x       y       z     vdW  Elec       q    Type
REMARK                         _______ _______ _______ _____ _____    ______ ____
ROOT
ATOM      1  O   UNL     1      35.318 -22.139 -17.367  0.00  0.00    -0.421 OA
ATOM      2  O   UNL     1      35.664 -23.365 -15.468  0.00  0.00    -0.244 OA
ATOM      3  C   UNL     1      33.031 -21.653 -18.077  0.00  0.00    +0.029 C 
ATOM      4  C   UNL     1      32.538 -22.397 -16.909  0.00  0.00    -0.034 C 
ATOM      5  C   UNL     1      34.409 -21.548 -18.269  0.00  0.00    +0.151 C 
ATOM      6  C   UNL     1      32.195 -21.037 -19.017  0.00  0.00    +0.006 C 
ATOM      7  C   UNL     1      34.114 -20.255 -20.274  0.00  0.00    +0.142 C 
ATOM      8  C   UNL     1      34.961 -20.859 -19.350  0.00  0.00    +0.074 C 
ATOM      9  C   UNL     1      33.424 -22.949 -16.069  0.00  0.00    +0.076 C 
ATOM     10  C   UNL     1      32.733 -20.343 -20.107  0.00  0.00    +0.037 C 
ATOM     11  C   UNL     1      34.882 -22.847 -16.258  0.00  0.00    +0.346 C 
ENDROOT
BRANCH   7  12
ATOM     12  O   UNL     1      34.631 -19.579 -21.335  0.00  0.00    -0.471 OA
BRANCH  12  13
ATOM     13  C   UNL     1      35.418 -18.424 -21.049  0.00  0.00    +0.232 C 
BRANCH  13  15
ATOM     14 CL   UNL     1      33.755 -13.497 -21.081  0.00  0.00    -0.082 Cl
ATOM     15  C   UNL     1      34.876 -17.258 -21.822  0.00  0.00    +0.022 C 
ATOM     16  C   UNL     1      34.602 -16.064 -21.165  0.00  0.00    +0.011 C 
ATOM     17  C   UNL     1      34.655 -17.381 -23.189  0.00  0.00    -0.001 C 
ATOM     18  C   UNL     1      34.099 -14.980 -21.885  0.00  0.00    +0.057 C 
ATOM     19  C   UNL     1      34.152 -16.298 -23.908  0.00  0.00    +0.001 C 
ATOM     20  C   UNL     1      33.874 -15.096 -23.256  0.00  0.00    +0.011 C 
ENDBRANCH  13  15
ENDBRANCH  12  13
ENDBRANCH   7  12
BRANCH   4  21
ATOM     21  C   UNL     1      31.062 -22.529 -16.676  0.00  0.00    -0.054 C 
BRANCH  21  22
ATOM     22  N   UNL     1      30.759 -22.793 -15.279  0.00  0.00    +0.385 N 
ATOM     23  C   UNL     1      29.322 -22.918 -15.068  0.00  0.00    -0.105 C 
ATOM     24  H   UNL     1      31.114 -22.024 -14.710  0.00  0.00    -0.084 HD
ATOM     25  H   UNL     1      31.204 -23.671 -15.011  0.00  0.00    -0.084 HD
ENDBRANCH  21  22
ENDBRANCH   4  21
TORSDOF 5
ENDMDL
MODEL 5
REMARK VINA RESULT:     -11.2      2.314      3.257
REMARK  Name = 11616886
REMARK  5 active torsions:
REMARK  status: ('A' for Active; 'I' for Inactive)
REMARK    1  A    between atoms: C_4  and  C_21
REMARK    2  A    between atoms: C_7  and  O_12
REMARK    3  A    between atoms: O_12  and  C_13
REMARK    4  A    between atoms: C_13  and  C_15
REMARK    5  A    between atoms: C_21  and  N_22
REMARK                            x       y       z     vdW  Elec       q    Type
REMARK                         _______ _______ _______ _____ _____    ______ ____
ROOT
ATOM      1  O   UNL     1      34.211 -14.822 -20.588  0.00  0.00    -0.421 OA
ATOM      2  O   UNL     1      33.594 -12.620 -20.574  0.00  0.00    -0.244 OA
ATOM      3  C   UNL     1      34.208 -16.051 -22.700  0.00  0.00    +0.029 C 
ATOM      4  C   UNL     1      33.753 -14.831 -23.379  0.00  0.00    -0.034 C 
ATOM      5  C   UNL     1      34.423 -16.008 -21.321  0.00  0.00    +0.151 C 
ATOM      6  C   UNL     1      34.442 -17.267 -23.355  0.00  0.00    +0.006 C 
ATOM      7  C   UNL     1      35.082 -18.318 -21.267  0.00  0.00    +0.142 C 
ATOM      8  C   UNL     1      34.856 -17.120 -20.597  0.00  0.00    +0.074 C 
ATOM      9  C   UNL     1      33.560 -13.718 -22.657  0.00  0.00    +0.076 C 
ATOM     10  C   UNL     1      34.876 -18.392 -22.643  0.00  0.00    +0.037 C 
ATOM     11  C   UNL     1      33.782 -13.656 -21.202  0.00  0.00    +0.346 C 
ENDROOT
BRANCH   7  12
ATOM     12  O   UNL     1      35.504 -19.415 -20.581  0.00  0.00    -0.471 OA
BRANCH  12  13
ATOM     13  C   UNL     1      34.627 -20.540 -20.552  0.00  0.00    +0.232 C 
BRANCH  13  15
ATOM     14 CL   UNL     1      37.317 -21.584 -16.225  0.00  0.00    -0.082 Cl
ATOM     15  C   UNL     1      34.671 -21.160 -19.187  0.00  0.00    +0.022 C 
ATOM     16  C   UNL     1      35.838 -21.089 -18.434  0.00  0.00    +0.011 C 
ATOM     17  C   UNL     1      33.542 -21.800 -18.685  0.00  0.00    -0.001 C 
ATOM     18  C   UNL     1      35.876 -21.665 -17.164  0.00  0.00    +0.057 C 
ATOM     19  C   UNL     1      33.581 -22.375 -17.416  0.00  0.00    +0.001 C 
ATOM     20  C   UNL     1      34.749 -22.309 -16.655  0.00  0.00    +0.011 C 
ENDBRANCH  13  15
ENDBRANCH  12  13
ENDBRANCH   7  12
BRANCH   4  21
ATOM     21  C   UNL     1      33.512 -14.846 -24.860  0.00  0.00    -0.054 C 
BRANCH  21  22
ATOM     22  N   UNL     1      32.431 -13.952 -25.240  0.00  0.00    +0.385 N 
ATOM     23  C   UNL     1      32.872 -12.990 -26.241  0.00  0.00    -0.105 C 
ATOM     24  H   UNL     1      32.109 -13.449 -24.412  0.00  0.00    -0.084 HD
ATOM     25  H   UNL     1      31.673 -14.510 -25.636  0.00  0.00    -0.084 HD
ENDBRANCH  21  22
ENDBRANCH   4  21
TORSDOF 5
ENDMDL
MODEL 6
REMARK VINA RESULT:     -11.1      4.580      8.772
REMARK  Name = 11616886
REMARK  5 active torsions:
REMARK  status: ('A' for Active; 'I' for Inactive)
REMARK    1  A    between atoms: C_4  and  C_21
REMARK    2  A    between atoms: C_7  and  O_12
REMARK    3  A    between atoms: O_12  and  C_13
REMARK    4  A    between atoms: C_13  and  C_15
REMARK    5  A    between atoms: C_21  and  N_22
REMARK                            x       y       z     vdW  Elec       q    Type
REMARK                         _______ _______ _______ _____ _____    ______ ____
ROOT
ATOM      1  O   UNL     1      32.592 -13.536 -24.215  0.00  0.00    -0.421 OA
ATOM      2  O   UNL     1      33.282 -14.748 -26.027  0.00  0.00    -0.244 OA
ATOM      3  C   UNL     1      33.299 -14.222 -21.978  0.00  0.00    +0.029 C 
ATOM      4  C   UNL     1      34.038 -15.339 -22.583  0.00  0.00    -0.034 C 
ATOM      5  C   UNL     1      32.597 -13.354 -22.816  0.00  0.00    +0.151 C 
ATOM      6  C   UNL     1      33.254 -13.972 -20.601  0.00  0.00    +0.006 C 
ATOM      7  C   UNL     1      31.838 -12.037 -20.954  0.00  0.00    +0.142 C 
ATOM      8  C   UNL     1      31.870 -12.268 -22.326  0.00  0.00    +0.074 C 
ATOM      9  C   UNL     1      34.016 -15.488 -23.914  0.00  0.00    +0.076 C 
ATOM     10  C   UNL     1      32.529 -12.888 -20.093  0.00  0.00    +0.037 C 
ATOM     11  C   UNL     1      33.280 -14.581 -24.812  0.00  0.00    +0.346 C 
ENDROOT
BRANCH   7  12
ATOM     12  O   UNL     1      31.135 -10.985 -20.455  0.00  0.00    -0.471 OA
BRANCH  12  13
ATOM     13  C   UNL     1      30.637 -10.032 -21.393  0.00  0.00    +0.232 C 
BRANCH  13  15
ATOM     14 CL   UNL     1      33.781  -6.538 -23.617  0.00  0.00    -0.082 Cl
ATOM     15  C   UNL     1      31.436  -8.767 -21.277  0.00  0.00    +0.022 C 
ATOM     16  C   UNL     1      32.150  -8.300 -22.373  0.00  0.00    +0.011 C 
ATOM     17  C   UNL     1      31.453  -8.073 -20.072  0.00  0.00    -0.001 C 
ATOM     18  C   UNL     1      32.892  -7.124 -22.265  0.00  0.00    +0.057 C 
ATOM     19  C   UNL     1      32.194  -6.897 -19.963  0.00  0.00    +0.001 C 
ATOM     20  C   UNL     1      32.914  -6.421 -21.060  0.00  0.00    +0.011 C 
ENDBRANCH  13  15
ENDBRANCH  12  13
ENDBRANCH   7  12
BRANCH   4  21
ATOM     21  C   UNL     1      34.801 -16.290 -21.708  0.00  0.00    -0.054 C 
BRANCH  21  22
ATOM     22  N   UNL     1      35.461 -17.325 -22.486  0.00  0.00    +0.385 N 
ATOM     23  C   UNL     1      36.403 -18.077 -21.666  0.00  0.00    -0.105 C 
ATOM     24  H   UNL     1      35.965 -16.890 -23.259  0.00  0.00    -0.084 HD
ATOM     25  H   UNL     1      34.752 -17.968 -22.838  0.00  0.00    -0.084 HD
ENDBRANCH  21  22
ENDBRANCH   4  21
TORSDOF 5
ENDMDL
MODEL 7
REMARK VINA RESULT:     -11.1      1.972      2.878
REMARK  Name = 11616886
REMARK  5 active torsions:
REMARK  status: ('A' for Active; 'I' for Inactive)
REMARK    1  A    between atoms: C_4  and  C_21
REMARK    2  A    between atoms: C_7  and  O_12
REMARK    3  A    between atoms: O_12  and  C_13
REMARK    4  A    between atoms: C_13  and  C_15
REMARK    5  A    between atoms: C_21  and  N_22
REMARK                            x       y       z     vdW  Elec       q    Type
REMARK                         _______ _______ _______ _____ _____    ______ ____
ROOT
ATOM      1  O   UNL     1      32.695 -13.370 -20.255  0.00  0.00    -0.421 OA
ATOM      2  O   UNL     1      31.526 -11.430 -19.940  0.00  0.00    -0.244 OA
ATOM      3  C   UNL     1      33.548 -13.903 -22.482  0.00  0.00    +0.029 C 
ATOM      4  C   UNL     1      32.966 -12.648 -22.977  0.00  0.00    -0.034 C 
ATOM      5  C   UNL     1      33.393 -14.225 -21.133  0.00  0.00    +0.151 C 
ATOM      6  C   UNL     1      34.255 -14.805 -23.287  0.00  0.00    +0.006 C 
ATOM      7  C   UNL     1      34.614 -16.279 -21.397  0.00  0.00    +0.142 C 
ATOM      8  C   UNL     1      33.914 -15.396 -20.580  0.00  0.00    +0.074 C 
ATOM      9  C   UNL     1      32.308 -11.855 -22.121  0.00  0.00    +0.076 C 
ATOM     10  C   UNL     1      34.784 -15.984 -22.748  0.00  0.00    +0.037 C 
ATOM     11  C   UNL     1      32.135 -12.180 -20.695  0.00  0.00    +0.346 C 
ENDROOT
BRANCH   7  12
ATOM     12  O   UNL     1      35.130 -17.426 -20.879  0.00  0.00    -0.471 OA
BRANCH  12  13
ATOM     13  C   UNL     1      34.799 -18.645 -21.542  0.00  0.00    +0.232 C 
BRANCH  13  15
ATOM     14 CL   UNL     1      36.353 -21.775 -17.691  0.00  0.00    -0.082 Cl
ATOM     15  C   UNL     1      34.456 -19.684 -20.515  0.00  0.00    +0.022 C 
ATOM     16  C   UNL     1      35.449 -20.183 -19.682  0.00  0.00    +0.011 C 
ATOM     17  C   UNL     1      33.145 -20.136 -20.406  0.00  0.00    -0.001 C 
ATOM     18  C   UNL     1      35.129 -21.149 -18.727  0.00  0.00    +0.057 C 
ATOM     19  C   UNL     1      32.825 -21.101 -19.451  0.00  0.00    +0.001 C 
ATOM     20  C   UNL     1      33.817 -21.608 -18.611  0.00  0.00    +0.011 C 
ENDBRANCH  13  15
ENDBRANCH  12  13
ENDBRANCH   7  12
BRANCH   4  21
ATOM     21  C   UNL     1      33.115 -12.275 -24.423  0.00  0.00    -0.054 C 
BRANCH  21  22
ATOM     22  N   UNL     1      32.374 -13.175 -25.291  0.00  0.00    +0.385 N 
ATOM     23  C   UNL     1      32.764 -12.999 -26.684  0.00  0.00    -0.105 C 
ATOM     24  H   UNL     1      31.377 -12.983 -25.197  0.00  0.00    -0.084 HD
ATOM     25  H   UNL     1      32.581 -14.135 -25.015  0.00  0.00    -0.084 HD
ENDBRANCH  21  22
ENDBRANCH   4  21
TORSDOF 5
ENDMDL
MODEL 8
REMARK VINA RESULT:     -10.9      5.857     10.470
REMARK  Name = 11616886
REMARK  5 active torsions:
REMARK  status: ('A' for Active; 'I' for Inactive)
REMARK    1  A    between atoms: C_4  and  C_21
REMARK    2  A    between atoms: C_7  and  O_12
REMARK    3  A    between atoms: O_12  and  C_13
REMARK    4  A    between atoms: C_13  and  C_15
REMARK    5  A    between atoms: C_21  and  N_22
REMARK                            x       y       z     vdW  Elec       q    Type
REMARK                         _______ _______ _______ _____ _____    ______ ____
ROOT
ATOM      1  O   UNL     1      37.020 -22.273 -14.529  0.00  0.00    -0.421 OA
ATOM      2  O   UNL     1      37.741 -22.811 -12.427  0.00  0.00    -0.244 OA
ATOM      3  C   UNL     1      34.713 -22.770 -15.164  0.00  0.00    +0.029 C 
ATOM      4  C   UNL     1      34.491 -23.328 -13.823  0.00  0.00    -0.034 C 
ATOM      5  C   UNL     1      35.974 -22.260 -15.476  0.00  0.00    +0.151 C 
ATOM      6  C   UNL     1      33.728 -22.719 -16.159  0.00  0.00    +0.006 C 
ATOM      7  C   UNL     1      35.277 -21.670 -17.699  0.00  0.00    +0.142 C 
ATOM      8  C   UNL     1      36.270 -21.711 -16.725  0.00  0.00    +0.074 C 
ATOM      9  C   UNL     1      35.502 -23.328 -12.944  0.00  0.00    +0.076 C 
ATOM     10  C   UNL     1      34.009 -22.172 -17.417  0.00  0.00    +0.037 C 
ATOM     11  C   UNL     1      36.839 -22.794 -13.257  0.00  0.00    +0.346 C 
ENDROOT
BRANCH   7  12
ATOM     12  O   UNL     1      35.544 -21.140 -18.924  0.00  0.00    -0.471 OA
BRANCH  12  13
ATOM     13  C   UNL     1      34.427 -20.776 -19.732  0.00  0.00    +0.232 C 
BRANCH  13  15
ATOM     14 CL   UNL     1      33.444 -18.098 -24.080  0.00  0.00    -0.082 Cl
ATOM     15  C   UNL     1      34.856 -19.733 -20.721  0.00  0.00    +0.022 C 
ATOM     16  C   UNL     1      34.043 -19.439 -21.810  0.00  0.00    +0.011 C 
ATOM     17  C   UNL     1      36.064 -19.069 -20.539  0.00  0.00    -0.001 C 
ATOM     18  C   UNL     1      34.443 -18.468 -22.728  0.00  0.00    +0.057 C 
ATOM     19  C   UNL     1      36.464 -18.098 -21.457  0.00  0.00    +0.001 C 
ATOM     20  C   UNL     1      35.653 -17.798 -22.553  0.00  0.00    +0.011 C 
ENDBRANCH  13  15
ENDBRANCH  12  13
ENDBRANCH   7  12
BRANCH   4  21
ATOM     21  C   UNL     1      33.146 -23.885 -13.459  0.00  0.00    -0.054 C 
BRANCH  21  22
ATOM     22  N   UNL     1      32.249 -22.852 -12.970  0.00  0.00    +0.385 N 
ATOM     23  C   UNL     1      30.910 -23.016 -13.520  0.00  0.00    -0.105 C 
ATOM     24  H   UNL     1      32.612 -21.938 -13.244  0.00  0.00    -0.084 HD
ATOM     25  H   UNL     1      32.194 -22.924 -11.954  0.00  0.00    -0.084 HD
ENDBRANCH  21  22
ENDBRANCH   4  21
TORSDOF 5
ENDMDL
MODEL 9
REMARK VINA RESULT:     -10.8      3.683      8.192
REMARK  Name = 11616886
REMARK  5 active torsions:
REMARK  status: ('A' for Active; 'I' for Inactive)
REMARK    1  A    between atoms: C_4  and  C_21
REMARK    2  A    between atoms: C_7  and  O_12
REMARK    3  A    between atoms: O_12  and  C_13
REMARK    4  A    between atoms: C_13  and  C_15
REMARK    5  A    between atoms: C_21  and  N_22
REMARK                            x       y       z     vdW  Elec       q    Type
REMARK                         _______ _______ _______ _____ _____    ______ ____
ROOT
ATOM      1  O   UNL     1      32.877 -20.276 -20.239  0.00  0.00    -0.421 OA
ATOM      2  O   UNL     1      31.697 -21.692 -18.886  0.00  0.00    -0.244 OA
ATOM      3  C   UNL     1      35.291 -20.059 -19.926  0.00  0.00    +0.029 C 
ATOM      4  C   UNL     1      35.210 -21.031 -18.828  0.00  0.00    -0.034 C 
ATOM      5  C   UNL     1      34.118 -19.710 -20.598  0.00  0.00    +0.151 C 
ATOM      6  C   UNL     1      36.483 -19.454 -20.344  0.00  0.00    +0.006 C 
ATOM      7  C   UNL     1      35.301 -18.206 -22.052  0.00  0.00    +0.142 C 
ATOM      8  C   UNL     1      34.106 -18.796 -21.652  0.00  0.00    +0.074 C 
ATOM      9  C   UNL     1      34.017 -21.552 -18.507  0.00  0.00    +0.076 C 
ATOM     10  C   UNL     1      36.487 -18.534 -21.399  0.00  0.00    +0.037 C 
ATOM     11  C   UNL     1      32.771 -21.195 -19.207  0.00  0.00    +0.346 C 
ENDROOT
BRANCH   7  12
ATOM     12  O   UNL     1      35.311 -17.312 -23.078  0.00  0.00    -0.471 OA
BRANCH  12  13
ATOM     13  C   UNL     1      34.076 -17.084 -23.754  0.00  0.00    +0.232 C 
BRANCH  13  15
ATOM     14 CL   UNL     1      33.809 -12.728 -20.927  0.00  0.00    -0.082 Cl
ATOM     15  C   UNL     1      33.735 -15.625 -23.674  0.00  0.00    +0.022 C 
ATOM     16  C   UNL     1      33.912 -14.941 -22.478  0.00  0.00    +0.011 C 
ATOM     17  C   UNL     1      33.245 -14.971 -24.799  0.00  0.00    -0.001 C 
ATOM     18  C   UNL     1      33.595 -13.584 -22.405  0.00  0.00    +0.057 C 
ATOM     19  C   UNL     1      32.928 -13.615 -24.726  0.00  0.00    +0.001 C 
ATOM     20  C   UNL     1      33.103 -12.921 -23.528  0.00  0.00    +0.011 C 
ENDBRANCH  13  15
ENDBRANCH  12  13
ENDBRANCH   7  12
BRANCH   4  21
ATOM     21  C   UNL     1      36.453 -21.425 -18.085  0.00  0.00    -0.054 C 
BRANCH  21  22
ATOM     22  N   UNL     1      36.655 -20.607 -16.901  0.00  0.00    +0.385 N 
ATOM     23  C   UNL     1      36.738 -21.430 -15.702  0.00  0.00    -0.105 C 
ATOM     24  H   UNL     1      35.873 -19.958 -16.807  0.00  0.00    -0.084 HD
ATOM     25  H   UNL     1      37.532 -20.096 -17.006  0.00  0.00    -0.084 HD
ENDBRANCH  21  22
ENDBRANCH   4  21
TORSDOF 5
ENDMDL
