MODEL 1
REMARK VINA RESULT:     -11.4      0.000      0.000
REMARK  Name = 9543437
REMARK  4 active torsions:
REMARK  status: ('A' for Active; 'I' for Inactive)
REMARK    1  A    between atoms: C_3  and  C_16
REMARK    2  A    between atoms: C_4  and  C_9
REMARK    3  A    between atoms: C_5  and  C_21
REMARK    4  A    between atoms: C_24  and  S_27
REMARK                            x       y       z     vdW  Elec       q    Type
REMARK                         _______ _______ _______ _____ _____    ______ ____
ROOT
ATOM      1  N   UNL     1      32.593 -22.369 -16.985  0.00  0.00    -0.315 N 
ATOM      2  N   UNL     1      34.800 -22.549 -16.804  0.00  0.00    -0.315 N 
ATOM      3  C   UNL     1      32.817 -23.138 -15.878  0.00  0.00    +0.059 C 
ATOM      4  C   UNL     1      34.185 -23.236 -15.788  0.00  0.00    +0.059 C 
ATOM      5  C   UNL     1      33.813 -22.039 -17.507  0.00  0.00    +0.168 C 
ATOM      6  H   UNL     1      31.716 -22.100 -17.341  0.00  0.00    +0.149 HD
ATOM      7  H   UNL     1      35.766 -22.459 -16.971  0.00  0.00    +0.149 HD
ENDROOT
BRANCH   4   9
ATOM      8  I   UNL     1      35.848 -23.355 -10.577  0.00  0.00    -0.043 I 
ATOM      9  C   UNL     1      34.904 -23.952 -14.776  0.00  0.00    +0.015 C 
ATOM     10  C   UNL     1      35.003 -23.432 -13.484  0.00  0.00    +0.007 C 
ATOM     11  C   UNL     1      35.509 -25.174 -15.080  0.00  0.00    +0.001 C 
ATOM     12  C   UNL     1      35.703 -24.130 -12.499  0.00  0.00    +0.030 C 
ATOM     13  C   UNL     1      36.209 -25.872 -14.095  0.00  0.00    +0.000 C 
ATOM     14  C   UNL     1      36.306 -25.350 -12.806  0.00  0.00    +0.006 C 
ENDBRANCH   4   9
BRANCH   3  16
ATOM     15  N   UNL     1      29.671 -24.690 -13.500  0.00  0.00    -0.242 NA
ATOM     16  C   UNL     1      31.747 -23.668 -15.071  0.00  0.00    +0.017 C 
ATOM     17  C   UNL     1      32.025 -24.267 -13.847  0.00  0.00    +0.022 C 
ATOM     18  C   UNL     1      30.429 -23.580 -15.510  0.00  0.00    +0.022 C 
ATOM     19  C   UNL     1      30.963 -24.758 -13.107  0.00  0.00    +0.099 C 
ATOM     20  C   UNL     1      29.438 -24.102 -14.696  0.00  0.00    +0.099 C 
ENDBRANCH   3  16
BRANCH   5  21
ATOM     21  C   UNL     1      33.945 -21.226 -18.692  0.00  0.00    +0.014 C 
ATOM     22  C   UNL     1      35.211 -20.915 -19.187  0.00  0.00    -0.000 C 
ATOM     23  C   UNL     1      32.806 -20.748 -19.339  0.00  0.00    -0.000 C 
ATOM     24  C   UNL     1      34.199 -19.650 -20.980  0.00  0.00    +0.056 C 
ATOM     25  C   UNL     1      35.338 -20.127 -20.332  0.00  0.00    +0.008 C 
ATOM     26  C   UNL     1      32.933 -19.960 -20.483  0.00  0.00    +0.008 C 
BRANCH  24  27
ATOM     27  S   UNL     1      34.362 -18.637 -22.450  0.00  0.00    +0.066 S 
ATOM     28  O   UNL     1      34.446 -19.581 -23.618  0.00  0.00    -0.251 OA
ATOM     29  C   UNL     1      36.042 -18.031 -22.137  0.00  0.00    +0.111 C 
ENDBRANCH  24  27
ENDBRANCH   5  21
TORSDOF 4
ENDMDL
MODEL 2
REMARK VINA RESULT:     -11.0      2.328      4.157
REMARK  Name = 9543437
REMARK  4 active torsions:
REMARK  status: ('A' for Active; 'I' for Inactive)
REMARK    1  A    between atoms: C_3  and  C_16
REMARK    2  A    between atoms: C_4  and  C_9
REMARK    3  A    between atoms: C_5  and  C_21
REMARK    4  A    between atoms: C_24  and  S_27
REMARK                            x       y       z     vdW  Elec       q    Type
REMARK                         _______ _______ _______ _____ _____    ______ ____
ROOT
ATOM      1  N   UNL     1      35.239 -22.181 -16.892  0.00  0.00    -0.315 N 
ATOM      2  N   UNL     1      33.052 -22.099 -17.269  0.00  0.00    -0.315 N 
ATOM      3  C   UNL     1      34.658 -22.889 -15.879  0.00  0.00    +0.059 C 
ATOM      4  C   UNL     1      33.308 -22.824 -16.133  0.00  0.00    +0.059 C 
ATOM      5  C   UNL     1      34.236 -21.726 -17.701  0.00  0.00    +0.168 C 
ATOM      6  H   UNL     1      36.203 -22.026 -17.017  0.00  0.00    +0.149 HD
ATOM      7  H   UNL     1      32.175 -21.901 -17.671  0.00  0.00    +0.149 HD
ENDROOT
BRANCH   4   9
ATOM      8  I   UNL     1      27.972 -23.909 -15.612  0.00  0.00    -0.043 I 
ATOM      9  C   UNL     1      32.281 -23.425 -15.336  0.00  0.00    +0.015 C 
ATOM     10  C   UNL     1      30.950 -23.385 -15.758  0.00  0.00    +0.007 C 
ATOM     11  C   UNL     1      32.606 -24.053 -14.131  0.00  0.00    +0.001 C 
ATOM     12  C   UNL     1      29.950 -23.970 -14.980  0.00  0.00    +0.030 C 
ATOM     13  C   UNL     1      31.607 -24.638 -13.353  0.00  0.00    +0.000 C 
ATOM     14  C   UNL     1      30.279 -24.596 -13.779  0.00  0.00    +0.006 C 
ENDBRANCH   4   9
BRANCH   3  16
ATOM     15  N   UNL     1      36.912 -24.740 -12.804  0.00  0.00    -0.242 NA
ATOM     16  C   UNL     1      35.423 -23.519 -14.832  0.00  0.00    +0.017 C 
ATOM     17  C   UNL     1      35.750 -24.868 -14.920  0.00  0.00    +0.022 C 
ATOM     18  C   UNL     1      35.840 -22.780 -13.729  0.00  0.00    +0.022 C 
ATOM     19  C   UNL     1      36.489 -25.426 -13.890  0.00  0.00    +0.099 C 
ATOM     20  C   UNL     1      36.575 -23.431 -12.752  0.00  0.00    +0.099 C 
ENDBRANCH   3  16
BRANCH   5  21
ATOM     21  C   UNL     1      34.500 -20.933 -18.878  0.00  0.00    +0.014 C 
ATOM     22  C   UNL     1      35.812 -20.602 -19.216  0.00  0.00    -0.000 C 
ATOM     23  C   UNL     1      33.443 -20.495 -19.675  0.00  0.00    -0.000 C 
ATOM     24  C   UNL     1      35.009 -19.398 -21.151  0.00  0.00    +0.056 C 
ATOM     25  C   UNL     1      36.066 -19.834 -20.353  0.00  0.00    +0.008 C 
ATOM     26  C   UNL     1      33.697 -19.728 -20.812  0.00  0.00    +0.008 C 
BRANCH  24  27
ATOM     27  S   UNL     1      35.336 -18.411 -22.612  0.00  0.00    +0.066 S 
ATOM     28  O   UNL     1      35.327 -16.973 -22.172  0.00  0.00    -0.251 OA
ATOM     29  C   UNL     1      33.764 -18.715 -23.462  0.00  0.00    +0.111 C 
ENDBRANCH  24  27
ENDBRANCH   5  21
TORSDOF 4
ENDMDL
MODEL 3
REMARK VINA RESULT:     -10.7      1.283      1.871
REMARK  Name = 9543437
REMARK  4 active torsions:
REMARK  status: ('A' for Active; 'I' for Inactive)
REMARK    1  A    between atoms: C_3  and  C_16
REMARK    2  A    between atoms: C_4  and  C_9
REMARK    3  A    between atoms: C_5  and  C_21
REMARK    4  A    between atoms: C_24  and  S_27
REMARK                            x       y       z     vdW  Elec       q    Type
REMARK                         _______ _______ _______ _____ _____    ______ ____
ROOT
ATOM      1  N   UNL     1      31.844 -22.231 -17.482  0.00  0.00    -0.315 N 
ATOM      2  N   UNL     1      33.994 -22.161 -16.927  0.00  0.00    -0.315 N 
ATOM      3  C   UNL     1      31.949 -22.914 -16.304  0.00  0.00    +0.059 C 
ATOM      4  C   UNL     1      33.285 -22.857 -15.981  0.00  0.00    +0.059 C 
ATOM      5  C   UNL     1      33.097 -21.797 -17.817  0.00  0.00    +0.168 C 
ATOM      6  H   UNL     1      31.019 -22.078 -17.996  0.00  0.00    +0.149 HD
ATOM      7  H   UNL     1      34.960 -21.973 -16.937  0.00  0.00    +0.149 HD
ENDROOT
BRANCH   4   9
ATOM      8  I   UNL     1      37.133 -26.214 -14.018  0.00  0.00    -0.043 I 
ATOM      9  C   UNL     1      33.886 -23.439 -14.819  0.00  0.00    +0.015 C 
ATOM     10  C   UNL     1      34.956 -24.327 -14.951  0.00  0.00    +0.007 C 
ATOM     11  C   UNL     1      33.404 -23.120 -13.547  0.00  0.00    +0.001 C 
ATOM     12  C   UNL     1      35.541 -24.893 -13.818  0.00  0.00    +0.030 C 
ATOM     13  C   UNL     1      33.989 -23.686 -12.414  0.00  0.00    +0.000 C 
ATOM     14  C   UNL     1      35.056 -24.573 -12.550  0.00  0.00    +0.006 C 
ENDBRANCH   4   9
BRANCH   3  16
ATOM     15  N   UNL     1      28.613 -24.679 -14.376  0.00  0.00    -0.242 NA
ATOM     16  C   UNL     1      30.814 -23.516 -15.650  0.00  0.00    +0.017 C 
ATOM     17  C   UNL     1      30.996 -24.576 -14.770  0.00  0.00    +0.022 C 
ATOM     18  C   UNL     1      29.531 -23.036 -15.894  0.00  0.00    +0.022 C 
ATOM     19  C   UNL     1      29.874 -25.118 -14.164  0.00  0.00    +0.099 C 
ATOM     20  C   UNL     1      28.474 -23.646 -15.239  0.00  0.00    +0.099 C 
ENDBRANCH   3  16
BRANCH   5  21
ATOM     21  C   UNL     1      33.349 -21.036 -19.016  0.00  0.00    +0.014 C 
ATOM     22  C   UNL     1      32.285 -20.487 -19.732  0.00  0.00    -0.000 C 
ATOM     23  C   UNL     1      34.658 -20.850 -19.461  0.00  0.00    -0.000 C 
ATOM     24  C   UNL     1      33.838 -19.566 -21.336  0.00  0.00    +0.056 C 
ATOM     25  C   UNL     1      32.530 -19.752 -20.891  0.00  0.00    +0.008 C 
ATOM     26  C   UNL     1      34.903 -20.115 -20.621  0.00  0.00    +0.008 C 
BRANCH  24  27
ATOM     27  S   UNL     1      34.153 -18.621 -22.827  0.00  0.00    +0.066 S 
ATOM     28  O   UNL     1      34.474 -19.615 -23.909  0.00  0.00    -0.251 OA
ATOM     29  C   UNL     1      35.722 -17.875 -22.310  0.00  0.00    +0.111 C 
ENDBRANCH  24  27
ENDBRANCH   5  21
TORSDOF 4
ENDMDL
MODEL 4
REMARK VINA RESULT:      -9.7      1.230      1.832
REMARK  Name = 9543437
REMARK  4 active torsions:
REMARK  status: ('A' for Active; 'I' for Inactive)
REMARK    1  A    between atoms: C_3  and  C_16
REMARK    2  A    between atoms: C_4  and  C_9
REMARK    3  A    between atoms: C_5  and  C_21
REMARK    4  A    between atoms: C_24  and  S_27
REMARK                            x       y       z     vdW  Elec       q    Type
REMARK                         _______ _______ _______ _____ _____    ______ ____
ROOT
ATOM      1  N   UNL     1      33.544 -22.062 -17.107  0.00  0.00    -0.315 N 
ATOM      2  N   UNL     1      35.745 -22.033 -16.806  0.00  0.00    -0.315 N 
ATOM      3  C   UNL     1      33.776 -22.781 -15.969  0.00  0.00    +0.059 C 
ATOM      4  C   UNL     1      35.141 -22.748 -15.803  0.00  0.00    +0.059 C 
ATOM      5  C   UNL     1      34.755 -21.634 -17.575  0.00  0.00    +0.168 C 
ATOM      6  H   UNL     1      32.666 -21.886 -17.517  0.00  0.00    +0.149 HD
ATOM      7  H   UNL     1      36.706 -21.856 -16.924  0.00  0.00    +0.149 HD
ENDROOT
BRANCH   4   9
ATOM      8  I   UNL     1      35.742 -23.287 -10.393  0.00  0.00    -0.043 I 
ATOM      9  C   UNL     1      35.865 -23.370 -14.736  0.00  0.00    +0.015 C 
ATOM     10  C   UNL     1      35.533 -23.093 -13.407  0.00  0.00    +0.007 C 
ATOM     11  C   UNL     1      36.908 -24.255 -15.019  0.00  0.00    +0.001 C 
ATOM     12  C   UNL     1      36.239 -23.699 -12.368  0.00  0.00    +0.030 C 
ATOM     13  C   UNL     1      37.615 -24.861 -13.979  0.00  0.00    +0.000 C 
ATOM     14  C   UNL     1      37.280 -24.582 -12.655  0.00  0.00    +0.006 C 
ENDBRANCH   4   9
BRANCH   3  16
ATOM     15  N   UNL     1      30.661 -24.571 -13.721  0.00  0.00    -0.242 NA
ATOM     16  C   UNL     1      32.716 -23.388 -15.203  0.00  0.00    +0.017 C 
ATOM     17  C   UNL     1      31.389 -23.086 -15.484  0.00  0.00    +0.022 C 
ATOM     18  C   UNL     1      33.017 -24.282 -14.180  0.00  0.00    +0.022 C 
ATOM     19  C   UNL     1      30.407 -23.698 -14.722  0.00  0.00    +0.099 C 
ATOM     20  C   UNL     1      31.963 -24.841 -13.476  0.00  0.00    +0.099 C 
ENDBRANCH   3  16
BRANCH   5  21
ATOM     21  C   UNL     1      34.877 -20.840 -18.774  0.00  0.00    +0.014 C 
ATOM     22  C   UNL     1      33.742 -20.532 -19.525  0.00  0.00    -0.000 C 
ATOM     23  C   UNL     1      36.130 -20.385 -19.183  0.00  0.00    -0.000 C 
ATOM     24  C   UNL     1      35.114 -19.310 -21.094  0.00  0.00    +0.056 C 
ATOM     25  C   UNL     1      33.861 -19.766 -20.685  0.00  0.00    +0.008 C 
ATOM     26  C   UNL     1      36.248 -19.619 -20.343  0.00  0.00    +0.008 C 
BRANCH  24  27
ATOM     27  S   UNL     1      35.266 -18.326 -22.585  0.00  0.00    +0.066 S 
ATOM     28  O   UNL     1      35.173 -16.885 -22.163  0.00  0.00    -0.251 OA
ATOM     29  C   UNL     1      33.671 -18.766 -23.325  0.00  0.00    +0.111 C 
ENDBRANCH  24  27
ENDBRANCH   5  21
TORSDOF 4
ENDMDL
MODEL 5
REMARK VINA RESULT:      -8.7     10.844     15.565
REMARK  Name = 9543437
REMARK  4 active torsions:
REMARK  status: ('A' for Active; 'I' for Inactive)
REMARK    1  A    between atoms: C_3  and  C_16
REMARK    2  A    between atoms: C_4  and  C_9
REMARK    3  A    between atoms: C_5  and  C_21
REMARK    4  A    between atoms: C_24  and  S_27
REMARK                            x       y       z     vdW  Elec       q    Type
REMARK                         _______ _______ _______ _____ _____    ______ ____
ROOT
ATOM      1  N   UNL     1      32.406 -10.789 -21.962  0.00  0.00    -0.315 N 
ATOM      2  N   UNL     1      32.531 -10.260 -24.115  0.00  0.00    -0.315 N 
ATOM      3  C   UNL     1      32.104  -9.459 -22.038  0.00  0.00    +0.059 C 
ATOM      4  C   UNL     1      32.188  -9.155 -23.377  0.00  0.00    +0.059 C 
ATOM      5  C   UNL     1      32.655 -11.226 -23.233  0.00  0.00    +0.168 C 
ATOM      6  H   UNL     1      32.439 -11.333 -21.142  0.00  0.00    +0.149 HD
ATOM      7  H   UNL     1      32.656 -10.316 -25.090  0.00  0.00    +0.149 HD
ENDROOT
BRANCH   4   9
ATOM      8  I   UNL     1      34.401  -4.643 -25.537  0.00  0.00    -0.043 I 
ATOM      9  C   UNL     1      31.953  -7.866 -23.955  0.00  0.00    +0.015 C 
ATOM     10  C   UNL     1      33.029  -7.074 -24.365  0.00  0.00    +0.007 C 
ATOM     11  C   UNL     1      30.648  -7.395 -24.109  0.00  0.00    +0.001 C 
ATOM     12  C   UNL     1      32.799  -5.818 -24.927  0.00  0.00    +0.030 C 
ATOM     13  C   UNL     1      30.418  -6.138 -24.671  0.00  0.00    +0.000 C 
ATOM     14  C   UNL     1      31.494  -5.351 -25.080  0.00  0.00    +0.006 C 
ENDBRANCH   4   9
BRANCH   3  16
ATOM     15  N   UNL     1      31.169  -7.129 -18.624  0.00  0.00    -0.242 NA
ATOM     16  C   UNL     1      31.784  -8.666 -20.878  0.00  0.00    +0.017 C 
ATOM     17  C   UNL     1      31.094  -9.233 -19.812  0.00  0.00    +0.022 C 
ATOM     18  C   UNL     1      32.167  -7.330 -20.817  0.00  0.00    +0.022 C 
ATOM     19  C   UNL     1      30.813  -8.430 -18.719  0.00  0.00    +0.099 C 
ATOM     20  C   UNL     1      31.839  -6.612 -19.679  0.00  0.00    +0.099 C 
ENDBRANCH   3  16
BRANCH   5  21
ATOM     21  C   UNL     1      33.009 -12.596 -23.517  0.00  0.00    +0.014 C 
ATOM     22  C   UNL     1      32.711 -13.150 -24.762  0.00  0.00    -0.000 C 
ATOM     23  C   UNL     1      33.645 -13.367 -22.545  0.00  0.00    -0.000 C 
ATOM     24  C   UNL     1      33.689 -15.246 -24.063  0.00  0.00    +0.056 C 
ATOM     25  C   UNL     1      33.052 -14.475 -25.035  0.00  0.00    +0.008 C 
ATOM     26  C   UNL     1      33.986 -14.692 -22.818  0.00  0.00    +0.008 C 
BRANCH  24  27
ATOM     27  S   UNL     1      34.127 -16.949 -24.414  0.00  0.00    +0.066 S 
ATOM     28  O   UNL     1      32.873 -17.628 -24.891  0.00  0.00    -0.251 OA
ATOM     29  C   UNL     1      34.402 -17.482 -22.704  0.00  0.00    +0.111 C 
ENDBRANCH  24  27
ENDBRANCH   5  21
TORSDOF 4
ENDMDL
