MODEL 1
REMARK VINA RESULT:     -12.6      0.000      0.000
REMARK  Name = 11500493
REMARK  5 active torsions:
REMARK  status: ('A' for Active; 'I' for Inactive)
REMARK    1  A    between atoms: C_1  and  C_15
REMARK    2  A    between atoms: C_2  and  C_8
REMARK    3  A    between atoms: C_11  and  O_13
REMARK    4  A    between atoms: C_15  and  N_16
REMARK    5  A    between atoms: N_16  and  C_19
REMARK                            x       y       z     vdW  Elec       q    Type
REMARK                         _______ _______ _______ _____ _____    ______ ____
ROOT
ATOM      1  C   UNL     1      34.770 -18.148 -22.532  0.00  0.00    -0.003 C 
ATOM      2  C   UNL     1      34.755 -19.609 -20.608  0.00  0.00    +0.001 C 
ATOM      3  C   UNL     1      34.080 -18.990 -21.660  0.00  0.00    -0.003 C 
ATOM      4  C   UNL     1      36.134 -17.924 -22.351  0.00  0.00    -0.003 C 
ATOM      5  C   UNL     1      36.120 -19.386 -20.429  0.00  0.00    +0.000 C 
ATOM      6  C   UNL     1      36.810 -18.544 -21.300  0.00  0.00    -0.000 C 
ENDROOT
BRANCH   2   8
ATOM      7  N   UNL     1      31.931 -21.389 -18.949  0.00  0.00    -0.239 NA
ATOM      8  C   UNL     1      34.039 -20.483 -19.705  0.00  0.00    +0.022 C 
ATOM      9  C   UNL     1      34.716 -21.238 -18.754  0.00  0.00    +0.040 C 
ATOM     10  C   UNL     1      32.660 -20.592 -19.763  0.00  0.00    +0.099 C 
ATOM     11  C   UNL     1      34.001 -22.070 -17.900  0.00  0.00    +0.158 C 
ATOM     12  C   UNL     1      32.622 -22.109 -18.037  0.00  0.00    +0.136 C 
BRANCH  11  13
ATOM     13  O   UNL     1      34.633 -22.819 -16.964  0.00  0.00    -0.470 OA
ATOM     14  C   UNL     1      35.603 -22.161 -16.145  0.00  0.00    +0.253 C 
ENDBRANCH  11  13
ENDBRANCH   2   8
BRANCH   1  15
ATOM     15  C   UNL     1      34.048 -17.484 -23.656  0.00  0.00    +0.114 C 
BRANCH  15  16
ATOM     16  N   UNL     1      34.451 -16.088 -23.830  0.00  0.00    -0.327 N 
ATOM     17  H   UNL     1      35.151 -15.880 -24.491  0.00  0.00    +0.147 HD
BRANCH  16  19
ATOM     18  N   UNL     1      32.520 -13.034 -23.020  0.00  0.00    -0.228 NA
ATOM     19  C   UNL     1      33.898 -15.052 -23.115  0.00  0.00    +0.077 C 
ATOM     20  C   UNL     1      33.082 -14.066 -23.689  0.00  0.00    +0.139 C 
ATOM     21  C   UNL     1      34.128 -14.923 -21.733  0.00  0.00    +0.019 C 
ATOM     22  C   UNL     1      33.568 -13.876 -21.010  0.00  0.00    +0.022 C 
ATOM     23  C   UNL     1      32.779 -12.966 -21.694  0.00  0.00    +0.100 C 
ATOM     24  N   UNL     1      32.826 -14.166 -25.080  0.00  0.00    -0.342 N 
ATOM     25  H   UNL     1      32.259 -13.496 -25.525  0.00  0.00    +0.144 HD
ATOM     26  H   UNL     1      33.217 -14.905 -25.600  0.00  0.00    +0.144 HD
ENDBRANCH  16  19
ENDBRANCH  15  16
ENDBRANCH   1  15
TORSDOF 5
ENDMDL
MODEL 2
REMARK VINA RESULT:     -11.7      1.220      1.671
REMARK  Name = 11500493
REMARK  5 active torsions:
REMARK  status: ('A' for Active; 'I' for Inactive)
REMARK    1  A    between atoms: C_1  and  C_15
REMARK    2  A    between atoms: C_2  and  C_8
REMARK    3  A    between atoms: C_11  and  O_13
REMARK    4  A    between atoms: C_15  and  N_16
REMARK    5  A    between atoms: N_16  and  C_19
REMARK                            x       y       z     vdW  Elec       q    Type
REMARK                         _______ _______ _______ _____ _____    ______ ____
ROOT
ATOM      1  C   UNL     1      34.628 -18.348 -22.394  0.00  0.00    -0.003 C 
ATOM      2  C   UNL     1      34.983 -19.735 -20.448  0.00  0.00    +0.001 C 
ATOM      3  C   UNL     1      34.134 -19.230 -21.433  0.00  0.00    -0.003 C 
ATOM      4  C   UNL     1      35.970 -17.971 -22.370  0.00  0.00    -0.003 C 
ATOM      5  C   UNL     1      36.326 -19.359 -20.426  0.00  0.00    +0.000 C 
ATOM      6  C   UNL     1      36.820 -18.477 -21.386  0.00  0.00    -0.000 C 
ENDROOT
BRANCH   2   8
ATOM      7  N   UNL     1      34.918 -22.283 -17.728  0.00  0.00    -0.239 NA
ATOM      8  C   UNL     1      34.471 -20.650 -19.452  0.00  0.00    +0.022 C 
ATOM      9  C   UNL     1      33.105 -20.792 -19.246  0.00  0.00    +0.040 C 
ATOM     10  C   UNL     1      35.330 -21.410 -18.675  0.00  0.00    +0.099 C 
ATOM     11  C   UNL     1      32.643 -21.679 -18.280  0.00  0.00    +0.158 C 
ATOM     12  C   UNL     1      33.582 -22.395 -17.555  0.00  0.00    +0.136 C 
BRANCH  11  13
ATOM     13  O   UNL     1      31.316 -21.838 -18.056  0.00  0.00    -0.470 OA
ATOM     14  C   UNL     1      30.921 -22.294 -16.759  0.00  0.00    +0.253 C 
ENDBRANCH  11  13
ENDBRANCH   2   8
BRANCH   1  15
ATOM     15  C   UNL     1      33.720 -17.806 -23.446  0.00  0.00    +0.114 C 
BRANCH  15  16
ATOM     16  N   UNL     1      34.148 -16.492 -23.929  0.00  0.00    -0.327 N 
ATOM     17  H   UNL     1      34.692 -16.447 -24.749  0.00  0.00    +0.147 HD
BRANCH  16  19
ATOM     18  N   UNL     1      32.852 -13.074 -23.335  0.00  0.00    -0.228 NA
ATOM     19  C   UNL     1      33.827 -15.317 -23.291  0.00  0.00    +0.077 C 
ATOM     20  C   UNL     1      33.185 -14.244 -23.927  0.00  0.00    +0.139 C 
ATOM     21  C   UNL     1      34.134 -15.124 -21.932  0.00  0.00    +0.019 C 
ATOM     22  C   UNL     1      33.808 -13.935 -21.287  0.00  0.00    +0.022 C 
ATOM     23  C   UNL     1      33.174 -12.951 -22.027  0.00  0.00    +0.100 C 
ATOM     24  N   UNL     1      32.858 -14.404 -25.297  0.00  0.00    -0.342 N 
ATOM     25  H   UNL     1      32.407 -13.677 -25.784  0.00  0.00    +0.144 HD
ATOM     26  H   UNL     1      33.083 -15.243 -25.761  0.00  0.00    +0.144 HD
ENDBRANCH  16  19
ENDBRANCH  15  16
ENDBRANCH   1  15
TORSDOF 5
ENDMDL
MODEL 3
REMARK VINA RESULT:     -11.5      2.800      8.126
REMARK  Name = 11500493
REMARK  5 active torsions:
REMARK  status: ('A' for Active; 'I' for Inactive)
REMARK    1  A    between atoms: C_1  and  C_15
REMARK    2  A    between atoms: C_2  and  C_8
REMARK    3  A    between atoms: C_11  and  O_13
REMARK    4  A    between atoms: C_15  and  N_16
REMARK    5  A    between atoms: N_16  and  C_19
REMARK                            x       y       z     vdW  Elec       q    Type
REMARK                         _______ _______ _______ _____ _____    ______ ____
ROOT
ATOM      1  C   UNL     1      34.551 -19.366 -20.700  0.00  0.00    -0.003 C 
ATOM      2  C   UNL     1      34.872 -17.493 -22.190  0.00  0.00    +0.001 C 
ATOM      3  C   UNL     1      34.020 -18.354 -21.498  0.00  0.00    -0.003 C 
ATOM      4  C   UNL     1      35.933 -19.519 -20.593  0.00  0.00    -0.003 C 
ATOM      5  C   UNL     1      36.254 -17.645 -22.083  0.00  0.00    +0.000 C 
ATOM      6  C   UNL     1      36.785 -18.658 -21.285  0.00  0.00    -0.000 C 
ENDROOT
BRANCH   2   8
ATOM      7  N   UNL     1      33.342 -15.775 -25.123  0.00  0.00    -0.239 NA
ATOM      8  C   UNL     1      34.322 -16.442 -23.018  0.00  0.00    +0.022 C 
ATOM      9  C   UNL     1      34.235 -15.137 -22.552  0.00  0.00    +0.040 C 
ATOM     10  C   UNL     1      33.867 -16.709 -24.299  0.00  0.00    +0.099 C 
ATOM     11  C   UNL     1      33.701 -14.148 -23.371  0.00  0.00    +0.158 C 
ATOM     12  C   UNL     1      33.272 -14.515 -24.637  0.00  0.00    +0.136 C 
BRANCH  11  13
ATOM     13  O   UNL     1      33.601 -12.865 -22.943  0.00  0.00    -0.470 OA
ATOM     14  C   UNL     1      33.115 -11.899 -23.879  0.00  0.00    +0.253 C 
ENDBRANCH  11  13
ENDBRANCH   2   8
BRANCH   1  15
ATOM     15  C   UNL     1      33.640 -20.288 -19.960  0.00  0.00    +0.114 C 
BRANCH  15  16
ATOM     16  N   UNL     1      34.304 -21.534 -19.571  0.00  0.00    -0.327 N 
ATOM     17  H   UNL     1      34.461 -22.218 -20.262  0.00  0.00    +0.147 HD
BRANCH  16  19
ATOM     18  N   UNL     1      34.295 -22.715 -16.062  0.00  0.00    -0.228 NA
ATOM     19  C   UNL     1      34.719 -21.792 -18.286  0.00  0.00    +0.077 C 
ATOM     20  C   UNL     1      33.922 -22.443 -17.333  0.00  0.00    +0.139 C 
ATOM     21  C   UNL     1      35.999 -21.406 -17.849  0.00  0.00    +0.019 C 
ATOM     22  C   UNL     1      36.419 -21.668 -16.549  0.00  0.00    +0.022 C 
ATOM     23  C   UNL     1      35.537 -22.318 -15.702  0.00  0.00    +0.100 C 
ATOM     24  N   UNL     1      32.626 -22.848 -17.739  0.00  0.00    -0.342 N 
ATOM     25  H   UNL     1      32.032 -23.309 -17.103  0.00  0.00    +0.144 HD
ATOM     26  H   UNL     1      32.321 -22.669 -18.658  0.00  0.00    +0.144 HD
ENDBRANCH  16  19
ENDBRANCH  15  16
ENDBRANCH   1  15
TORSDOF 5
ENDMDL
MODEL 4
REMARK VINA RESULT:     -11.5      2.995      8.239
REMARK  Name = 11500493
REMARK  5 active torsions:
REMARK  status: ('A' for Active; 'I' for Inactive)
REMARK    1  A    between atoms: C_1  and  C_15
REMARK    2  A    between atoms: C_2  and  C_8
REMARK    3  A    between atoms: C_11  and  O_13
REMARK    4  A    between atoms: C_15  and  N_16
REMARK    5  A    between atoms: N_16  and  C_19
REMARK                            x       y       z     vdW  Elec       q    Type
REMARK                         _______ _______ _______ _____ _____    ______ ____
ROOT
ATOM      1  C   UNL     1      33.657 -20.667 -19.627  0.00  0.00    -0.003 C 
ATOM      2  C   UNL     1      34.529 -19.104 -21.249  0.00  0.00    +0.001 C 
ATOM      3  C   UNL     1      33.444 -19.752 -20.658  0.00  0.00    -0.003 C 
ATOM      4  C   UNL     1      34.953 -20.934 -19.187  0.00  0.00    -0.003 C 
ATOM      5  C   UNL     1      35.825 -19.370 -20.808  0.00  0.00    +0.000 C 
ATOM      6  C   UNL     1      36.037 -20.285 -19.778  0.00  0.00    -0.000 C 
ENDROOT
BRANCH   2   8
ATOM      7  N   UNL     1      33.604 -17.734 -24.590  0.00  0.00    -0.239 NA
ATOM      8  C   UNL     1      34.309 -18.154 -22.318  0.00  0.00    +0.022 C 
ATOM      9  C   UNL     1      34.570 -16.802 -22.138  0.00  0.00    +0.040 C 
ATOM     10  C   UNL     1      33.831 -18.568 -23.550  0.00  0.00    +0.099 C 
ATOM     11  C   UNL     1      34.348 -15.913 -23.184  0.00  0.00    +0.158 C 
ATOM     12  C   UNL     1      33.869 -16.425 -24.379  0.00  0.00    +0.136 C 
BRANCH  11  13
ATOM     13  O   UNL     1      34.592 -14.588 -23.037  0.00  0.00    -0.470 OA
ATOM     14  C   UNL     1      33.776 -13.870 -22.108  0.00  0.00    +0.253 C 
ENDBRANCH  11  13
ENDBRANCH   2   8
BRANCH   1  15
ATOM     15  C   UNL     1      32.497 -21.362 -18.996  0.00  0.00    +0.114 C 
BRANCH  15  16
ATOM     16  N   UNL     1      32.913 -22.473 -18.138  0.00  0.00    -0.327 N 
ATOM     17  H   UNL     1      33.512 -23.159 -18.515  0.00  0.00    +0.147 HD
BRANCH  16  19
ATOM     18  N   UNL     1      33.041 -22.886 -14.460  0.00  0.00    -0.228 NA
ATOM     19  C   UNL     1      32.509 -22.604 -16.831  0.00  0.00    +0.077 C 
ATOM     20  C   UNL     1      33.400 -22.756 -15.758  0.00  0.00    +0.139 C 
ATOM     21  C   UNL     1      31.143 -22.592 -16.491  0.00  0.00    +0.019 C 
ATOM     22  C   UNL     1      30.735 -22.724 -15.169  0.00  0.00    +0.022 C 
ATOM     23  C   UNL     1      31.714 -22.867 -14.200  0.00  0.00    +0.100 C 
ATOM     24  N   UNL     1      34.784 -22.770 -16.062  0.00  0.00    -0.342 N 
ATOM     25  H   UNL     1      35.446 -22.874 -15.341  0.00  0.00    +0.144 HD
ATOM     26  H   UNL     1      35.083 -22.675 -16.996  0.00  0.00    +0.144 HD
ENDBRANCH  16  19
ENDBRANCH  15  16
ENDBRANCH   1  15
TORSDOF 5
ENDMDL
MODEL 5
REMARK VINA RESULT:     -11.2      1.709      2.495
REMARK  Name = 11500493
REMARK  5 active torsions:
REMARK  status: ('A' for Active; 'I' for Inactive)
REMARK    1  A    between atoms: C_1  and  C_15
REMARK    2  A    between atoms: C_2  and  C_8
REMARK    3  A    between atoms: C_11  and  O_13
REMARK    4  A    between atoms: C_15  and  N_16
REMARK    5  A    between atoms: N_16  and  C_19
REMARK                            x       y       z     vdW  Elec       q    Type
REMARK                         _______ _______ _______ _____ _____    ______ ____
ROOT
ATOM      1  C   UNL     1      34.379 -16.605 -22.322  0.00  0.00    -0.003 C 
ATOM      2  C   UNL     1      34.284 -18.899 -21.572  0.00  0.00    +0.001 C 
ATOM      3  C   UNL     1      34.427 -17.541 -21.290  0.00  0.00    -0.003 C 
ATOM      4  C   UNL     1      34.187 -17.026 -23.637  0.00  0.00    -0.003 C 
ATOM      5  C   UNL     1      34.091 -19.321 -22.888  0.00  0.00    +0.000 C 
ATOM      6  C   UNL     1      34.043 -18.385 -23.920  0.00  0.00    -0.000 C 
ENDROOT
BRANCH   2   8
ATOM      7  N   UNL     1      35.662 -21.192 -18.976  0.00  0.00    -0.239 NA
ATOM      8  C   UNL     1      34.334 -19.870 -20.501  0.00  0.00    +0.022 C 
ATOM      9  C   UNL     1      33.169 -20.408 -19.969  0.00  0.00    +0.040 C 
ATOM     10  C   UNL     1      35.545 -20.289 -19.976  0.00  0.00    +0.099 C 
ATOM     11  C   UNL     1      33.249 -21.339 -18.940  0.00  0.00    +0.158 C 
ATOM     12  C   UNL     1      34.508 -21.695 -18.483  0.00  0.00    +0.136 C 
BRANCH  11  13
ATOM     13  O   UNL     1      32.129 -21.881 -18.400  0.00  0.00    -0.470 OA
ATOM     14  C   UNL     1      32.269 -22.560 -17.149  0.00  0.00    +0.253 C 
ENDBRANCH  11  13
ENDBRANCH   2   8
BRANCH   1  15
ATOM     15  C   UNL     1      34.534 -15.152 -22.020  0.00  0.00    +0.114 C 
BRANCH  15  16
ATOM     16  N   UNL     1      33.619 -14.319 -22.803  0.00  0.00    -0.327 N 
ATOM     17  H   UNL     1      33.515 -14.510 -23.764  0.00  0.00    +0.147 HD
BRANCH  16  19
ATOM     18  N   UNL     1      31.852 -11.082 -22.466  0.00  0.00    -0.228 NA
ATOM     19  C   UNL     1      32.896 -13.284 -22.259  0.00  0.00    +0.077 C 
ATOM     20  C   UNL     1      32.561 -12.120 -22.966  0.00  0.00    +0.139 C 
ATOM     21  C   UNL     1      32.442 -13.340 -20.928  0.00  0.00    +0.019 C 
ATOM     22  C   UNL     1      31.710 -12.293 -20.378  0.00  0.00    +0.022 C 
ATOM     23  C   UNL     1      31.445 -11.197 -21.182  0.00  0.00    +0.100 C 
ATOM     24  N   UNL     1      33.001 -12.030 -24.311  0.00  0.00    -0.342 N 
ATOM     25  H   UNL     1      32.789 -11.231 -24.846  0.00  0.00    +0.144 HD
ATOM     26  H   UNL     1      33.518 -12.767 -24.709  0.00  0.00    +0.144 HD
ENDBRANCH  16  19
ENDBRANCH  15  16
ENDBRANCH   1  15
TORSDOF 5
ENDMDL
MODEL 6
REMARK VINA RESULT:     -11.1      3.191      8.161
REMARK  Name = 11500493
REMARK  5 active torsions:
REMARK  status: ('A' for Active; 'I' for Inactive)
REMARK    1  A    between atoms: C_1  and  C_15
REMARK    2  A    between atoms: C_2  and  C_8
REMARK    3  A    between atoms: C_11  and  O_13
REMARK    4  A    between atoms: C_15  and  N_16
REMARK    5  A    between atoms: N_16  and  C_19
REMARK                            x       y       z     vdW  Elec       q    Type
REMARK                         _______ _______ _______ _____ _____    ______ ____
ROOT
ATOM      1  C   UNL     1      35.212 -18.698 -21.402  0.00  0.00    -0.003 C 
ATOM      2  C   UNL     1      34.330 -16.674 -22.382  0.00  0.00    +0.001 C 
ATOM      3  C   UNL     1      34.942 -17.333 -21.315  0.00  0.00    -0.003 C 
ATOM      4  C   UNL     1      34.871 -19.405 -22.555  0.00  0.00    -0.003 C 
ATOM      5  C   UNL     1      33.990 -17.381 -23.535  0.00  0.00    +0.000 C 
ATOM      6  C   UNL     1      34.260 -18.746 -23.622  0.00  0.00    -0.000 C 
ENDROOT
BRANCH   2   8
ATOM      7  N   UNL     1      33.761 -13.296 -20.912  0.00  0.00    -0.239 NA
ATOM      8  C   UNL     1      34.050 -15.258 -22.292  0.00  0.00    +0.022 C 
ATOM      9  C   UNL     1      33.807 -14.504 -23.433  0.00  0.00    +0.040 C 
ATOM     10  C   UNL     1      34.016 -14.615 -21.066  0.00  0.00    +0.099 C 
ATOM     11  C   UNL     1      33.542 -13.144 -23.315  0.00  0.00    +0.158 C 
ATOM     12  C   UNL     1      33.530 -12.593 -22.043  0.00  0.00    +0.136 C 
BRANCH  11  13
ATOM     13  O   UNL     1      33.302 -12.382 -24.411  0.00  0.00    -0.470 OA
ATOM     14  C   UNL     1      32.634 -13.007 -25.510  0.00  0.00    +0.253 C 
ENDBRANCH  11  13
ENDBRANCH   2   8
BRANCH   1  15
ATOM     15  C   UNL     1      35.865 -19.404 -20.261  0.00  0.00    +0.114 C 
BRANCH  15  16
ATOM     16  N   UNL     1      35.276 -20.721 -20.010  0.00  0.00    -0.327 N 
ATOM     17  H   UNL     1      34.925 -21.232 -20.775  0.00  0.00    +0.147 HD
BRANCH  16  19
ATOM     18  N   UNL     1      33.945 -22.535 -17.069  0.00  0.00    -0.228 NA
ATOM     19  C   UNL     1      35.192 -21.278 -18.756  0.00  0.00    +0.077 C 
ATOM     20  C   UNL     1      34.065 -21.973 -18.293  0.00  0.00    +0.139 C 
ATOM     21  C   UNL     1      36.261 -21.177 -17.846  0.00  0.00    +0.019 C 
ATOM     22  C   UNL     1      36.176 -21.742 -16.579  0.00  0.00    +0.022 C 
ATOM     23  C   UNL     1      35.006 -22.404 -16.242  0.00  0.00    +0.100 C 
ATOM     24  N   UNL     1      32.969 -22.096 -19.184  0.00  0.00    -0.342 N 
ATOM     25  H   UNL     1      32.157 -22.576 -18.903  0.00  0.00    +0.144 HD
ATOM     26  H   UNL     1      33.021 -21.701 -20.085  0.00  0.00    +0.144 HD
ENDBRANCH  16  19
ENDBRANCH  15  16
ENDBRANCH   1  15
TORSDOF 5
ENDMDL
MODEL 7
REMARK VINA RESULT:     -11.0      3.908      9.803
REMARK  Name = 11500493
REMARK  5 active torsions:
REMARK  status: ('A' for Active; 'I' for Inactive)
REMARK    1  A    between atoms: C_1  and  C_15
REMARK    2  A    between atoms: C_2  and  C_8
REMARK    3  A    between atoms: C_11  and  O_13
REMARK    4  A    between atoms: C_15  and  N_16
REMARK    5  A    between atoms: N_16  and  C_19
REMARK                            x       y       z     vdW  Elec       q    Type
REMARK                         _______ _______ _______ _____ _____    ______ ____
ROOT
ATOM      1  C   UNL     1      35.506 -21.879 -17.205  0.00  0.00    -0.003 C 
ATOM      2  C   UNL     1      34.813 -20.750 -19.224  0.00  0.00    +0.001 C 
ATOM      3  C   UNL     1      35.781 -21.000 -18.252  0.00  0.00    -0.003 C 
ATOM      4  C   UNL     1      34.265 -22.509 -17.130  0.00  0.00    -0.003 C 
ATOM      5  C   UNL     1      33.571 -21.381 -19.150  0.00  0.00    +0.000 C 
ATOM      6  C   UNL     1      33.297 -22.260 -18.103  0.00  0.00    -0.000 C 
ENDROOT
BRANCH   2   8
ATOM      7  N   UNL     1      36.620 -18.274 -21.345  0.00  0.00    -0.239 NA
ATOM      8  C   UNL     1      35.097 -19.839 -20.311  0.00  0.00    +0.022 C 
ATOM      9  C   UNL     1      34.180 -19.639 -21.335  0.00  0.00    +0.040 C 
ATOM     10  C   UNL     1      36.292 -19.140 -20.359  0.00  0.00    +0.099 C 
ATOM     11  C   UNL     1      34.482 -18.757 -22.366  0.00  0.00    +0.158 C 
ATOM     12  C   UNL     1      35.705 -18.105 -22.325  0.00  0.00    +0.136 C 
BRANCH  11  13
ATOM     13  O   UNL     1      33.608 -18.542 -23.380  0.00  0.00    -0.470 OA
ATOM     14  C   UNL     1      33.824 -17.388 -24.197  0.00  0.00    +0.253 C 
ENDBRANCH  11  13
ENDBRANCH   2   8
BRANCH   1  15
ATOM     15  C   UNL     1      36.541 -22.145 -16.163  0.00  0.00    +0.114 C 
BRANCH  15  16
ATOM     16  N   UNL     1      36.260 -23.359 -15.395  0.00  0.00    -0.327 N 
ATOM     17  H   UNL     1      35.323 -23.570 -15.176  0.00  0.00    +0.147 HD
BRANCH  16  19
ATOM     18  N   UNL     1      37.941 -26.438 -14.208  0.00  0.00    -0.228 NA
ATOM     19  C   UNL     1      37.242 -24.221 -14.968  0.00  0.00    +0.077 C 
ATOM     20  C   UNL     1      37.002 -25.561 -14.631  0.00  0.00    +0.139 C 
ATOM     21  C   UNL     1      38.576 -23.791 -14.841  0.00  0.00    +0.019 C 
ATOM     22  C   UNL     1      39.570 -24.662 -14.408  0.00  0.00    +0.022 C 
ATOM     23  C   UNL     1      39.203 -25.963 -14.107  0.00  0.00    +0.100 C 
ATOM     24  N   UNL     1      35.669 -26.030 -14.749  0.00  0.00    -0.342 N 
ATOM     25  H   UNL     1      35.454 -26.964 -14.524  0.00  0.00    +0.144 HD
ATOM     26  H   UNL     1      34.959 -25.420 -15.057  0.00  0.00    +0.144 HD
ENDBRANCH  16  19
ENDBRANCH  15  16
ENDBRANCH   1  15
TORSDOF 5
ENDMDL
MODEL 8
REMARK VINA RESULT:     -10.9      2.140      3.726
REMARK  Name = 11500493
REMARK  5 active torsions:
REMARK  status: ('A' for Active; 'I' for Inactive)
REMARK    1  A    between atoms: C_1  and  C_15
REMARK    2  A    between atoms: C_2  and  C_8
REMARK    3  A    between atoms: C_11  and  O_13
REMARK    4  A    between atoms: C_15  and  N_16
REMARK    5  A    between atoms: N_16  and  C_19
REMARK                            x       y       z     vdW  Elec       q    Type
REMARK                         _______ _______ _______ _____ _____    ______ ____
ROOT
ATOM      1  C   UNL     1      34.053 -14.897 -22.091  0.00  0.00    -0.003 C 
ATOM      2  C   UNL     1      34.528 -17.259 -21.922  0.00  0.00    +0.001 C 
ATOM      3  C   UNL     1      34.296 -16.026 -21.311  0.00  0.00    -0.003 C 
ATOM      4  C   UNL     1      34.040 -14.998 -23.481  0.00  0.00    -0.003 C 
ATOM      5  C   UNL     1      34.514 -17.361 -23.313  0.00  0.00    +0.000 C 
ATOM      6  C   UNL     1      34.270 -16.231 -24.092  0.00  0.00    -0.000 C 
ENDROOT
BRANCH   2   8
ATOM      7  N   UNL     1      36.358 -19.793 -19.891  0.00  0.00    -0.239 NA
ATOM      8  C   UNL     1      34.780 -18.431 -21.112  0.00  0.00    +0.022 C 
ATOM      9  C   UNL     1      33.752 -19.303 -20.777  0.00  0.00    +0.040 C 
ATOM     10  C   UNL     1      36.054 -18.716 -20.650  0.00  0.00    +0.099 C 
ATOM     11  C   UNL     1      34.026 -20.421 -19.997  0.00  0.00    +0.158 C 
ATOM     12  C   UNL     1      35.334 -20.620 -19.583  0.00  0.00    +0.136 C 
BRANCH  11  13
ATOM     13  O   UNL     1      33.043 -21.289 -19.652  0.00  0.00    -0.470 OA
ATOM     14  C   UNL     1      33.260 -22.096 -18.491  0.00  0.00    +0.253 C 
ENDBRANCH  11  13
ENDBRANCH   2   8
BRANCH   1  15
ATOM     15  C   UNL     1      33.808 -13.578 -21.438  0.00  0.00    +0.114 C 
BRANCH  15  16
ATOM     16  N   UNL     1      32.405 -13.167 -21.521  0.00  0.00    -0.327 N 
ATOM     17  H   UNL     1      31.710 -13.865 -21.528  0.00  0.00    +0.147 HD
BRANCH  16  19
ATOM     18  N   UNL     1      31.821  -9.751 -22.826  0.00  0.00    -0.228 NA
ATOM     19  C   UNL     1      32.012 -11.851 -21.587  0.00  0.00    +0.077 C 
ATOM     20  C   UNL     1      32.194 -11.047 -22.722  0.00  0.00    +0.139 C 
ATOM     21  C   UNL     1      31.390 -11.226 -20.491  0.00  0.00    +0.019 C 
ATOM     22  C   UNL     1      30.991  -9.895 -20.559  0.00  0.00    +0.022 C 
ATOM     23  C   UNL     1      31.228  -9.208 -21.738  0.00  0.00    +0.100 C 
ATOM     24  N   UNL     1      32.816 -11.644 -23.847  0.00  0.00    -0.342 N 
ATOM     25  H   UNL     1      32.965 -11.118 -24.665  0.00  0.00    +0.144 HD
ATOM     26  H   UNL     1      33.100 -12.587 -23.809  0.00  0.00    +0.144 HD
ENDBRANCH  16  19
ENDBRANCH  15  16
ENDBRANCH   1  15
TORSDOF 5
ENDMDL
MODEL 9
REMARK VINA RESULT:     -10.8      4.218      9.030
REMARK  Name = 11500493
REMARK  5 active torsions:
REMARK  status: ('A' for Active; 'I' for Inactive)
REMARK    1  A    between atoms: C_1  and  C_15
REMARK    2  A    between atoms: C_2  and  C_8
REMARK    3  A    between atoms: C_11  and  O_13
REMARK    4  A    between atoms: C_15  and  N_16
REMARK    5  A    between atoms: N_16  and  C_19
REMARK                            x       y       z     vdW  Elec       q    Type
REMARK                         _______ _______ _______ _____ _____    ______ ____
ROOT
ATOM      1  C   UNL     1      33.945 -15.073 -22.489  0.00  0.00    -0.003 C 
ATOM      2  C   UNL     1      32.803 -12.991 -22.930  0.00  0.00    +0.001 C 
ATOM      3  C   UNL     1      33.388 -13.881 -22.029  0.00  0.00    -0.003 C 
ATOM      4  C   UNL     1      33.918 -15.377 -23.850  0.00  0.00    -0.003 C 
ATOM      5  C   UNL     1      32.776 -13.295 -24.291  0.00  0.00    +0.000 C 
ATOM      6  C   UNL     1      33.333 -14.487 -24.751  0.00  0.00    -0.000 C 
ENDROOT
BRANCH   2   8
ATOM      7  N   UNL     1      30.886 -10.604 -20.804  0.00  0.00    -0.239 NA
ATOM      8  C   UNL     1      32.225 -11.753 -22.453  0.00  0.00    +0.022 C 
ATOM      9  C   UNL     1      32.428 -10.561 -23.135  0.00  0.00    +0.040 C 
ATOM     10  C   UNL     1      31.454 -11.725 -21.303  0.00  0.00    +0.099 C 
ATOM     11  C   UNL     1      31.861  -9.387 -22.652  0.00  0.00    +0.158 C 
ATOM     12  C   UNL     1      31.105  -9.461 -21.492  0.00  0.00    +0.136 C 
BRANCH  11  13
ATOM     13  O   UNL     1      32.042  -8.207 -23.295  0.00  0.00    -0.470 OA
ATOM     14  C   UNL     1      30.922  -7.322 -23.367  0.00  0.00    +0.253 C 
ENDBRANCH  11  13
ENDBRANCH   2   8
BRANCH   1  15
ATOM     15  C   UNL     1      34.569 -16.026 -21.525  0.00  0.00    +0.114 C 
BRANCH  15  16
ATOM     16  N   UNL     1      34.612 -17.395 -22.043  0.00  0.00    -0.327 N 
ATOM     17  H   UNL     1      34.610 -17.528 -23.020  0.00  0.00    +0.147 HD
BRANCH  16  19
ATOM     18  N   UNL     1      35.933 -20.114 -19.905  0.00  0.00    -0.228 NA
ATOM     19  C   UNL     1      34.658 -18.503 -21.231  0.00  0.00    +0.077 C 
ATOM     20  C   UNL     1      35.848 -19.028 -20.706  0.00  0.00    +0.139 C 
ATOM     21  C   UNL     1      33.481 -19.188 -20.876  0.00  0.00    +0.019 C 
ATOM     22  C   UNL     1      33.527 -20.309 -20.055  0.00  0.00    +0.022 C 
ATOM     23  C   UNL     1      34.767 -20.728 -19.600  0.00  0.00    +0.100 C 
ATOM     24  N   UNL     1      37.053 -18.362 -21.042  0.00  0.00    -0.342 N 
ATOM     25  H   UNL     1      37.913 -18.695 -20.696  0.00  0.00    +0.144 HD
ATOM     26  H   UNL     1      37.030 -17.566 -21.622  0.00  0.00    +0.144 HD
ENDBRANCH  16  19
ENDBRANCH  15  16
ENDBRANCH   1  15
TORSDOF 5
ENDMDL
