MODEL 1
REMARK VINA RESULT:     -12.9      0.000      0.000
REMARK  Name = 4369498
REMARK  8 active torsions:
REMARK  status: ('A' for Active; 'I' for Inactive)
REMARK    1  A    between atoms: N_2  and  C_11
REMARK    2  A    between atoms: C_5  and  C_25
REMARK    3  A    between atoms: C_8  and  S_14
REMARK    4  A    between atoms: C_13  and  O_23
REMARK    5  A    between atoms: S_14  and  N_17
REMARK    6  A    between atoms: N_17  and  C_19
REMARK    7  A    between atoms: C_19  and  C_20
REMARK    8  A    between atoms: C_26  and  C_32
REMARK                            x       y       z     vdW  Elec       q    Type
REMARK                         _______ _______ _______ _____ _____    ______ ____
ROOT
ATOM      1  O   UNL     1      33.756 -20.042 -20.292  0.00  0.00    -0.424 OA
ATOM      2  N   UNL     1      33.517 -21.367 -18.430  0.00  0.00    -0.265 N 
ATOM      3  N   UNL     1      35.655 -20.554 -19.176  0.00  0.00    -0.193 NA
ATOM      4  C   UNL     1      34.350 -20.684 -19.248  0.00  0.00    +0.293 C 
ATOM      5  C   UNL     1      34.800 -19.451 -20.938  0.00  0.00    +0.168 C 
ATOM      6  C   UNL     1      35.949 -19.764 -20.257  0.00  0.00    +0.141 C 
ATOM      7  H   UNL     1      32.565 -21.325 -18.679  0.00  0.00    +0.157 HD
ENDROOT
BRANCH   2  11
ATOM      8  C   UNL     1      35.387 -22.915 -15.621  0.00  0.00    +0.123 C 
ATOM      9  C   UNL     1      35.097 -22.162 -16.760  0.00  0.00    +0.038 C 
ATOM     10  C   UNL     1      34.377 -23.641 -14.989  0.00  0.00    +0.023 C 
ATOM     11  C   UNL     1      33.798 -22.137 -17.266  0.00  0.00    +0.087 C 
ATOM     12  C   UNL     1      33.077 -23.615 -15.496  0.00  0.00    +0.040 C 
ATOM     13  C   UNL     1      32.788 -22.862 -16.634  0.00  0.00    +0.152 C 
BRANCH   8  14
ATOM     14  S   UNL     1      37.014 -22.951 -14.988  0.00  0.00    +0.060 S 
ATOM     15  O   UNL     1      37.895 -22.260 -15.921  0.00  0.00    -0.153 OA
ATOM     16  O   UNL     1      36.960 -22.514 -13.600  0.00  0.00    -0.153 OA
BRANCH  14  17
ATOM     17  N   UNL     1      37.384 -24.619 -15.020  0.00  0.00    -0.179 NA
ATOM     18  H   UNL     1      38.138 -24.742 -15.697  0.00  0.00    +0.149 HD
BRANCH  17  19
ATOM     19  C   UNL     1      37.807 -25.299 -13.787  0.00  0.00    +0.091 C 
BRANCH  19  20
ATOM     20  C   UNL     1      39.257 -25.064 -13.524  0.00  0.00    +0.017 C 
ATOM     21  C   UNL     1      40.262 -26.070 -14.006  0.00  0.00    +0.001 C 
ATOM     22  C   UNL     1      40.165 -24.729 -14.670  0.00  0.00    +0.001 C 
ENDBRANCH  19  20
ENDBRANCH  17  19
ENDBRANCH  14  17
ENDBRANCH   8  14
BRANCH  13  23
ATOM     23  O   UNL     1      31.512 -22.851 -17.114  0.00  0.00    -0.470 OA
ATOM     24  C   UNL     1      30.468 -22.621 -16.171  0.00  0.00    +0.253 C 
ENDBRANCH  13  23
ENDBRANCH   2  11
BRANCH   5  25
ATOM     25  C   UNL     1      34.473 -18.682 -22.113  0.00  0.00    +0.036 C 
ATOM     26  C   UNL     1      33.970 -16.560 -23.154  0.00  0.00    +0.002 C 
ATOM     27  C   UNL     1      34.286 -17.303 -22.017  0.00  0.00    +0.003 C 
ATOM     28  C   UNL     1      34.345 -19.318 -23.349  0.00  0.00    +0.003 C 
ATOM     29  C   UNL     1      33.842 -17.197 -24.389  0.00  0.00    +0.000 C 
ATOM     30  C   UNL     1      34.030 -18.575 -24.486  0.00  0.00    +0.000 C 
BRANCH  26  32
ATOM     31  N   UNL     1      33.186 -13.046 -24.129  0.00  0.00    -0.242 NA
ATOM     32  C   UNL     1      33.775 -15.130 -23.054  0.00  0.00    +0.019 C 
ATOM     33  C   UNL     1      33.972 -14.462 -21.851  0.00  0.00    +0.003 C 
ATOM     34  C   UNL     1      33.386 -14.383 -24.154  0.00  0.00    +0.099 C 
ATOM     35  C   UNL     1      33.777 -13.087 -21.786  0.00  0.00    +0.021 C 
ATOM     36  C   UNL     1      33.388 -12.431 -22.943  0.00  0.00    +0.099 C 
ENDBRANCH  26  32
ENDBRANCH   5  25
TORSDOF 8
ENDMDL
MODEL 2
REMARK VINA RESULT:     -12.5      4.982      9.880
REMARK  Name = 4369498
REMARK  8 active torsions:
REMARK  status: ('A' for Active; 'I' for Inactive)
REMARK    1  A    between atoms: N_2  and  C_11
REMARK    2  A    between atoms: C_5  and  C_25
REMARK    3  A    between atoms: C_8  and  S_14
REMARK    4  A    between atoms: C_13  and  O_23
REMARK    5  A    between atoms: S_14  and  N_17
REMARK    6  A    between atoms: N_17  and  C_19
REMARK    7  A    between atoms: C_19  and  C_20
REMARK    8  A    between atoms: C_26  and  C_32
REMARK                            x       y       z     vdW  Elec       q    Type
REMARK                         _______ _______ _______ _____ _____    ______ ____
ROOT
ATOM      1  O   UNL     1      32.934 -11.023 -22.246  0.00  0.00    -0.424 OA
ATOM      2  N   UNL     1      33.662 -13.048 -23.053  0.00  0.00    -0.265 N 
ATOM      3  N   UNL     1      31.586 -12.798 -21.862  0.00  0.00    -0.193 NA
ATOM      4  C   UNL     1      32.706 -12.358 -22.389  0.00  0.00    +0.293 C 
ATOM      5  C   UNL     1      31.843 -10.586 -21.559  0.00  0.00    +0.168 C 
ATOM      6  C   UNL     1      31.028 -11.666 -21.328  0.00  0.00    +0.141 C 
ATOM      7  H   UNL     1      34.424 -12.507 -23.363  0.00  0.00    +0.157 HD
ENDROOT
BRANCH   2  11
ATOM      8  C   UNL     1      34.511 -16.655 -22.819  0.00  0.00    +0.123 C 
ATOM      9  C   UNL     1      34.423 -15.295 -22.515  0.00  0.00    +0.038 C 
ATOM     10  C   UNL     1      33.917 -17.150 -23.980  0.00  0.00    +0.023 C 
ATOM     11  C   UNL     1      33.741 -14.433 -23.373  0.00  0.00    +0.087 C 
ATOM     12  C   UNL     1      33.235 -16.286 -24.838  0.00  0.00    +0.040 C 
ATOM     13  C   UNL     1      33.147 -14.928 -24.534  0.00  0.00    +0.152 C 
BRANCH   8  14
ATOM     14  S   UNL     1      35.367 -17.736 -21.748  0.00  0.00    +0.060 S 
ATOM     15  O   UNL     1      36.656 -18.064 -22.345  0.00  0.00    -0.153 OA
ATOM     16  O   UNL     1      35.326 -17.161 -20.410  0.00  0.00    -0.153 OA
BRANCH  14  17
ATOM     17  N   UNL     1      34.382 -19.133 -21.771  0.00  0.00    -0.179 NA
ATOM     18  H   UNL     1      34.917 -19.864 -22.240  0.00  0.00    +0.149 HD
BRANCH  17  19
ATOM     19  C   UNL     1      33.897 -19.706 -20.507  0.00  0.00    +0.091 C 
BRANCH  19  20
ATOM     20  C   UNL     1      34.662 -20.939 -20.157  0.00  0.00    +0.017 C 
ATOM     21  C   UNL     1      35.690 -20.878 -19.065  0.00  0.00    +0.001 C 
ATOM     22  C   UNL     1      34.402 -21.614 -18.842  0.00  0.00    +0.001 C 
ENDBRANCH  19  20
ENDBRANCH  17  19
ENDBRANCH  14  17
ENDBRANCH   8  14
BRANCH  13  23
ATOM     23  O   UNL     1      32.478 -14.100 -25.386  0.00  0.00    -0.470 OA
ATOM     24  C   UNL     1      33.267 -13.255 -26.221  0.00  0.00    +0.253 C 
ENDBRANCH  13  23
ENDBRANCH   2  11
BRANCH   5  25
ATOM     25  C   UNL     1      31.801  -9.177 -21.252  0.00  0.00    +0.036 C 
ATOM     26  C   UNL     1      32.102  -6.877 -21.929  0.00  0.00    +0.002 C 
ATOM     27  C   UNL     1      32.143  -8.239 -22.226  0.00  0.00    +0.003 C 
ATOM     28  C   UNL     1      31.418  -8.752 -19.979  0.00  0.00    +0.003 C 
ATOM     29  C   UNL     1      31.719  -6.453 -20.656  0.00  0.00    +0.000 C 
ATOM     30  C   UNL     1      31.377  -7.390 -19.681  0.00  0.00    +0.000 C 
BRANCH  26  32
ATOM     31  N   UNL     1      31.772  -4.116 -24.415  0.00  0.00    -0.242 NA
ATOM     32  C   UNL     1      32.457  -5.905 -22.939  0.00  0.00    +0.019 C 
ATOM     33  C   UNL     1      33.762  -5.801 -23.407  0.00  0.00    +0.003 C 
ATOM     34  C   UNL     1      31.507  -5.046 -23.471  0.00  0.00    +0.099 C 
ATOM     35  C   UNL     1      34.073  -4.856 -24.379  0.00  0.00    +0.021 C 
ATOM     36  C   UNL     1      33.051  -4.045 -24.846  0.00  0.00    +0.099 C 
ENDBRANCH  26  32
ENDBRANCH   5  25
TORSDOF 8
ENDMDL
MODEL 3
REMARK VINA RESULT:     -12.5      1.378      1.891
REMARK  Name = 4369498
REMARK  8 active torsions:
REMARK  status: ('A' for Active; 'I' for Inactive)
REMARK    1  A    between atoms: N_2  and  C_11
REMARK    2  A    between atoms: C_5  and  C_25
REMARK    3  A    between atoms: C_8  and  S_14
REMARK    4  A    between atoms: C_13  and  O_23
REMARK    5  A    between atoms: S_14  and  N_17
REMARK    6  A    between atoms: N_17  and  C_19
REMARK    7  A    between atoms: C_19  and  C_20
REMARK    8  A    between atoms: C_26  and  C_32
REMARK                            x       y       z     vdW  Elec       q    Type
REMARK                         _______ _______ _______ _____ _____    ______ ____
ROOT
ATOM      1  O   UNL     1      33.818 -20.183 -20.069  0.00  0.00    -0.424 OA
ATOM      2  N   UNL     1      33.580 -21.514 -18.212  0.00  0.00    -0.265 N 
ATOM      3  N   UNL     1      35.711 -20.654 -18.926  0.00  0.00    -0.193 NA
ATOM      4  C   UNL     1      34.410 -20.813 -19.017  0.00  0.00    +0.293 C 
ATOM      5  C   UNL     1      34.858 -19.568 -20.699  0.00  0.00    +0.168 C 
ATOM      6  C   UNL     1      36.004 -19.857 -20.002  0.00  0.00    +0.141 C 
ATOM      7  H   UNL     1      32.631 -21.492 -18.475  0.00  0.00    +0.157 HD
ENDROOT
BRANCH   2  11
ATOM      8  C   UNL     1      35.466 -23.134 -15.455  0.00  0.00    +0.123 C 
ATOM      9  C   UNL     1      35.177 -22.385 -16.596  0.00  0.00    +0.038 C 
ATOM     10  C   UNL     1      34.439 -23.774 -14.762  0.00  0.00    +0.023 C 
ATOM     11  C   UNL     1      33.860 -22.278 -17.044  0.00  0.00    +0.087 C 
ATOM     12  C   UNL     1      33.122 -23.667 -15.211  0.00  0.00    +0.040 C 
ATOM     13  C   UNL     1      32.833 -22.919 -16.352  0.00  0.00    +0.152 C 
BRANCH   8  14
ATOM     14  S   UNL     1      37.115 -23.271 -14.894  0.00  0.00    +0.060 S 
ATOM     15  O   UNL     1      37.466 -24.683 -14.813  0.00  0.00    -0.153 OA
ATOM     16  O   UNL     1      37.934 -22.377 -15.701  0.00  0.00    -0.153 OA
BRANCH  14  17
ATOM     17  N   UNL     1      37.018 -22.639 -13.309  0.00  0.00    -0.179 NA
ATOM     18  H   UNL     1      36.038 -22.416 -13.139  0.00  0.00    +0.149 HD
BRANCH  17  19
ATOM     19  C   UNL     1      37.473 -23.450 -12.169  0.00  0.00    +0.091 C 
BRANCH  19  20
ATOM     20  C   UNL     1      36.315 -24.095 -11.484  0.00  0.00    +0.017 C 
ATOM     21  C   UNL     1      35.875 -23.579 -10.144  0.00  0.00    +0.001 C 
ATOM     22  C   UNL     1      35.024 -23.339 -11.356  0.00  0.00    +0.001 C 
ENDBRANCH  19  20
ENDBRANCH  17  19
ENDBRANCH  14  17
ENDBRANCH   8  14
BRANCH  13  23
ATOM     23  O   UNL     1      31.541 -22.828 -16.774  0.00  0.00    -0.470 OA
ATOM     24  C   UNL     1      30.524 -23.003 -15.789  0.00  0.00    +0.253 C 
ENDBRANCH  13  23
ENDBRANCH   2  11
BRANCH   5  25
ATOM     25  C   UNL     1      34.532 -18.805 -21.879  0.00  0.00    +0.036 C 
ATOM     26  C   UNL     1      34.035 -16.688 -22.932  0.00  0.00    +0.002 C 
ATOM     27  C   UNL     1      34.350 -17.425 -21.791  0.00  0.00    +0.003 C 
ATOM     28  C   UNL     1      34.399 -19.448 -23.110  0.00  0.00    +0.003 C 
ATOM     29  C   UNL     1      33.902 -17.332 -24.163  0.00  0.00    +0.000 C 
ATOM     30  C   UNL     1      34.084 -18.712 -24.252  0.00  0.00    +0.000 C 
BRANCH  26  32
ATOM     31  N   UNL     1      33.274 -13.176 -23.931  0.00  0.00    -0.242 NA
ATOM     32  C   UNL     1      33.846 -15.257 -22.841  0.00  0.00    +0.019 C 
ATOM     33  C   UNL     1      34.037 -14.583 -21.640  0.00  0.00    +0.003 C 
ATOM     34  C   UNL     1      33.468 -14.513 -23.948  0.00  0.00    +0.099 C 
ATOM     35  C   UNL     1      33.848 -13.207 -21.583  0.00  0.00    +0.021 C 
ATOM     36  C   UNL     1      33.470 -12.556 -22.746  0.00  0.00    +0.099 C 
ENDBRANCH  26  32
ENDBRANCH   5  25
TORSDOF 8
ENDMDL
MODEL 4
REMARK VINA RESULT:     -11.9      2.702      6.107
REMARK  Name = 4369498
REMARK  8 active torsions:
REMARK  status: ('A' for Active; 'I' for Inactive)
REMARK    1  A    between atoms: N_2  and  C_11
REMARK    2  A    between atoms: C_5  and  C_25
REMARK    3  A    between atoms: C_8  and  S_14
REMARK    4  A    between atoms: C_13  and  O_23
REMARK    5  A    between atoms: S_14  and  N_17
REMARK    6  A    between atoms: N_17  and  C_19
REMARK    7  A    between atoms: C_19  and  C_20
REMARK    8  A    between atoms: C_26  and  C_32
REMARK                            x       y       z     vdW  Elec       q    Type
REMARK                         _______ _______ _______ _____ _____    ______ ____
ROOT
ATOM      1  O   UNL     1      34.636 -20.813 -18.660  0.00  0.00    -0.424 OA
ATOM      2  N   UNL     1      34.041 -22.164 -16.899  0.00  0.00    -0.265 N 
ATOM      3  N   UNL     1      32.492 -21.533 -18.629  0.00  0.00    -0.193 NA
ATOM      4  C   UNL     1      33.665 -21.538 -18.038  0.00  0.00    +0.293 C 
ATOM      5  C   UNL     1      34.001 -20.302 -19.752  0.00  0.00    +0.168 C 
ATOM      6  C   UNL     1      32.701 -20.741 -19.729  0.00  0.00    +0.141 C 
ATOM      7  H   UNL     1      34.981 -22.026 -16.642  0.00  0.00    +0.157 HD
ENDROOT
BRANCH   2  11
ATOM      8  C   UNL     1      31.165 -23.614 -15.052  0.00  0.00    +0.123 C 
ATOM      9  C   UNL     1      31.911 -22.814 -15.919  0.00  0.00    +0.038 C 
ATOM     10  C   UNL     1      31.800 -24.588 -14.281  0.00  0.00    +0.023 C 
ATOM     11  C   UNL     1      33.292 -22.989 -16.013  0.00  0.00    +0.087 C 
ATOM     12  C   UNL     1      33.181 -24.762 -14.376  0.00  0.00    +0.040 C 
ATOM     13  C   UNL     1      33.927 -23.962 -15.243  0.00  0.00    +0.152 C 
BRANCH   8  14
ATOM     14  S   UNL     1      29.437 -23.395 -14.929  0.00  0.00    +0.060 S 
ATOM     15  O   UNL     1      28.824 -24.674 -14.597  0.00  0.00    -0.153 OA
ATOM     16  O   UNL     1      29.195 -22.243 -14.071  0.00  0.00    -0.153 OA
BRANCH  14  17
ATOM     17  N   UNL     1      29.004 -22.980 -16.530  0.00  0.00    -0.179 NA
ATOM     18  H   UNL     1      29.457 -23.658 -17.143  0.00  0.00    +0.149 HD
BRANCH  17  19
ATOM     19  C   UNL     1      27.587 -22.937 -16.917  0.00  0.00    +0.091 C 
BRANCH  19  20
ATOM     20  C   UNL     1      26.987 -21.612 -16.583  0.00  0.00    +0.017 C 
ATOM     21  C   UNL     1      25.749 -21.164 -17.305  0.00  0.00    +0.001 C 
ATOM     22  C   UNL     1      25.673 -21.563 -15.861  0.00  0.00    +0.001 C 
ENDBRANCH  19  20
ENDBRANCH  17  19
ENDBRANCH  14  17
ENDBRANCH   8  14
BRANCH  13  23
ATOM     23  O   UNL     1      35.275 -24.147 -15.320  0.00  0.00    -0.470 OA
ATOM     24  C   UNL     1      35.813 -25.280 -14.640  0.00  0.00    +0.253 C 
ENDBRANCH  13  23
ENDBRANCH   2  11
BRANCH   5  25
ATOM     25  C   UNL     1      34.794 -19.470 -20.623  0.00  0.00    +0.036 C 
ATOM     26  C   UNL     1      34.944 -17.721 -22.283  0.00  0.00    +0.002 C 
ATOM     27  C   UNL     1      34.176 -18.525 -21.441  0.00  0.00    +0.003 C 
ATOM     28  C   UNL     1      36.183 -19.610 -20.646  0.00  0.00    +0.003 C 
ATOM     29  C   UNL     1      36.332 -17.862 -22.306  0.00  0.00    +0.000 C 
ATOM     30  C   UNL     1      36.951 -18.806 -21.487  0.00  0.00    +0.000 C 
BRANCH  26  32
ATOM     31  N   UNL     1      33.090 -16.248 -25.165  0.00  0.00    -0.242 NA
ATOM     32  C   UNL     1      34.302 -16.741 -23.132  0.00  0.00    +0.019 C 
ATOM     33  C   UNL     1      34.263 -15.398 -22.776  0.00  0.00    +0.003 C 
ATOM     34  C   UNL     1      33.705 -17.112 -24.327  0.00  0.00    +0.099 C 
ATOM     35  C   UNL     1      33.640 -14.480 -23.613  0.00  0.00    +0.021 C 
ATOM     36  C   UNL     1      33.073 -14.952 -24.785  0.00  0.00    +0.099 C 
ENDBRANCH  26  32
ENDBRANCH   5  25
TORSDOF 8
ENDMDL
MODEL 5
REMARK VINA RESULT:     -11.9      1.632      2.118
REMARK  Name = 4369498
REMARK  8 active torsions:
REMARK  status: ('A' for Active; 'I' for Inactive)
REMARK    1  A    between atoms: N_2  and  C_11
REMARK    2  A    between atoms: C_5  and  C_25
REMARK    3  A    between atoms: C_8  and  S_14
REMARK    4  A    between atoms: C_13  and  O_23
REMARK    5  A    between atoms: S_14  and  N_17
REMARK    6  A    between atoms: N_17  and  C_19
REMARK    7  A    between atoms: C_19  and  C_20
REMARK    8  A    between atoms: C_26  and  C_32
REMARK                            x       y       z     vdW  Elec       q    Type
REMARK                         _______ _______ _______ _____ _____    ______ ____
ROOT
ATOM      1  O   UNL     1      32.988 -20.458 -19.544  0.00  0.00    -0.424 OA
ATOM      2  N   UNL     1      32.068 -21.613 -17.784  0.00  0.00    -0.265 N 
ATOM      3  N   UNL     1      34.434 -21.586 -18.221  0.00  0.00    -0.193 NA
ATOM      4  C   UNL     1      33.184 -21.261 -18.462  0.00  0.00    +0.293 C 
ATOM      5  C   UNL     1      34.247 -20.262 -20.028  0.00  0.00    +0.168 C 
ATOM      6  C   UNL     1      35.120 -20.949 -19.222  0.00  0.00    +0.141 C 
ATOM      7  H   UNL     1      31.230 -21.248 -18.148  0.00  0.00    +0.157 HD
ENDROOT
BRANCH   2  11
ATOM      8  C   UNL     1      32.888 -23.499 -14.693  0.00  0.00    +0.123 C 
ATOM      9  C   UNL     1      33.024 -22.699 -15.828  0.00  0.00    +0.038 C 
ATOM     10  C   UNL     1      31.641 -24.027 -14.358  0.00  0.00    +0.023 C 
ATOM     11  C   UNL     1      31.914 -22.428 -16.627  0.00  0.00    +0.087 C 
ATOM     12  C   UNL     1      30.530 -23.756 -15.158  0.00  0.00    +0.040 C 
ATOM     13  C   UNL     1      30.667 -22.957 -16.292  0.00  0.00    +0.152 C 
BRANCH   8  14
ATOM     14  S   UNL     1      34.278 -23.842 -13.693  0.00  0.00    +0.060 S 
ATOM     15  O   UNL     1      35.269 -22.792 -13.891  0.00  0.00    -0.153 OA
ATOM     16  O   UNL     1      33.797 -24.126 -12.347  0.00  0.00    -0.153 OA
BRANCH  14  17
ATOM     17  N   UNL     1      34.873 -25.292 -14.375  0.00  0.00    -0.179 NA
ATOM     18  H   UNL     1      34.287 -25.500 -15.183  0.00  0.00    +0.149 HD
BRANCH  17  19
ATOM     19  C   UNL     1      36.269 -25.366 -14.832  0.00  0.00    +0.091 C 
BRANCH  19  20
ATOM     20  C   UNL     1      37.105 -26.126 -13.857  0.00  0.00    +0.017 C 
ATOM     21  C   UNL     1      38.231 -25.425 -13.154  0.00  0.00    +0.001 C 
ATOM     22  C   UNL     1      36.996 -25.809 -12.394  0.00  0.00    +0.001 C 
ENDBRANCH  19  20
ENDBRANCH  17  19
ENDBRANCH  14  17
ENDBRANCH   8  14
BRANCH  13  23
ATOM     23  O   UNL     1      29.571 -22.705 -17.061  0.00  0.00    -0.470 OA
ATOM     24  C   UNL     1      28.296 -22.838 -16.435  0.00  0.00    +0.253 C 
ENDBRANCH  13  23
ENDBRANCH   2  11
BRANCH   5  25
ATOM     25  C   UNL     1      34.359 -19.432 -21.202  0.00  0.00    +0.036 C 
ATOM     26  C   UNL     1      34.337 -17.246 -22.230  0.00  0.00    +0.002 C 
ATOM     27  C   UNL     1      34.227 -18.048 -21.095  0.00  0.00    +0.003 C 
ATOM     28  C   UNL     1      34.603 -20.014 -22.446  0.00  0.00    +0.003 C 
ATOM     29  C   UNL     1      34.580 -17.829 -23.474  0.00  0.00    +0.000 C 
ATOM     30  C   UNL     1      34.713 -19.213 -23.582  0.00  0.00    +0.000 C 
BRANCH  26  32
ATOM     31  N   UNL     1      34.138 -13.651 -23.204  0.00  0.00    -0.242 NA
ATOM     32  C   UNL     1      34.199 -15.810 -22.118  0.00  0.00    +0.019 C 
ATOM     33  C   UNL     1      34.001 -15.202 -20.884  0.00  0.00    +0.003 C 
ATOM     34  C   UNL     1      34.259 -14.996 -23.239  0.00  0.00    +0.099 C 
ATOM     35  C   UNL     1      33.872 -13.820 -20.808  0.00  0.00    +0.021 C 
ATOM     36  C   UNL     1      33.947 -13.096 -21.988  0.00  0.00    +0.099 C 
ENDBRANCH  26  32
ENDBRANCH   5  25
TORSDOF 8
ENDMDL
MODEL 6
REMARK VINA RESULT:     -11.7      8.097     14.979
REMARK  Name = 4369498
REMARK  8 active torsions:
REMARK  status: ('A' for Active; 'I' for Inactive)
REMARK    1  A    between atoms: N_2  and  C_11
REMARK    2  A    between atoms: C_5  and  C_25
REMARK    3  A    between atoms: C_8  and  S_14
REMARK    4  A    between atoms: C_13  and  O_23
REMARK    5  A    between atoms: S_14  and  N_17
REMARK    6  A    between atoms: N_17  and  C_19
REMARK    7  A    between atoms: C_19  and  C_20
REMARK    8  A    between atoms: C_26  and  C_32
REMARK                            x       y       z     vdW  Elec       q    Type
REMARK                         _______ _______ _______ _____ _____    ______ ____
ROOT
ATOM      1  O   UNL     1      32.827 -10.719 -23.168  0.00  0.00    -0.424 OA
ATOM      2  N   UNL     1      32.562  -8.538 -22.496  0.00  0.00    -0.265 N 
ATOM      3  N   UNL     1      31.086 -10.301 -21.787  0.00  0.00    -0.193 NA
ATOM      4  C   UNL     1      32.114  -9.814 -22.443  0.00  0.00    +0.293 C 
ATOM      5  C   UNL     1      32.174 -11.894 -22.941  0.00  0.00    +0.168 C 
ATOM      6  C   UNL     1      31.119 -11.635 -22.103  0.00  0.00    +0.141 C 
ATOM      7  H   UNL     1      33.359  -8.402 -23.057  0.00  0.00    +0.157 HD
ENDROOT
BRANCH   2  11
ATOM      8  C   UNL     1      31.144  -5.135 -22.061  0.00  0.00    +0.123 C 
ATOM      9  C   UNL     1      31.634  -6.296 -22.661  0.00  0.00    +0.038 C 
ATOM     10  C   UNL     1      31.083  -5.041 -20.671  0.00  0.00    +0.023 C 
ATOM     11  C   UNL     1      32.062  -7.361 -21.871  0.00  0.00    +0.087 C 
ATOM     12  C   UNL     1      31.512  -6.108 -19.880  0.00  0.00    +0.040 C 
ATOM     13  C   UNL     1      32.001  -7.268 -20.480  0.00  0.00    +0.152 C 
BRANCH   8  14
ATOM     14  S   UNL     1      30.611  -3.798 -23.050  0.00  0.00    +0.060 S 
ATOM     15  O   UNL     1      29.904  -4.325 -24.210  0.00  0.00    -0.153 OA
ATOM     16  O   UNL     1      29.939  -2.842 -22.179  0.00  0.00    -0.153 OA
BRANCH  14  17
ATOM     17  N   UNL     1      32.088  -3.114 -23.572  0.00  0.00    -0.179 NA
ATOM     18  H   UNL     1      32.788  -3.354 -22.871  0.00  0.00    +0.149 HD
BRANCH  17  19
ATOM     19  C   UNL     1      32.647  -3.492 -24.879  0.00  0.00    +0.091 C 
BRANCH  19  20
ATOM     20  C   UNL     1      33.864  -4.337 -24.708  0.00  0.00    +0.017 C 
ATOM     21  C   UNL     1      34.000  -5.599 -25.511  0.00  0.00    +0.001 C 
ATOM     22  C   UNL     1      34.866  -4.415 -25.823  0.00  0.00    +0.001 C 
ENDBRANCH  19  20
ENDBRANCH  17  19
ENDBRANCH  14  17
ENDBRANCH   8  14
BRANCH  13  23
ATOM     23  O   UNL     1      32.416  -8.298 -19.690  0.00  0.00    -0.470 OA
ATOM     24  C   UNL     1      31.420  -8.958 -18.911  0.00  0.00    +0.253 C 
ENDBRANCH  13  23
ENDBRANCH   2  11
BRANCH   5  25
ATOM     25  C   UNL     1      32.711 -13.062 -23.595  0.00  0.00    +0.036 C 
ATOM     26  C   UNL     1      33.766 -15.232 -23.470  0.00  0.00    +0.002 C 
ATOM     27  C   UNL     1      33.248 -14.102 -22.837  0.00  0.00    +0.003 C 
ATOM     28  C   UNL     1      32.692 -13.152 -24.987  0.00  0.00    +0.003 C 
ATOM     29  C   UNL     1      33.748 -15.320 -24.862  0.00  0.00    +0.000 C 
ATOM     30  C   UNL     1      33.210 -14.281 -25.621  0.00  0.00    +0.000 C 
BRANCH  26  32
ATOM     31  N   UNL     1      35.119 -17.109 -20.545  0.00  0.00    -0.242 NA
ATOM     32  C   UNL     1      34.324 -16.310 -22.684  0.00  0.00    +0.019 C 
ATOM     33  C   UNL     1      34.602 -17.546 -23.256  0.00  0.00    +0.003 C 
ATOM     34  C   UNL     1      34.599 -16.144 -21.335  0.00  0.00    +0.099 C 
ATOM     35  C   UNL     1      35.138 -18.563 -22.475  0.00  0.00    +0.021 C 
ATOM     36  C   UNL     1      35.376 -18.296 -21.136  0.00  0.00    +0.099 C 
ENDBRANCH  26  32
ENDBRANCH   5  25
TORSDOF 8
ENDMDL
MODEL 7
REMARK VINA RESULT:     -11.6      2.097      5.140
REMARK  Name = 4369498
REMARK  8 active torsions:
REMARK  status: ('A' for Active; 'I' for Inactive)
REMARK    1  A    between atoms: N_2  and  C_11
REMARK    2  A    between atoms: C_5  and  C_25
REMARK    3  A    between atoms: C_8  and  S_14
REMARK    4  A    between atoms: C_13  and  O_23
REMARK    5  A    between atoms: S_14  and  N_17
REMARK    6  A    between atoms: N_17  and  C_19
REMARK    7  A    between atoms: C_19  and  C_20
REMARK    8  A    between atoms: C_26  and  C_32
REMARK                            x       y       z     vdW  Elec       q    Type
REMARK                         _______ _______ _______ _____ _____    ______ ____
ROOT
ATOM      1  O   UNL     1      35.052 -20.466 -19.068  0.00  0.00    -0.424 OA
ATOM      2  N   UNL     1      35.306 -21.655 -17.119  0.00  0.00    -0.265 N 
ATOM      3  N   UNL     1      33.251 -21.643 -18.370  0.00  0.00    -0.193 NA
ATOM      4  C   UNL     1      34.498 -21.298 -18.143  0.00  0.00    +0.293 C 
ATOM      5  C   UNL     1      34.045 -20.272 -19.965  0.00  0.00    +0.168 C 
ATOM      6  C   UNL     1      32.955 -20.988 -19.537  0.00  0.00    +0.141 C 
ATOM      7  H   UNL     1      36.213 -21.273 -17.153  0.00  0.00    +0.157 HD
ENDROOT
BRANCH   2  11
ATOM      8  C   UNL     1      33.479 -23.502 -14.466  0.00  0.00    +0.123 C 
ATOM      9  C   UNL     1      33.741 -22.683 -15.566  0.00  0.00    +0.038 C 
ATOM     10  C   UNL     1      34.530 -24.133 -13.802  0.00  0.00    +0.023 C 
ATOM     11  C   UNL     1      35.053 -22.496 -15.998  0.00  0.00    +0.087 C 
ATOM     12  C   UNL     1      35.843 -23.946 -14.235  0.00  0.00    +0.040 C 
ATOM     13  C   UNL     1      36.104 -23.127 -15.333  0.00  0.00    +0.152 C 
BRANCH   8  14
ATOM     14  S   UNL     1      31.836 -23.734 -13.921  0.00  0.00    +0.060 S 
ATOM     15  O   UNL     1      31.599 -25.161 -13.741  0.00  0.00    -0.153 OA
ATOM     16  O   UNL     1      31.606 -22.826 -12.806  0.00  0.00    -0.153 OA
BRANCH  14  17
ATOM     17  N   UNL     1      30.924 -23.193 -15.261  0.00  0.00    -0.179 NA
ATOM     18  H   UNL     1      31.384 -23.554 -16.097  0.00  0.00    +0.149 HD
BRANCH  17  19
ATOM     19  C   UNL     1      29.502 -23.551 -15.371  0.00  0.00    +0.091 C 
BRANCH  19  20
ATOM     20  C   UNL     1      28.733 -22.464 -16.046  0.00  0.00    +0.017 C 
ATOM     21  C   UNL     1      27.519 -22.818 -16.854  0.00  0.00    +0.001 C 
ATOM     22  C   UNL     1      27.365 -22.111 -15.540  0.00  0.00    +0.001 C 
ENDBRANCH  19  20
ENDBRANCH  17  19
ENDBRANCH  14  17
ENDBRANCH   8  14
BRANCH  13  23
ATOM     23  O   UNL     1      37.394 -22.956 -15.740  0.00  0.00    -0.470 OA
ATOM     24  C   UNL     1      38.401 -23.646 -15.003  0.00  0.00    +0.253 C 
ENDBRANCH  13  23
ENDBRANCH   2  11
BRANCH   5  25
ATOM     25  C   UNL     1      34.341 -19.413 -21.085  0.00  0.00    +0.036 C 
ATOM     26  C   UNL     1      34.433 -17.205 -22.063  0.00  0.00    +0.002 C 
ATOM     27  C   UNL     1      34.146 -18.036 -20.980  0.00  0.00    +0.003 C 
ATOM     28  C   UNL     1      34.824 -19.960 -22.274  0.00  0.00    +0.003 C 
ATOM     29  C   UNL     1      34.916 -17.753 -23.252  0.00  0.00    +0.000 C 
ATOM     30  C   UNL     1      35.112 -19.130 -23.358  0.00  0.00    +0.000 C 
BRANCH  26  32
ATOM     31  N   UNL     1      34.094 -13.622 -23.042  0.00  0.00    -0.242 NA
ATOM     32  C   UNL     1      34.230 -15.778 -21.954  0.00  0.00    +0.019 C 
ATOM     33  C   UNL     1      33.983 -15.179 -20.724  0.00  0.00    +0.003 C 
ATOM     34  C   UNL     1      34.275 -14.961 -23.074  0.00  0.00    +0.099 C 
ATOM     35  C   UNL     1      33.792 -13.804 -20.651  0.00  0.00    +0.021 C 
ATOM     36  C   UNL     1      33.857 -13.077 -21.829  0.00  0.00    +0.099 C 
ENDBRANCH  26  32
ENDBRANCH   5  25
TORSDOF 8
ENDMDL
MODEL 8
REMARK VINA RESULT:     -11.5      3.675      5.912
REMARK  Name = 4369498
REMARK  8 active torsions:
REMARK  status: ('A' for Active; 'I' for Inactive)
REMARK    1  A    between atoms: N_2  and  C_11
REMARK    2  A    between atoms: C_5  and  C_25
REMARK    3  A    between atoms: C_8  and  S_14
REMARK    4  A    between atoms: C_13  and  O_23
REMARK    5  A    between atoms: S_14  and  N_17
REMARK    6  A    between atoms: N_17  and  C_19
REMARK    7  A    between atoms: C_19  and  C_20
REMARK    8  A    between atoms: C_26  and  C_32
REMARK                            x       y       z     vdW  Elec       q    Type
REMARK                         _______ _______ _______ _____ _____    ______ ____
ROOT
ATOM      1  O   UNL     1      33.867 -16.162 -22.530  0.00  0.00    -0.424 OA
ATOM      2  N   UNL     1      34.421 -18.185 -21.591  0.00  0.00    -0.265 N 
ATOM      3  N   UNL     1      34.475 -16.123 -20.352  0.00  0.00    -0.193 NA
ATOM      4  C   UNL     1      34.276 -16.850 -21.428  0.00  0.00    +0.293 C 
ATOM      5  C   UNL     1      33.805 -14.872 -22.096  0.00  0.00    +0.168 C 
ATOM      6  C   UNL     1      34.175 -14.854 -20.774  0.00  0.00    +0.141 C 
ATOM      7  H   UNL     1      34.213 -18.517 -22.495  0.00  0.00    +0.157 HD
ENDROOT
BRANCH   2  11
ATOM      8  C   UNL     1      34.273 -21.094 -19.290  0.00  0.00    +0.123 C 
ATOM      9  C   UNL     1      33.889 -20.109 -20.201  0.00  0.00    +0.038 C 
ATOM     10  C   UNL     1      35.593 -21.155 -18.844  0.00  0.00    +0.023 C 
ATOM     11  C   UNL     1      34.826 -19.186 -20.664  0.00  0.00    +0.087 C 
ATOM     12  C   UNL     1      36.530 -20.231 -19.307  0.00  0.00    +0.040 C 
ATOM     13  C   UNL     1      36.147 -19.247 -20.218  0.00  0.00    +0.152 C 
BRANCH   8  14
ATOM     14  S   UNL     1      33.100 -22.249 -18.706  0.00  0.00    +0.060 S 
ATOM     15  O   UNL     1      31.796 -21.601 -18.639  0.00  0.00    -0.153 OA
ATOM     16  O   UNL     1      33.251 -23.469 -19.488  0.00  0.00    -0.153 OA
BRANCH  14  17
ATOM     17  N   UNL     1      33.643 -22.552 -17.114  0.00  0.00    -0.179 NA
ATOM     18  H   UNL     1      33.801 -21.643 -16.679  0.00  0.00    +0.149 HD
BRANCH  17  19
ATOM     19  C   UNL     1      32.801 -23.324 -16.189  0.00  0.00    +0.091 C 
BRANCH  19  20
ATOM     20  C   UNL     1      32.354 -22.476 -15.046  0.00  0.00    +0.017 C 
ATOM     21  C   UNL     1      30.898 -22.445 -14.680  0.00  0.00    +0.001 C 
ATOM     22  C   UNL     1      31.883 -23.135 -13.782  0.00  0.00    +0.001 C 
ENDBRANCH  19  20
ENDBRANCH  17  19
ENDBRANCH  14  17
ENDBRANCH   8  14
BRANCH  13  23
ATOM     23  O   UNL     1      37.077 -18.353 -20.658  0.00  0.00    -0.470 OA
ATOM     24  C   UNL     1      37.272 -18.263 -22.067  0.00  0.00    +0.253 C 
ENDBRANCH  13  23
ENDBRANCH   2  11
BRANCH   5  25
ATOM     25  C   UNL     1      33.392 -13.889 -23.066  0.00  0.00    +0.036 C 
ATOM     26  C   UNL     1      32.804 -11.611 -23.619  0.00  0.00    +0.002 C 
ATOM     27  C   UNL     1      33.203 -12.562 -22.680  0.00  0.00    +0.003 C 
ATOM     28  C   UNL     1      33.182 -14.264 -24.393  0.00  0.00    +0.003 C 
ATOM     29  C   UNL     1      32.594 -11.988 -24.945  0.00  0.00    +0.000 C 
ATOM     30  C   UNL     1      32.783 -13.315 -25.333  0.00  0.00    +0.000 C 
BRANCH  26  32
ATOM     31  N   UNL     1      31.229  -8.583 -22.115  0.00  0.00    -0.242 NA
ATOM     32  C   UNL     1      32.607 -10.236 -23.217  0.00  0.00    +0.019 C 
ATOM     33  C   UNL     1      33.549  -9.258 -23.520  0.00  0.00    +0.003 C 
ATOM     34  C   UNL     1      31.474  -9.849 -22.519  0.00  0.00    +0.099 C 
ATOM     35  C   UNL     1      33.331  -7.944 -23.121  0.00  0.00    +0.021 C 
ATOM     36  C   UNL     1      32.166  -7.661 -22.427  0.00  0.00    +0.099 C 
ENDBRANCH  26  32
ENDBRANCH   5  25
TORSDOF 8
ENDMDL
MODEL 9
REMARK VINA RESULT:     -11.0      6.696     14.056
REMARK  Name = 4369498
REMARK  8 active torsions:
REMARK  status: ('A' for Active; 'I' for Inactive)
REMARK    1  A    between atoms: N_2  and  C_11
REMARK    2  A    between atoms: C_5  and  C_25
REMARK    3  A    between atoms: C_8  and  S_14
REMARK    4  A    between atoms: C_13  and  O_23
REMARK    5  A    between atoms: S_14  and  N_17
REMARK    6  A    between atoms: N_17  and  C_19
REMARK    7  A    between atoms: C_19  and  C_20
REMARK    8  A    between atoms: C_26  and  C_32
REMARK                            x       y       z     vdW  Elec       q    Type
REMARK                         _______ _______ _______ _____ _____    ______ ____
ROOT
ATOM      1  O   UNL     1      32.988 -13.495 -23.104  0.00  0.00    -0.424 OA
ATOM      2  N   UNL     1      32.290 -11.306 -23.128  0.00  0.00    -0.265 N 
ATOM      3  N   UNL     1      33.692 -12.200 -21.389  0.00  0.00    -0.193 NA
ATOM      4  C   UNL     1      32.997 -12.274 -22.501  0.00  0.00    +0.293 C 
ATOM      5  C   UNL     1      33.758 -14.262 -22.282  0.00  0.00    +0.168 C 
ATOM      6  C   UNL     1      34.182 -13.472 -21.244  0.00  0.00    +0.141 C 
ATOM      7  H   UNL     1      31.843 -11.591 -23.958  0.00  0.00    +0.157 HD
ENDROOT
BRANCH   2  11
ATOM      8  C   UNL     1      32.322  -7.599 -23.323  0.00  0.00    +0.123 C 
ATOM      9  C   UNL     1      32.510  -8.942 -23.654  0.00  0.00    +0.038 C 
ATOM     10  C   UNL     1      31.712  -7.258 -22.115  0.00  0.00    +0.023 C 
ATOM     11  C   UNL     1      32.089  -9.941 -22.778  0.00  0.00    +0.087 C 
ATOM     12  C   UNL     1      31.291  -8.259 -21.239  0.00  0.00    +0.040 C 
ATOM     13  C   UNL     1      31.479  -9.600 -21.571  0.00  0.00    +0.152 C 
BRANCH   8  14
ATOM     14  S   UNL     1      32.852  -6.346 -24.417  0.00  0.00    +0.060 S 
ATOM     15  O   UNL     1      34.200  -6.661 -24.874  0.00  0.00    -0.153 OA
ATOM     16  O   UNL     1      31.796  -6.137 -25.398  0.00  0.00    -0.153 OA
BRANCH  14  17
ATOM     17  N   UNL     1      32.927  -4.975 -23.398  0.00  0.00    -0.179 NA
ATOM     18  H   UNL     1      33.854  -4.567 -23.520  0.00  0.00    +0.149 HD
BRANCH  17  19
ATOM     19  C   UNL     1      31.957  -3.884 -23.567  0.00  0.00    +0.091 C 
BRANCH  19  20
ATOM     20  C   UNL     1      31.379  -3.481 -22.252  0.00  0.00    +0.017 C 
ATOM     21  C   UNL     1      30.115  -2.672 -22.222  0.00  0.00    +0.001 C 
ATOM     22  C   UNL     1      30.097  -4.109 -21.790  0.00  0.00    +0.001 C 
ENDBRANCH  19  20
ENDBRANCH  17  19
ENDBRANCH  14  17
ENDBRANCH   8  14
BRANCH  13  23
ATOM     23  O   UNL     1      31.062 -10.563 -20.701  0.00  0.00    -0.470 OA
ATOM     24  C   UNL     1      31.349 -10.355 -19.319  0.00  0.00    +0.253 C 
ENDBRANCH  13  23
ENDBRANCH   2  11
BRANCH   5  25
ATOM     25  C   UNL     1      33.935 -15.639 -22.671  0.00  0.00    +0.036 C 
ATOM     26  C   UNL     1      34.408 -17.936 -22.087  0.00  0.00    +0.002 C 
ATOM     27  C   UNL     1      34.237 -16.604 -21.711  0.00  0.00    +0.003 C 
ATOM     28  C   UNL     1      33.802 -16.008 -24.011  0.00  0.00    +0.003 C 
ATOM     29  C   UNL     1      34.276 -18.303 -23.427  0.00  0.00    +0.000 C 
ATOM     30  C   UNL     1      33.972 -17.339 -24.388  0.00  0.00    +0.000 C 
BRANCH  26  32
ATOM     31  N   UNL     1      36.364 -19.960 -19.640  0.00  0.00    -0.242 NA
ATOM     32  C   UNL     1      34.723 -18.935 -21.091  0.00  0.00    +0.019 C 
ATOM     33  C   UNL     1      33.752 -19.813 -20.623  0.00  0.00    +0.003 C 
ATOM     34  C   UNL     1      36.003 -19.049 -20.571  0.00  0.00    +0.099 C 
ATOM     35  C   UNL     1      34.085 -20.764 -19.665  0.00  0.00    +0.021 C 
ATOM     36  C   UNL     1      35.393 -20.795 -19.210  0.00  0.00    +0.099 C 
ENDBRANCH  26  32
ENDBRANCH   5  25
TORSDOF 8
ENDMDL
