MODEL 1
REMARK VINA RESULT:     -11.7      0.000      0.000
REMARK  Name = 108144
REMARK  6 active torsions:
REMARK  status: ('A' for Active; 'I' for Inactive)
REMARK    1  A    between atoms: C_3  and  C_18
REMARK    2  A    between atoms: C_4  and  C_10
REMARK    3  A    between atoms: C_10  and  C_12
REMARK    4  A    between atoms: C_18  and  N_19
REMARK    5  A    between atoms: C_22  and  N_29
REMARK    6  A    between atoms: C_23  and  C_26
REMARK                            x       y       z     vdW  Elec       q    Type
REMARK                         _______ _______ _______ _____ _____    ______ ____
ROOT
ATOM      1 CL   UNL     1      32.135 -19.901 -20.992  0.00  0.00    -0.082 Cl
ATOM      2 CL   UNL     1      37.274 -18.255 -21.822  0.00  0.00    -0.082 Cl
ATOM      3  C   UNL     1      35.575 -20.632 -19.105  0.00  0.00    -0.003 C 
ATOM      4  C   UNL     1      34.750 -19.160 -21.286  0.00  0.00    +0.060 C 
ATOM      5  C   UNL     1      34.229 -20.624 -19.472  0.00  0.00    +0.009 C 
ATOM      6  C   UNL     1      36.503 -19.896 -19.841  0.00  0.00    +0.009 C 
ATOM      7  C   UNL     1      33.812 -19.880 -20.576  0.00  0.00    +0.061 C 
ATOM      8  C   UNL     1      36.086 -19.151 -20.944  0.00  0.00    +0.061 C 
ENDROOT
BRANCH   4  10
ATOM      9  O   UNL     1      34.043 -18.985 -23.508  0.00  0.00    -0.287 OA
ATOM     10  C   UNL     1      34.304 -18.362 -22.469  0.00  0.00    +0.197 C 
BRANCH  10  12
ATOM     11 CL   UNL     1      33.768 -12.424 -22.303  0.00  0.00    -0.082 Cl
ATOM     12  C   UNL     1      34.176 -16.914 -22.428  0.00  0.00    +0.039 C 
ATOM     13  C   UNL     1      34.206 -16.245 -21.205  0.00  0.00    +0.004 C 
ATOM     14  C   UNL     1      34.018 -16.195 -23.613  0.00  0.00    +0.004 C 
ATOM     15  C   UNL     1      34.080 -14.857 -21.167  0.00  0.00    +0.011 C 
ATOM     16  C   UNL     1      33.892 -14.806 -23.574  0.00  0.00    +0.011 C 
ATOM     17  C   UNL     1      33.923 -14.137 -22.351  0.00  0.00    +0.058 C 
ENDBRANCH  10  12
ENDBRANCH   4  10
BRANCH   3  18
ATOM     18  C   UNL     1      36.020 -21.428 -17.926  0.00  0.00    +0.124 C 
BRANCH  18  19
ATOM     19  N   UNL     1      34.910 -22.163 -17.310  0.00  0.00    -0.146 NA
ATOM     20  N   UNL     1      33.974 -22.694 -18.093  0.00  0.00    -0.061 NA
ATOM     21  N   UNL     1      33.103 -23.289 -17.285  0.00  0.00    -0.144 NA
ATOM     22  C   UNL     1      34.695 -22.381 -15.999  0.00  0.00    +0.179 C 
ATOM     23  C   UNL     1      33.530 -23.107 -16.000  0.00  0.00    +0.163 C 
BRANCH  23  26
ATOM     24  O   UNL     1      31.585 -23.536 -14.727  0.00  0.00    -0.269 OA
ATOM     25  N   UNL     1      33.568 -24.265 -13.873  0.00  0.00    -0.324 N 
ATOM     26  C   UNL     1      32.825 -23.618 -14.865  0.00  0.00    +0.261 C 
ATOM     27  H   UNL     1      33.116 -24.629 -13.078  0.00  0.00    +0.145 HD
ATOM     28  H   UNL     1      34.544 -24.355 -13.968  0.00  0.00    +0.145 HD
ENDBRANCH  23  26
BRANCH  22  29
ATOM     29  N   UNL     1      35.515 -21.932 -15.029  0.00  0.00    -0.303 NA
ATOM     30  H   UNL     1      36.235 -21.297 -15.248  0.00  0.00    +0.120 HD
ATOM     31  H   UNL     1      35.395 -22.239 -14.102  0.00  0.00    +0.120 HD
ENDBRANCH  22  29
ENDBRANCH  18  19
ENDBRANCH   3  18
TORSDOF 6
ENDMDL
MODEL 2
REMARK VINA RESULT:     -11.5      4.424      8.278
REMARK  Name = 108144
REMARK  6 active torsions:
REMARK  status: ('A' for Active; 'I' for Inactive)
REMARK    1  A    between atoms: C_3  and  C_18
REMARK    2  A    between atoms: C_4  and  C_10
REMARK    3  A    between atoms: C_10  and  C_12
REMARK    4  A    between atoms: C_18  and  N_19
REMARK    5  A    between atoms: C_22  and  N_29
REMARK    6  A    between atoms: C_23  and  C_26
REMARK                            x       y       z     vdW  Elec       q    Type
REMARK                         _______ _______ _______ _____ _____    ______ ____
ROOT
ATOM      1 CL   UNL     1      31.690 -20.696 -20.630  0.00  0.00    -0.082 Cl
ATOM      2 CL   UNL     1      36.459 -21.872 -18.246  0.00  0.00    -0.082 Cl
ATOM      3  C   UNL     1      35.269 -18.931 -20.665  0.00  0.00    -0.003 C 
ATOM      4  C   UNL     1      34.137 -21.160 -19.503  0.00  0.00    +0.060 C 
ATOM      5  C   UNL     1      33.928 -19.234 -20.899  0.00  0.00    +0.009 C 
ATOM      6  C   UNL     1      36.038 -19.755 -19.843  0.00  0.00    +0.009 C 
ATOM      7  C   UNL     1      33.355 -20.362 -20.310  0.00  0.00    +0.061 C 
ATOM      8  C   UNL     1      35.465 -20.882 -19.255  0.00  0.00    +0.061 C 
ENDROOT
BRANCH   4  10
ATOM      9  O   UNL     1      33.422 -23.385 -19.573  0.00  0.00    -0.287 OA
ATOM     10  C   UNL     1      33.525 -22.368 -18.871  0.00  0.00    +0.197 C 
BRANCH  10  12
ATOM     11 CL   UNL     1      31.616 -22.412 -13.220  0.00  0.00    -0.082 Cl
ATOM     12  C   UNL     1      33.060 -22.377 -17.494  0.00  0.00    +0.039 C 
ATOM     13  C   UNL     1      33.974 -22.513 -16.450  0.00  0.00    +0.004 C 
ATOM     14  C   UNL     1      31.698 -22.253 -17.217  0.00  0.00    +0.004 C 
ATOM     15  C   UNL     1      33.527 -22.523 -15.129  0.00  0.00    +0.011 C 
ATOM     16  C   UNL     1      31.251 -22.264 -15.895  0.00  0.00    +0.011 C 
ATOM     17  C   UNL     1      32.166 -22.399 -14.851  0.00  0.00    +0.058 C 
ENDBRANCH  10  12
ENDBRANCH   4  10
BRANCH   3  18
ATOM     18  C   UNL     1      35.881 -17.725 -21.294  0.00  0.00    +0.124 C 
BRANCH  18  19
ATOM     19  N   UNL     1      34.985 -16.565 -21.241  0.00  0.00    -0.146 NA
ATOM     20  N   UNL     1      34.523 -16.159 -20.061  0.00  0.00    -0.061 NA
ATOM     21  N   UNL     1      33.745 -15.110 -20.304  0.00  0.00    -0.144 NA
ATOM     22  C   UNL     1      34.540 -15.822 -22.272  0.00  0.00    +0.179 C 
ATOM     23  C   UNL     1      33.745 -14.891 -21.653  0.00  0.00    +0.163 C 
BRANCH  23  26
ATOM     24  O   UNL     1      32.562 -12.844 -21.646  0.00  0.00    -0.269 OA
ATOM     25  N   UNL     1      32.791 -13.905 -23.650  0.00  0.00    -0.324 N 
ATOM     26  C   UNL     1      33.005 -13.833 -22.270  0.00  0.00    +0.261 C 
ATOM     27  H   UNL     1      32.286 -13.195 -24.108  0.00  0.00    +0.145 HD
ATOM     28  H   UNL     1      33.145 -14.667 -24.164  0.00  0.00    +0.145 HD
ENDBRANCH  23  26
BRANCH  22  29
ATOM     29  N   UNL     1      34.879 -16.056 -23.555  0.00  0.00    -0.303 NA
ATOM     30  H   UNL     1      35.762 -16.436 -23.769  0.00  0.00    +0.120 HD
ATOM     31  H   UNL     1      34.245 -15.847 -24.278  0.00  0.00    +0.120 HD
ENDBRANCH  22  29
ENDBRANCH  18  19
ENDBRANCH   3  18
TORSDOF 6
ENDMDL
MODEL 3
REMARK VINA RESULT:     -11.4      4.445      8.550
REMARK  Name = 108144
REMARK  6 active torsions:
REMARK  status: ('A' for Active; 'I' for Inactive)
REMARK    1  A    between atoms: C_3  and  C_18
REMARK    2  A    between atoms: C_4  and  C_10
REMARK    3  A    between atoms: C_10  and  C_12
REMARK    4  A    between atoms: C_18  and  N_19
REMARK    5  A    between atoms: C_22  and  N_29
REMARK    6  A    between atoms: C_23  and  C_26
REMARK                            x       y       z     vdW  Elec       q    Type
REMARK                         _______ _______ _______ _____ _____    ______ ____
ROOT
ATOM      1 CL   UNL     1      36.461 -21.906 -18.176  0.00  0.00    -0.082 Cl
ATOM      2 CL   UNL     1      31.649 -20.709 -20.462  0.00  0.00    -0.082 Cl
ATOM      3  C   UNL     1      35.200 -18.889 -20.463  0.00  0.00    -0.003 C 
ATOM      4  C   UNL     1      34.116 -21.180 -19.379  0.00  0.00    +0.060 C 
ATOM      5  C   UNL     1      35.990 -19.733 -19.683  0.00  0.00    +0.009 C 
ATOM      6  C   UNL     1      33.861 -19.204 -20.695  0.00  0.00    +0.009 C 
ATOM      7  C   UNL     1      35.442 -20.893 -19.135  0.00  0.00    +0.061 C 
ATOM      8  C   UNL     1      33.313 -20.364 -20.147  0.00  0.00    +0.061 C 
ENDROOT
BRANCH   4  10
ATOM      9  O   UNL     1      33.504 -23.434 -19.510  0.00  0.00    -0.287 OA
ATOM     10  C   UNL     1      33.527 -22.423 -18.792  0.00  0.00    +0.197 C 
BRANCH  10  12
ATOM     11 CL   UNL     1      31.348 -22.626 -13.244  0.00  0.00    -0.082 Cl
ATOM     12  C   UNL     1      32.996 -22.471 -17.440  0.00  0.00    +0.039 C 
ATOM     13  C   UNL     1      33.856 -22.665 -16.359  0.00  0.00    +0.004 C 
ATOM     14  C   UNL     1      31.626 -22.325 -17.223  0.00  0.00    +0.004 C 
ATOM     15  C   UNL     1      33.346 -22.713 -15.062  0.00  0.00    +0.011 C 
ATOM     16  C   UNL     1      31.116 -22.374 -15.925  0.00  0.00    +0.011 C 
ATOM     17  C   UNL     1      31.976 -22.567 -14.845  0.00  0.00    +0.058 C 
ENDBRANCH  10  12
ENDBRANCH   4  10
BRANCH   3  18
ATOM     18  C   UNL     1      35.786 -17.649 -21.049  0.00  0.00    +0.124 C 
BRANCH  18  19
ATOM     19  N   UNL     1      35.056 -17.210 -22.243  0.00  0.00    -0.146 NA
ATOM     20  N   UNL     1      34.935 -18.047 -23.270  0.00  0.00    -0.061 NA
ATOM     21  N   UNL     1      34.244 -17.399 -24.202  0.00  0.00    -0.144 NA
ATOM     22  C   UNL     1      34.469 -16.017 -22.455  0.00  0.00    +0.179 C 
ATOM     23  C   UNL     1      33.950 -16.155 -23.717  0.00  0.00    +0.163 C 
BRANCH  23  26
ATOM     24  O   UNL     1      33.009 -15.265 -25.695  0.00  0.00    -0.269 OA
ATOM     25  N   UNL     1      32.666 -14.101 -23.765  0.00  0.00    -0.324 N 
ATOM     26  C   UNL     1      33.210 -15.184 -24.463  0.00  0.00    +0.261 C 
ATOM     27  H   UNL     1      32.151 -13.414 -24.246  0.00  0.00    +0.145 HD
ATOM     28  H   UNL     1      32.799 -14.026 -22.792  0.00  0.00    +0.145 HD
ENDBRANCH  23  26
BRANCH  22  29
ATOM     29  N   UNL     1      34.470 -15.019 -21.549  0.00  0.00    -0.303 NA
ATOM     30  H   UNL     1      35.200 -14.952 -20.892  0.00  0.00    +0.120 HD
ATOM     31  H   UNL     1      33.741 -14.358 -21.544  0.00  0.00    +0.120 HD
ENDBRANCH  22  29
ENDBRANCH  18  19
ENDBRANCH   3  18
TORSDOF 6
ENDMDL
MODEL 4
REMARK VINA RESULT:     -11.1      7.080     10.370
REMARK  Name = 108144
REMARK  6 active torsions:
REMARK  status: ('A' for Active; 'I' for Inactive)
REMARK    1  A    between atoms: C_3  and  C_18
REMARK    2  A    between atoms: C_4  and  C_10
REMARK    3  A    between atoms: C_10  and  C_12
REMARK    4  A    between atoms: C_18  and  N_19
REMARK    5  A    between atoms: C_22  and  N_29
REMARK    6  A    between atoms: C_23  and  C_26
REMARK                            x       y       z     vdW  Elec       q    Type
REMARK                         _______ _______ _______ _____ _____    ______ ____
ROOT
ATOM      1 CL   UNL     1      30.114 -10.018 -20.860  0.00  0.00    -0.082 Cl
ATOM      2 CL   UNL     1      34.455  -8.103 -23.562  0.00  0.00    -0.082 Cl
ATOM      3  C   UNL     1      32.721 -11.692 -23.376  0.00  0.00    -0.003 C 
ATOM      4  C   UNL     1      32.307  -9.199 -22.272  0.00  0.00    +0.060 C 
ATOM      5  C   UNL     1      31.656 -11.485 -22.498  0.00  0.00    +0.009 C 
ATOM      6  C   UNL     1      33.576 -10.637 -23.695  0.00  0.00    +0.009 C 
ATOM      7  C   UNL     1      31.446 -10.224 -21.941  0.00  0.00    +0.061 C 
ATOM      8  C   UNL     1      33.367  -9.376 -23.137  0.00  0.00    +0.061 C 
ENDROOT
BRANCH   4  10
ATOM      9  O   UNL     1      32.214  -7.740 -20.447  0.00  0.00    -0.287 OA
ATOM     10  C   UNL     1      32.084  -7.847 -21.675  0.00  0.00    +0.197 C 
BRANCH  10  12
ATOM     11 CL   UNL     1      30.625  -3.099 -24.978  0.00  0.00    -0.082 Cl
ATOM     12  C   UNL     1      31.727  -6.689 -22.479  0.00  0.00    +0.039 C 
ATOM     13  C   UNL     1      30.865  -6.834 -23.566  0.00  0.00    +0.004 C 
ATOM     14  C   UNL     1      32.248  -5.434 -22.165  0.00  0.00    +0.004 C 
ATOM     15  C   UNL     1      30.525  -5.724 -24.339  0.00  0.00    +0.011 C 
ATOM     16  C   UNL     1      31.908  -4.324 -22.938  0.00  0.00    +0.011 C 
ATOM     17  C   UNL     1      31.046  -4.468 -24.025  0.00  0.00    +0.058 C 
ENDBRANCH  10  12
ENDBRANCH   4  10
BRANCH   3  18
ATOM     18  C   UNL     1      32.944 -13.040 -23.972  0.00  0.00    +0.124 C 
BRANCH  18  19
ATOM     19  N   UNL     1      33.515 -13.980 -23.002  0.00  0.00    -0.146 NA
ATOM     20  N   UNL     1      33.542 -13.644 -21.715  0.00  0.00    -0.061 NA
ATOM     21  N   UNL     1      34.106 -14.660 -21.073  0.00  0.00    -0.144 NA
ATOM     22  C   UNL     1      34.046 -15.193 -23.247  0.00  0.00    +0.179 C 
ATOM     23  C   UNL     1      34.420 -15.618 -21.997  0.00  0.00    +0.163 C 
BRANCH  23  26
ATOM     24  O   UNL     1      35.248 -17.226 -20.474  0.00  0.00    -0.269 OA
ATOM     25  N   UNL     1      35.430 -17.706 -22.695  0.00  0.00    -0.324 N 
ATOM     26  C   UNL     1      35.046 -16.856 -21.652  0.00  0.00    +0.261 C 
ATOM     27  H   UNL     1      35.863 -18.567 -22.494  0.00  0.00    +0.145 HD
ATOM     28  H   UNL     1      35.266 -17.443 -23.630  0.00  0.00    +0.145 HD
ENDBRANCH  23  26
BRANCH  22  29
ATOM     29  N   UNL     1      34.124 -15.733 -24.479  0.00  0.00    -0.303 NA
ATOM     30  H   UNL     1      34.375 -15.171 -25.247  0.00  0.00    +0.120 HD
ATOM     31  H   UNL     1      33.929 -16.688 -24.611  0.00  0.00    +0.120 HD
ENDBRANCH  22  29
ENDBRANCH  18  19
ENDBRANCH   3  18
TORSDOF 6
ENDMDL
MODEL 5
REMARK VINA RESULT:     -11.0      3.966      6.399
REMARK  Name = 108144
REMARK  6 active torsions:
REMARK  status: ('A' for Active; 'I' for Inactive)
REMARK    1  A    between atoms: C_3  and  C_18
REMARK    2  A    between atoms: C_4  and  C_10
REMARK    3  A    between atoms: C_10  and  C_12
REMARK    4  A    between atoms: C_18  and  N_19
REMARK    5  A    between atoms: C_22  and  N_29
REMARK    6  A    between atoms: C_23  and  C_26
REMARK                            x       y       z     vdW  Elec       q    Type
REMARK                         _______ _______ _______ _____ _____    ______ ____
ROOT
ATOM      1 CL   UNL     1      32.668 -13.307 -25.466  0.00  0.00    -0.082 Cl
ATOM      2 CL   UNL     1      32.883 -13.337 -20.010  0.00  0.00    -0.082 Cl
ATOM      3  C   UNL     1      34.532 -15.642 -22.820  0.00  0.00    -0.003 C 
ATOM      4  C   UNL     1      32.868 -13.444 -22.743  0.00  0.00    +0.060 C 
ATOM      5  C   UNL     1      34.063 -15.080 -24.007  0.00  0.00    +0.009 C 
ATOM      6  C   UNL     1      34.159 -15.092 -21.593  0.00  0.00    +0.009 C 
ATOM      7  C   UNL     1      33.222 -13.967 -23.968  0.00  0.00    +0.061 C 
ATOM      8  C   UNL     1      33.318 -13.980 -21.554  0.00  0.00    +0.061 C 
ENDROOT
BRANCH   4  10
ATOM      9  O   UNL     1      30.762 -12.459 -22.494  0.00  0.00    -0.287 OA
ATOM     10  C   UNL     1      31.967 -12.252 -22.699  0.00  0.00    +0.197 C 
BRANCH  10  12
ATOM     11 CL   UNL     1      33.975  -6.691 -23.481  0.00  0.00    -0.082 Cl
ATOM     12  C   UNL     1      32.457 -10.897 -22.888  0.00  0.00    +0.039 C 
ATOM     13  C   UNL     1      31.684  -9.812 -22.476  0.00  0.00    +0.004 C 
ATOM     14  C   UNL     1      33.700 -10.682 -23.485  0.00  0.00    +0.004 C 
ATOM     15  C   UNL     1      32.154  -8.511 -22.659  0.00  0.00    +0.011 C 
ATOM     16  C   UNL     1      34.169  -9.381 -23.669  0.00  0.00    +0.011 C 
ATOM     17  C   UNL     1      33.397  -8.295 -23.256  0.00  0.00    +0.058 C 
ENDBRANCH  10  12
ENDBRANCH   4  10
BRANCH   3  18
ATOM     18  C   UNL     1      35.431 -16.830 -22.862  0.00  0.00    +0.124 C 
BRANCH  18  19
ATOM     19  N   UNL     1      34.872 -17.967 -22.121  0.00  0.00    -0.146 NA
ATOM     20  N   UNL     1      33.700 -18.470 -22.499  0.00  0.00    -0.061 NA
ATOM     21  N   UNL     1      33.436 -19.471 -21.667  0.00  0.00    -0.144 NA
ATOM     22  C   UNL     1      35.405 -18.597 -21.058  0.00  0.00    +0.179 C 
ATOM     23  C   UNL     1      34.471 -19.562 -20.778  0.00  0.00    +0.163 C 
BRANCH  23  26
ATOM     24  O   UNL     1      33.568 -21.309 -19.466  0.00  0.00    -0.269 OA
ATOM     25  N   UNL     1      35.696 -20.644 -18.991  0.00  0.00    -0.324 N 
ATOM     26  C   UNL     1      34.516 -20.538 -19.733  0.00  0.00    +0.261 C 
ATOM     27  H   UNL     1      35.762 -21.305 -18.264  0.00  0.00    +0.145 HD
ATOM     28  H   UNL     1      36.461 -20.058 -19.194  0.00  0.00    +0.145 HD
ENDBRANCH  23  26
BRANCH  22  29
ATOM     29  N   UNL     1      36.585 -18.253 -20.507  0.00  0.00    -0.303 NA
ATOM     30  H   UNL     1      37.218 -18.951 -20.221  0.00  0.00    +0.120 HD
ATOM     31  H   UNL     1      36.816 -17.303 -20.389  0.00  0.00    +0.120 HD
ENDBRANCH  22  29
ENDBRANCH  18  19
ENDBRANCH   3  18
TORSDOF 6
ENDMDL
MODEL 6
REMARK VINA RESULT:     -10.8      4.329      9.233
REMARK  Name = 108144
REMARK  6 active torsions:
REMARK  status: ('A' for Active; 'I' for Inactive)
REMARK    1  A    between atoms: C_3  and  C_18
REMARK    2  A    between atoms: C_4  and  C_10
REMARK    3  A    between atoms: C_10  and  C_12
REMARK    4  A    between atoms: C_18  and  N_19
REMARK    5  A    between atoms: C_22  and  N_29
REMARK    6  A    between atoms: C_23  and  C_26
REMARK                            x       y       z     vdW  Elec       q    Type
REMARK                         _______ _______ _______ _____ _____    ______ ____
ROOT
ATOM      1 CL   UNL     1      37.107 -21.434 -15.930  0.00  0.00    -0.082 Cl
ATOM      2 CL   UNL     1      31.970 -22.983 -16.938  0.00  0.00    -0.082 Cl
ATOM      3  C   UNL     1      34.857 -21.450 -19.226  0.00  0.00    -0.003 C 
ATOM      4  C   UNL     1      34.556 -22.168 -16.581  0.00  0.00    +0.060 C 
ATOM      5  C   UNL     1      35.917 -21.288 -18.334  0.00  0.00    +0.009 C 
ATOM      6  C   UNL     1      33.644 -21.975 -18.780  0.00  0.00    +0.009 C 
ATOM      7  C   UNL     1      35.765 -21.653 -16.996  0.00  0.00    +0.061 C 
ATOM      8  C   UNL     1      33.492 -22.339 -17.442  0.00  0.00    +0.061 C 
ENDROOT
BRANCH   4  10
ATOM      9  O   UNL     1      33.364 -22.174 -14.568  0.00  0.00    -0.287 OA
ATOM     10  C   UNL     1      34.391 -22.559 -15.147  0.00  0.00    +0.197 C 
BRANCH  10  12
ATOM     11 CL   UNL     1      38.440 -25.828 -12.233  0.00  0.00    -0.082 Cl
ATOM     12  C   UNL     1      35.379 -23.354 -14.438  0.00  0.00    +0.039 C 
ATOM     13  C   UNL     1      35.744 -24.609 -14.925  0.00  0.00    +0.004 C 
ATOM     14  C   UNL     1      35.960 -22.864 -13.268  0.00  0.00    +0.004 C 
ATOM     15  C   UNL     1      36.690 -25.374 -14.243  0.00  0.00    +0.011 C 
ATOM     16  C   UNL     1      36.906 -23.630 -12.586  0.00  0.00    +0.011 C 
ATOM     17  C   UNL     1      37.272 -24.884 -13.073  0.00  0.00    +0.058 C 
ENDBRANCH  10  12
ENDBRANCH   4  10
BRANCH   3  18
ATOM     18  C   UNL     1      35.020 -21.061 -20.656  0.00  0.00    +0.124 C 
BRANCH  18  19
ATOM     19  N   UNL     1      35.192 -19.613 -20.814  0.00  0.00    -0.146 NA
ATOM     20  N   UNL     1      36.167 -19.002 -20.146  0.00  0.00    -0.061 NA
ATOM     21  N   UNL     1      36.091 -17.715 -20.467  0.00  0.00    -0.144 NA
ATOM     22  C   UNL     1      34.461 -18.777 -21.575  0.00  0.00    +0.179 C 
ATOM     23  C   UNL     1      35.052 -17.561 -21.341  0.00  0.00    +0.163 C 
BRANCH  23  26
ATOM     24  O   UNL     1      34.359 -15.304 -21.204  0.00  0.00    -0.269 OA
ATOM     25  N   UNL     1      34.709 -16.160 -23.287  0.00  0.00    -0.324 N 
ATOM     26  C   UNL     1      34.682 -16.295 -21.896  0.00  0.00    +0.261 C 
ATOM     27  H   UNL     1      34.461 -15.302 -23.704  0.00  0.00    +0.145 HD
ATOM     28  H   UNL     1      34.976 -16.922 -23.852  0.00  0.00    +0.145 HD
ENDBRANCH  23  26
BRANCH  22  29
ATOM     29  N   UNL     1      33.423 -19.181 -22.333  0.00  0.00    -0.303 NA
ATOM     30  H   UNL     1      33.552 -19.348 -23.295  0.00  0.00    +0.120 HD
ATOM     31  H   UNL     1      32.536 -19.308 -21.927  0.00  0.00    +0.120 HD
ENDBRANCH  22  29
ENDBRANCH  18  19
ENDBRANCH   3  18
TORSDOF 6
ENDMDL
MODEL 7
REMARK VINA RESULT:     -10.7      8.733     12.229
REMARK  Name = 108144
REMARK  6 active torsions:
REMARK  status: ('A' for Active; 'I' for Inactive)
REMARK    1  A    between atoms: C_3  and  C_18
REMARK    2  A    between atoms: C_4  and  C_10
REMARK    3  A    between atoms: C_10  and  C_12
REMARK    4  A    between atoms: C_18  and  N_19
REMARK    5  A    between atoms: C_22  and  N_29
REMARK    6  A    between atoms: C_23  and  C_26
REMARK                            x       y       z     vdW  Elec       q    Type
REMARK                         _______ _______ _______ _____ _____    ______ ____
ROOT
ATOM      1 CL   UNL     1      30.134  -6.807 -24.576  0.00  0.00    -0.082 Cl
ATOM      2 CL   UNL     1      32.697  -6.342 -19.778  0.00  0.00    -0.082 Cl
ATOM      3  C   UNL     1      30.911  -9.389 -21.635  0.00  0.00    -0.003 C 
ATOM      4  C   UNL     1      31.388  -6.723 -22.149  0.00  0.00    +0.060 C 
ATOM      5  C   UNL     1      30.464  -8.818 -22.826  0.00  0.00    +0.009 C 
ATOM      6  C   UNL     1      31.599  -8.612 -20.704  0.00  0.00    +0.009 C 
ATOM      7  C   UNL     1      30.707  -7.469 -23.086  0.00  0.00    +0.061 C 
ATOM      8  C   UNL     1      31.841  -7.263 -20.963  0.00  0.00    +0.061 C 
ENDROOT
BRANCH   4  10
ATOM      9  O   UNL     1      31.051  -4.447 -21.724  0.00  0.00    -0.287 OA
ATOM     10  C   UNL     1      31.648  -5.277 -22.426  0.00  0.00    +0.197 C 
BRANCH  10  12
ATOM     11 CL   UNL     1      35.375  -3.468 -26.718  0.00  0.00    -0.082 Cl
ATOM     12  C   UNL     1      32.558  -4.835 -23.471  0.00  0.00    +0.039 C 
ATOM     13  C   UNL     1      32.235  -3.727 -24.254  0.00  0.00    +0.004 C 
ATOM     14  C   UNL     1      33.751  -5.522 -23.693  0.00  0.00    +0.004 C 
ATOM     15  C   UNL     1      33.106  -3.304 -25.257  0.00  0.00    +0.011 C 
ATOM     16  C   UNL     1      34.622  -5.100 -24.698  0.00  0.00    +0.011 C 
ATOM     17  C   UNL     1      34.300  -3.991 -25.480  0.00  0.00    +0.058 C 
ENDBRANCH  10  12
ENDBRANCH   4  10
BRANCH   3  18
ATOM     18  C   UNL     1      30.653 -10.831 -21.357  0.00  0.00    +0.124 C 
BRANCH  18  19
ATOM     19  N   UNL     1      31.742 -11.686 -21.841  0.00  0.00    -0.146 NA
ATOM     20  N   UNL     1      32.423 -11.315 -22.923  0.00  0.00    -0.061 NA
ATOM     21  N   UNL     1      33.333 -12.259 -23.136  0.00  0.00    -0.144 NA
ATOM     22  C   UNL     1      32.166 -12.852 -21.320  0.00  0.00    +0.179 C 
ATOM     23  C   UNL     1      33.189 -13.208 -22.162  0.00  0.00    +0.163 C 
BRANCH  23  26
ATOM     24  O   UNL     1      34.261 -14.977 -21.018  0.00  0.00    -0.269 OA
ATOM     25  N   UNL     1      34.540 -14.879 -23.278  0.00  0.00    -0.324 N 
ATOM     26  C   UNL     1      34.010 -14.375 -22.086  0.00  0.00    +0.261 C 
ATOM     27  H   UNL     1      35.110 -15.682 -23.264  0.00  0.00    +0.145 HD
ATOM     28  H   UNL     1      34.343 -14.431 -24.133  0.00  0.00    +0.145 HD
ENDBRANCH  23  26
BRANCH  22  29
ATOM     29  N   UNL     1      31.619 -13.417 -20.225  0.00  0.00    -0.303 NA
ATOM     30  H   UNL     1      31.338 -12.852 -19.469  0.00  0.00    +0.120 HD
ATOM     31  H   UNL     1      31.501 -14.393 -20.181  0.00  0.00    +0.120 HD
ENDBRANCH  22  29
ENDBRANCH  18  19
ENDBRANCH   3  18
TORSDOF 6
ENDMDL
MODEL 8
REMARK VINA RESULT:     -10.7      8.735     12.263
REMARK  Name = 108144
REMARK  6 active torsions:
REMARK  status: ('A' for Active; 'I' for Inactive)
REMARK    1  A    between atoms: C_3  and  C_18
REMARK    2  A    between atoms: C_4  and  C_10
REMARK    3  A    between atoms: C_10  and  C_12
REMARK    4  A    between atoms: C_18  and  N_19
REMARK    5  A    between atoms: C_22  and  N_29
REMARK    6  A    between atoms: C_23  and  C_26
REMARK                            x       y       z     vdW  Elec       q    Type
REMARK                         _______ _______ _______ _____ _____    ______ ____
ROOT
ATOM      1 CL   UNL     1      32.687  -6.318 -19.792  0.00  0.00    -0.082 Cl
ATOM      2 CL   UNL     1      30.202  -6.821 -24.628  0.00  0.00    -0.082 Cl
ATOM      3  C   UNL     1      30.939  -9.382 -21.658  0.00  0.00    -0.003 C 
ATOM      4  C   UNL     1      31.418  -6.718 -22.180  0.00  0.00    +0.060 C 
ATOM      5  C   UNL     1      31.610  -8.598 -20.720  0.00  0.00    +0.009 C 
ATOM      6  C   UNL     1      30.510  -8.819 -22.859  0.00  0.00    +0.009 C 
ATOM      7  C   UNL     1      31.852  -7.249 -20.984  0.00  0.00    +0.061 C 
ATOM      8  C   UNL     1      30.752  -7.472 -23.124  0.00  0.00    +0.061 C 
ENDROOT
BRANCH   4  10
ATOM      9  O   UNL     1      31.088  -4.441 -21.759  0.00  0.00    -0.287 OA
ATOM     10  C   UNL     1      31.677  -5.274 -22.465  0.00  0.00    +0.197 C 
BRANCH  10  12
ATOM     11 CL   UNL     1      35.372  -3.474 -26.788  0.00  0.00    -0.082 Cl
ATOM     12  C   UNL     1      32.577  -4.836 -23.520  0.00  0.00    +0.039 C 
ATOM     13  C   UNL     1      33.781  -5.507 -23.732  0.00  0.00    +0.004 C 
ATOM     14  C   UNL     1      32.237  -3.743 -24.317  0.00  0.00    +0.004 C 
ATOM     15  C   UNL     1      34.644  -5.085 -24.743  0.00  0.00    +0.011 C 
ATOM     16  C   UNL     1      33.102  -3.321 -25.327  0.00  0.00    +0.011 C 
ATOM     17  C   UNL     1      34.305  -3.993 -25.541  0.00  0.00    +0.058 C 
ENDBRANCH  10  12
ENDBRANCH   4  10
BRANCH   3  18
ATOM     18  C   UNL     1      30.679 -10.823 -21.375  0.00  0.00    +0.124 C 
BRANCH  18  19
ATOM     19  N   UNL     1      31.768 -11.680 -21.856  0.00  0.00    -0.146 NA
ATOM     20  N   UNL     1      32.452 -11.311 -22.936  0.00  0.00    -0.061 NA
ATOM     21  N   UNL     1      33.361 -12.257 -23.146  0.00  0.00    -0.144 NA
ATOM     22  C   UNL     1      32.188 -12.848 -21.333  0.00  0.00    +0.179 C 
ATOM     23  C   UNL     1      33.212 -13.205 -22.173  0.00  0.00    +0.163 C 
BRANCH  23  26
ATOM     24  O   UNL     1      34.273 -14.980 -21.027  0.00  0.00    -0.269 OA
ATOM     25  N   UNL     1      34.568 -14.876 -23.284  0.00  0.00    -0.324 N 
ATOM     26  C   UNL     1      34.032 -14.375 -22.095  0.00  0.00    +0.261 C 
ATOM     27  H   UNL     1      35.137 -15.680 -23.268  0.00  0.00    +0.145 HD
ATOM     28  H   UNL     1      34.378 -14.425 -24.139  0.00  0.00    +0.145 HD
ENDBRANCH  23  26
BRANCH  22  29
ATOM     29  N   UNL     1      31.637 -13.411 -20.240  0.00  0.00    -0.303 NA
ATOM     30  H   UNL     1      32.069 -14.188 -19.816  0.00  0.00    +0.120 HD
ATOM     31  H   UNL     1      30.802 -13.047 -19.866  0.00  0.00    +0.120 HD
ENDBRANCH  22  29
ENDBRANCH  18  19
ENDBRANCH   3  18
TORSDOF 6
ENDMDL
MODEL 9
REMARK VINA RESULT:     -10.5      7.866     11.432
REMARK  Name = 108144
REMARK  6 active torsions:
REMARK  status: ('A' for Active; 'I' for Inactive)
REMARK    1  A    between atoms: C_3  and  C_18
REMARK    2  A    between atoms: C_4  and  C_10
REMARK    3  A    between atoms: C_10  and  C_12
REMARK    4  A    between atoms: C_18  and  N_19
REMARK    5  A    between atoms: C_22  and  N_29
REMARK    6  A    between atoms: C_23  and  C_26
REMARK                            x       y       z     vdW  Elec       q    Type
REMARK                         _______ _______ _______ _____ _____    ______ ____
ROOT
ATOM      1 CL   UNL     1      35.111  -8.973 -24.330  0.00  0.00    -0.082 Cl
ATOM      2 CL   UNL     1      31.090  -6.656 -21.455  0.00  0.00    -0.082 Cl
ATOM      3  C   UNL     1      31.860 -10.422 -22.526  0.00  0.00    -0.003 C 
ATOM      4  C   UNL     1      33.035  -7.953 -22.874  0.00  0.00    +0.060 C 
ATOM      5  C   UNL     1      33.047 -10.310 -23.251  0.00  0.00    +0.009 C 
ATOM      6  C   UNL     1      31.268  -9.285 -21.977  0.00  0.00    +0.009 C 
ATOM      7  C   UNL     1      33.642  -9.061 -23.425  0.00  0.00    +0.061 C 
ATOM      8  C   UNL     1      31.863  -8.035 -22.153  0.00  0.00    +0.061 C 
ENDROOT
BRANCH   4  10
ATOM      9  O   UNL     1      34.428  -6.213 -22.163  0.00  0.00    -0.287 OA
ATOM     10  C   UNL     1      33.672  -6.613 -23.061  0.00  0.00    +0.197 C 
BRANCH  10  12
ATOM     11 CL   UNL     1      32.685  -3.252 -27.888  0.00  0.00    -0.082 Cl
ATOM     12  C   UNL     1      33.430  -5.792 -24.236  0.00  0.00    +0.039 C 
ATOM     13  C   UNL     1      32.349  -6.072 -25.071  0.00  0.00    +0.004 C 
ATOM     14  C   UNL     1      34.282  -4.728 -24.531  0.00  0.00    +0.004 C 
ATOM     15  C   UNL     1      32.119  -5.286 -26.200  0.00  0.00    +0.011 C 
ATOM     16  C   UNL     1      34.052  -3.943 -25.661  0.00  0.00    +0.011 C 
ATOM     17  C   UNL     1      32.970  -4.221 -26.495  0.00  0.00    +0.058 C 
ENDBRANCH  10  12
ENDBRANCH   4  10
BRANCH   3  18
ATOM     18  C   UNL     1      31.225 -11.758 -22.338  0.00  0.00    +0.124 C 
BRANCH  18  19
ATOM     19  N   UNL     1      32.209 -12.789 -21.990  0.00  0.00    -0.146 NA
ATOM     20  N   UNL     1      32.619 -12.890 -20.728  0.00  0.00    -0.061 NA
ATOM     21  N   UNL     1      33.497 -13.886 -20.698  0.00  0.00    -0.144 NA
ATOM     22  C   UNL     1      32.785 -13.686 -22.811  0.00  0.00    +0.179 C 
ATOM     23  C   UNL     1      33.610 -14.384 -21.966  0.00  0.00    +0.163 C 
BRANCH  23  26
ATOM     24  O   UNL     1      34.846 -16.340 -21.479  0.00  0.00    -0.269 OA
ATOM     25  N   UNL     1      34.909 -15.577 -23.626  0.00  0.00    -0.324 N 
ATOM     26  C   UNL     1      34.476 -15.472 -22.301  0.00  0.00    +0.261 C 
ATOM     27  H   UNL     1      35.507 -16.314 -23.892  0.00  0.00    +0.145 HD
ATOM     28  H   UNL     1      34.618 -14.914 -24.294  0.00  0.00    +0.145 HD
ENDBRANCH  23  26
BRANCH  22  29
ATOM     29  N   UNL     1      32.518 -13.762 -24.130  0.00  0.00    -0.303 NA
ATOM     30  H   UNL     1      31.649 -14.109 -24.437  0.00  0.00    +0.120 HD
ATOM     31  H   UNL     1      33.192 -13.473 -24.787  0.00  0.00    +0.120 HD
ENDBRANCH  22  29
ENDBRANCH  18  19
ENDBRANCH   3  18
TORSDOF 6
ENDMDL
