MODEL 1
REMARK VINA RESULT:     -12.2      0.000      0.000
REMARK  Name = 969516
REMARK  10 active torsions:
REMARK  status: ('A' for Active; 'I' for Inactive)
REMARK    1  A    between atoms: C_1  and  C_3
REMARK    2  A    between atoms: C_1  and  C_17
REMARK    3  A    between atoms: C_3  and  C_5
REMARK    4  A    between atoms: C_4  and  C_6
REMARK    5  A    between atoms: C_8  and  O_12
REMARK    6  A    between atoms: C_10  and  O_14
REMARK    7  A    between atoms: C_17  and  C_19
REMARK    8  A    between atoms: C_18  and  C_20
REMARK    9  A    between atoms: C_22  and  O_26
REMARK   10  A    between atoms: C_24  and  O_28
REMARK                            x       y       z     vdW  Elec       q    Type
REMARK                         _______ _______ _______ _____ _____    ______ ____
ROOT
ATOM      1  C   UNL     1      34.402 -21.825 -19.432  0.00  0.00    +0.138 C 
ENDROOT
BRANCH   1   3
ATOM      2  O   UNL     1      36.063 -20.109 -19.112  0.00  0.00    -0.291 OA
ATOM      3  C   UNL     1      35.067 -20.494 -19.719  0.00  0.00    +0.181 C 
BRANCH   3   5
ATOM      4  C   UNL     1      35.100 -18.620 -21.311  0.00  0.00    +0.003 C 
ATOM      5  C   UNL     1      34.462 -19.692 -20.824  0.00  0.00    +0.038 C 
BRANCH   4   6
ATOM      6  C   UNL     1      34.585 -17.758 -22.391  0.00  0.00    +0.003 C 
ATOM      7  C   UNL     1      34.751 -16.385 -22.300  0.00  0.00    +0.040 C 
ATOM      8  C   UNL     1      34.263 -15.570 -23.322  0.00  0.00    +0.172 C 
ATOM      9  C   UNL     1      33.943 -18.338 -23.473  0.00  0.00    +0.003 C 
ATOM     10  C   UNL     1      33.615 -16.138 -24.417  0.00  0.00    +0.168 C 
ATOM     11  C   UNL     1      33.455 -17.522 -24.494  0.00  0.00    +0.040 C 
BRANCH   8  12
ATOM     12  O   UNL     1      34.425 -14.220 -23.236  0.00  0.00    -0.468 OA
ATOM     13  C   UNL     1      33.612 -13.527 -22.291  0.00  0.00    +0.253 C 
ENDBRANCH   8  12
BRANCH  10  14
ATOM     14  O   UNL     1      33.135 -15.353 -25.421  0.00  0.00    -0.503 OA
ATOM     15  H   UNL     1      33.656 -15.194 -26.183  0.00  0.00    +0.292 HD
ENDBRANCH  10  14
ENDBRANCH   4   6
ENDBRANCH   3   5
ENDBRANCH   1   3
BRANCH   1  17
ATOM     16  O   UNL     1      32.086 -21.169 -19.558  0.00  0.00    -0.291 OA
ATOM     17  C   UNL     1      32.973 -21.744 -18.932  0.00  0.00    +0.181 C 
BRANCH  17  19
ATOM     18  C   UNL     1      31.521 -22.279 -17.019  0.00  0.00    +0.003 C 
ATOM     19  C   UNL     1      32.694 -22.448 -17.646  0.00  0.00    +0.038 C 
BRANCH  18  20
ATOM     20  C   UNL     1      31.154 -22.918 -15.744  0.00  0.00    +0.003 C 
ATOM     21  C   UNL     1      32.130 -23.128 -14.783  0.00  0.00    +0.040 C 
ATOM     22  C   UNL     1      31.781 -23.734 -13.576  0.00  0.00    +0.172 C 
ATOM     23  C   UNL     1      29.838 -23.299 -15.530  0.00  0.00    +0.003 C 
ATOM     24  C   UNL     1      30.462 -24.122 -13.346  0.00  0.00    +0.168 C 
ATOM     25  C   UNL     1      29.490 -23.905 -14.323  0.00  0.00    +0.040 C 
BRANCH  22  26
ATOM     26  O   UNL     1      32.739 -23.940 -12.629  0.00  0.00    -0.468 OA
ATOM     27  C   UNL     1      34.094 -23.732 -13.021  0.00  0.00    +0.253 C 
ENDBRANCH  22  26
BRANCH  24  28
ATOM     28  O   UNL     1      30.108 -24.713 -12.171  0.00  0.00    -0.503 OA
ATOM     29  H   UNL     1      30.673 -24.649 -11.426  0.00  0.00    +0.292 HD
ENDBRANCH  24  28
ENDBRANCH  18  20
ENDBRANCH  17  19
ENDBRANCH   1  17
TORSDOF 10
ENDMDL
MODEL 2
REMARK VINA RESULT:     -12.2      0.083     10.805
REMARK  Name = 969516
REMARK  10 active torsions:
REMARK  status: ('A' for Active; 'I' for Inactive)
REMARK    1  A    between atoms: C_1  and  C_3
REMARK    2  A    between atoms: C_1  and  C_17
REMARK    3  A    between atoms: C_3  and  C_5
REMARK    4  A    between atoms: C_4  and  C_6
REMARK    5  A    between atoms: C_8  and  O_12
REMARK    6  A    between atoms: C_10  and  O_14
REMARK    7  A    between atoms: C_17  and  C_19
REMARK    8  A    between atoms: C_18  and  C_20
REMARK    9  A    between atoms: C_22  and  O_26
REMARK   10  A    between atoms: C_24  and  O_28
REMARK                            x       y       z     vdW  Elec       q    Type
REMARK                         _______ _______ _______ _____ _____    ______ ____
ROOT
ATOM      1  C   UNL     1      34.480 -21.836 -19.368  0.00  0.00    +0.138 C 
ENDROOT
BRANCH   1   3
ATOM      2  O   UNL     1      32.151 -21.256 -19.578  0.00  0.00    -0.291 OA
ATOM      3  C   UNL     1      33.037 -21.779 -18.909  0.00  0.00    +0.181 C 
BRANCH   3   5
ATOM      4  C   UNL     1      31.532 -22.338 -17.045  0.00  0.00    +0.003 C 
ATOM      5  C   UNL     1      32.745 -22.446 -17.604  0.00  0.00    +0.038 C 
BRANCH   4   6
ATOM      6  C   UNL     1      31.147 -22.947 -15.758  0.00  0.00    +0.003 C 
ATOM      7  C   UNL     1      32.125 -23.201 -14.809  0.00  0.00    +0.040 C 
ATOM      8  C   UNL     1      31.759 -23.777 -13.592  0.00  0.00    +0.172 C 
ATOM      9  C   UNL     1      29.817 -23.253 -15.525  0.00  0.00    +0.003 C 
ATOM     10  C   UNL     1      30.424 -24.092 -13.342  0.00  0.00    +0.168 C 
ATOM     11  C   UNL     1      29.453 -23.830 -14.308  0.00  0.00    +0.040 C 
BRANCH   8  12
ATOM     12  O   UNL     1      32.717 -24.028 -12.656  0.00  0.00    -0.468 OA
ATOM     13  C   UNL     1      34.063 -23.703 -13.001  0.00  0.00    +0.253 C 
ENDBRANCH   8  12
BRANCH  10  14
ATOM     14  O   UNL     1      30.056 -24.654 -12.157  0.00  0.00    -0.503 OA
ATOM     15  H   UNL     1      30.590 -25.316 -11.765  0.00  0.00    +0.292 HD
ENDBRANCH  10  14
ENDBRANCH   4   6
ENDBRANCH   3   5
ENDBRANCH   1   3
BRANCH   1  17
ATOM     16  O   UNL     1      36.135 -20.109 -19.064  0.00  0.00    -0.291 OA
ATOM     17  C   UNL     1      35.125 -20.493 -19.649  0.00  0.00    +0.181 C 
BRANCH  17  19
ATOM     18  C   UNL     1      35.171 -18.708 -21.342  0.00  0.00    +0.003 C 
ATOM     19  C   UNL     1      34.483 -19.677 -20.722  0.00  0.00    +0.038 C 
BRANCH  18  20
ATOM     20  C   UNL     1      34.627 -17.842 -22.403  0.00  0.00    +0.003 C 
ATOM     21  C   UNL     1      34.798 -16.471 -22.314  0.00  0.00    +0.040 C 
ATOM     22  C   UNL     1      34.282 -15.651 -23.318  0.00  0.00    +0.172 C 
ATOM     23  C   UNL     1      33.953 -18.418 -23.468  0.00  0.00    +0.003 C 
ATOM     24  C   UNL     1      33.602 -16.216 -24.397  0.00  0.00    +0.168 C 
ATOM     25  C   UNL     1      33.437 -17.599 -24.472  0.00  0.00    +0.040 C 
BRANCH  22  26
ATOM     26  O   UNL     1      34.450 -14.302 -23.235  0.00  0.00    -0.468 OA
ATOM     27  C   UNL     1      33.637 -13.604 -22.294  0.00  0.00    +0.253 C 
ENDBRANCH  22  26
BRANCH  24  28
ATOM     28  O   UNL     1      33.095 -15.427 -25.386  0.00  0.00    -0.503 OA
ATOM     29  H   UNL     1      32.436 -15.763 -25.961  0.00  0.00    +0.292 HD
ENDBRANCH  24  28
ENDBRANCH  18  20
ENDBRANCH  17  19
ENDBRANCH   1  17
TORSDOF 10
ENDMDL
MODEL 3
REMARK VINA RESULT:     -12.2      3.142     11.048
REMARK  Name = 969516
REMARK  10 active torsions:
REMARK  status: ('A' for Active; 'I' for Inactive)
REMARK    1  A    between atoms: C_1  and  C_3
REMARK    2  A    between atoms: C_1  and  C_17
REMARK    3  A    between atoms: C_3  and  C_5
REMARK    4  A    between atoms: C_4  and  C_6
REMARK    5  A    between atoms: C_8  and  O_12
REMARK    6  A    between atoms: C_10  and  O_14
REMARK    7  A    between atoms: C_17  and  C_19
REMARK    8  A    between atoms: C_18  and  C_20
REMARK    9  A    between atoms: C_22  and  O_26
REMARK   10  A    between atoms: C_24  and  O_28
REMARK                            x       y       z     vdW  Elec       q    Type
REMARK                         _______ _______ _______ _____ _____    ______ ____
ROOT
ATOM      1  C   UNL     1      35.660 -21.282 -19.085  0.00  0.00    +0.138 C 
ENDROOT
BRANCH   1   3
ATOM      2  O   UNL     1      36.832 -19.875 -17.519  0.00  0.00    -0.291 OA
ATOM      3  C   UNL     1      36.259 -20.939 -17.736  0.00  0.00    +0.181 C 
BRANCH   3   5
ATOM      4  C   UNL     1      37.037 -22.193 -15.768  0.00  0.00    +0.003 C 
ATOM      5  C   UNL     1      36.068 -21.961 -16.663  0.00  0.00    +0.038 C 
BRANCH   4   6
ATOM      6  C   UNL     1      36.953 -23.185 -14.681  0.00  0.00    +0.003 C 
ATOM      7  C   UNL     1      38.024 -24.033 -14.452  0.00  0.00    +0.040 C 
ATOM      8  C   UNL     1      37.943 -24.972 -13.423  0.00  0.00    +0.172 C 
ATOM      9  C   UNL     1      35.803 -23.250 -13.911  0.00  0.00    +0.003 C 
ATOM     10  C   UNL     1      36.793 -25.050 -12.640  0.00  0.00    +0.168 C 
ATOM     11  C   UNL     1      35.723 -24.189 -12.882  0.00  0.00    +0.040 C 
BRANCH   8  12
ATOM     12  O   UNL     1      38.995 -25.808 -13.195  0.00  0.00    -0.468 OA
ATOM     13  C   UNL     1      40.062 -25.782 -14.141  0.00  0.00    +0.253 C 
ENDBRANCH   8  12
BRANCH  10  14
ATOM     14  O   UNL     1      36.702 -25.962 -11.632  0.00  0.00    -0.503 OA
ATOM     15  H   UNL     1      36.967 -25.730 -10.764  0.00  0.00    +0.292 HD
ENDBRANCH  10  14
ENDBRANCH   4   6
ENDBRANCH   3   5
ENDBRANCH   1   3
BRANCH   1  17
ATOM     16  O   UNL     1      33.340 -21.492 -18.463  0.00  0.00    -0.291 OA
ATOM     17  C   UNL     1      34.175 -21.010 -19.225  0.00  0.00    +0.181 C 
BRANCH  17  19
ATOM     18  C   UNL     1      34.726 -19.414 -21.014  0.00  0.00    +0.003 C 
ATOM     19  C   UNL     1      33.787 -20.077 -20.324  0.00  0.00    +0.038 C 
BRANCH  18  20
ATOM     20  C   UNL     1      34.448 -18.465 -22.106  0.00  0.00    +0.003 C 
ATOM     21  C   UNL     1      34.725 -17.120 -21.924  0.00  0.00    +0.040 C 
ATOM     22  C   UNL     1      34.460 -16.222 -22.958  0.00  0.00    +0.172 C 
ATOM     23  C   UNL     1      33.915 -18.938 -23.295  0.00  0.00    +0.003 C 
ATOM     24  C   UNL     1      33.924 -16.682 -24.161  0.00  0.00    +0.168 C 
ATOM     25  C   UNL     1      33.651 -18.040 -24.329  0.00  0.00    +0.040 C 
BRANCH  22  26
ATOM     26  O   UNL     1      34.732 -14.899 -22.783  0.00  0.00    -0.468 OA
ATOM     27  C   UNL     1      33.770 -14.128 -22.065  0.00  0.00    +0.253 C 
ENDBRANCH  22  26
BRANCH  24  28
ATOM     28  O   UNL     1      33.664 -15.816 -25.179  0.00  0.00    -0.503 OA
ATOM     29  H   UNL     1      33.921 -14.917 -25.107  0.00  0.00    +0.292 HD
ENDBRANCH  24  28
ENDBRANCH  18  20
ENDBRANCH  17  19
ENDBRANCH   1  17
TORSDOF 10
ENDMDL
MODEL 4
REMARK VINA RESULT:     -12.1      0.976      2.235
REMARK  Name = 969516
REMARK  10 active torsions:
REMARK  status: ('A' for Active; 'I' for Inactive)
REMARK    1  A    between atoms: C_1  and  C_3
REMARK    2  A    between atoms: C_1  and  C_17
REMARK    3  A    between atoms: C_3  and  C_5
REMARK    4  A    between atoms: C_4  and  C_6
REMARK    5  A    between atoms: C_8  and  O_12
REMARK    6  A    between atoms: C_10  and  O_14
REMARK    7  A    between atoms: C_17  and  C_19
REMARK    8  A    between atoms: C_18  and  C_20
REMARK    9  A    between atoms: C_22  and  O_26
REMARK   10  A    between atoms: C_24  and  O_28
REMARK                            x       y       z     vdW  Elec       q    Type
REMARK                         _______ _______ _______ _____ _____    ______ ____
ROOT
ATOM      1  C   UNL     1      34.474 -21.921 -19.491  0.00  0.00    +0.138 C 
ENDROOT
BRANCH   1   3
ATOM      2  O   UNL     1      36.034 -20.133 -19.071  0.00  0.00    -0.291 OA
ATOM      3  C   UNL     1      35.083 -20.553 -19.724  0.00  0.00    +0.181 C 
BRANCH   3   5
ATOM      4  C   UNL     1      35.093 -18.653 -21.286  0.00  0.00    +0.003 C 
ATOM      5  C   UNL     1      34.482 -19.757 -20.836  0.00  0.00    +0.038 C 
BRANCH   4   6
ATOM      6  C   UNL     1      34.578 -17.794 -22.368  0.00  0.00    +0.003 C 
ATOM      7  C   UNL     1      34.750 -16.421 -22.285  0.00  0.00    +0.040 C 
ATOM      8  C   UNL     1      34.263 -15.610 -23.309  0.00  0.00    +0.172 C 
ATOM      9  C   UNL     1      33.933 -18.376 -23.446  0.00  0.00    +0.003 C 
ATOM     10  C   UNL     1      33.610 -16.181 -24.401  0.00  0.00    +0.168 C 
ATOM     11  C   UNL     1      33.445 -17.564 -24.471  0.00  0.00    +0.040 C 
BRANCH   8  12
ATOM     12  O   UNL     1      34.430 -14.260 -23.231  0.00  0.00    -0.468 OA
ATOM     13  C   UNL     1      33.605 -13.556 -22.305  0.00  0.00    +0.253 C 
ENDBRANCH   8  12
BRANCH  10  14
ATOM     14  O   UNL     1      33.131 -15.398 -25.408  0.00  0.00    -0.503 OA
ATOM     15  H   UNL     1      32.625 -14.635 -25.209  0.00  0.00    +0.292 HD
ENDBRANCH  10  14
ENDBRANCH   4   6
ENDBRANCH   3   5
ENDBRANCH   1   3
BRANCH   1  17
ATOM     16  O   UNL     1      32.102 -21.502 -19.374  0.00  0.00    -0.291 OA
ATOM     17  C   UNL     1      33.115 -21.921 -18.818  0.00  0.00    +0.181 C 
BRANCH  17  19
ATOM     18  C   UNL     1      34.125 -22.396 -16.625  0.00  0.00    +0.003 C 
ATOM     19  C   UNL     1      33.070 -22.508 -17.446  0.00  0.00    +0.038 C 
BRANCH  18  20
ATOM     20  C   UNL     1      34.185 -22.947 -15.261  0.00  0.00    +0.003 C 
ATOM     21  C   UNL     1      33.019 -23.377 -14.649  0.00  0.00    +0.040 C 
ATOM     22  C   UNL     1      33.077 -23.899 -13.357  0.00  0.00    +0.172 C 
ATOM     23  C   UNL     1      35.409 -23.024 -14.614  0.00  0.00    +0.003 C 
ATOM     24  C   UNL     1      34.301 -23.982 -12.693  0.00  0.00    +0.168 C 
ATOM     25  C   UNL     1      35.467 -23.545 -13.322  0.00  0.00    +0.040 C 
BRANCH  22  26
ATOM     26  O   UNL     1      31.932 -24.324 -12.754  0.00  0.00    -0.468 OA
ATOM     27  C   UNL     1      30.854 -24.708 -13.606  0.00  0.00    +0.253 C 
ENDBRANCH  22  26
BRANCH  24  28
ATOM     28  O   UNL     1      34.372 -24.491 -11.431  0.00  0.00    -0.503 OA
ATOM     29  H   UNL     1      33.664 -24.355 -10.832  0.00  0.00    +0.292 HD
ENDBRANCH  24  28
ENDBRANCH  18  20
ENDBRANCH  17  19
ENDBRANCH   1  17
TORSDOF 10
ENDMDL
MODEL 5
REMARK VINA RESULT:     -12.1      0.967     10.855
REMARK  Name = 969516
REMARK  10 active torsions:
REMARK  status: ('A' for Active; 'I' for Inactive)
REMARK    1  A    between atoms: C_1  and  C_3
REMARK    2  A    between atoms: C_1  and  C_17
REMARK    3  A    between atoms: C_3  and  C_5
REMARK    4  A    between atoms: C_4  and  C_6
REMARK    5  A    between atoms: C_8  and  O_12
REMARK    6  A    between atoms: C_10  and  O_14
REMARK    7  A    between atoms: C_17  and  C_19
REMARK    8  A    between atoms: C_18  and  C_20
REMARK    9  A    between atoms: C_22  and  O_26
REMARK   10  A    between atoms: C_24  and  O_28
REMARK                            x       y       z     vdW  Elec       q    Type
REMARK                         _______ _______ _______ _____ _____    ______ ____
ROOT
ATOM      1  C   UNL     1      34.445 -21.838 -19.513  0.00  0.00    +0.138 C 
ENDROOT
BRANCH   1   3
ATOM      2  O   UNL     1      32.083 -21.378 -19.386  0.00  0.00    -0.291 OA
ATOM      3  C   UNL     1      33.090 -21.815 -18.835  0.00  0.00    +0.181 C 
BRANCH   3   5
ATOM      4  C   UNL     1      34.122 -22.369 -16.672  0.00  0.00    +0.003 C 
ATOM      5  C   UNL     1      33.041 -22.404 -17.464  0.00  0.00    +0.038 C 
BRANCH   4   6
ATOM      6  C   UNL     1      34.181 -22.930 -15.311  0.00  0.00    +0.003 C 
ATOM      7  C   UNL     1      33.005 -23.301 -14.678  0.00  0.00    +0.040 C 
ATOM      8  C   UNL     1      33.062 -23.831 -13.389  0.00  0.00    +0.172 C 
ATOM      9  C   UNL     1      35.411 -23.074 -14.690  0.00  0.00    +0.003 C 
ATOM     10  C   UNL     1      34.292 -23.983 -12.751  0.00  0.00    +0.168 C 
ATOM     11  C   UNL     1      35.467 -23.605 -13.401  0.00  0.00    +0.040 C 
BRANCH   8  12
ATOM     12  O   UNL     1      31.908 -24.197 -12.765  0.00  0.00    -0.468 OA
ATOM     13  C   UNL     1      30.850 -24.683 -13.588  0.00  0.00    +0.253 C 
ENDBRANCH   8  12
BRANCH  10  14
ATOM     14  O   UNL     1      34.360 -24.501 -11.493  0.00  0.00    -0.503 OA
ATOM     15  H   UNL     1      34.299 -23.935 -10.749  0.00  0.00    +0.292 HD
ENDBRANCH  10  14
ENDBRANCH   4   6
ENDBRANCH   3   5
ENDBRANCH   1   3
BRANCH   1  17
ATOM     16  O   UNL     1      36.038 -20.073 -19.111  0.00  0.00    -0.291 OA
ATOM     17  C   UNL     1      35.074 -20.479 -19.755  0.00  0.00    +0.181 C 
BRANCH  17  19
ATOM     18  C   UNL     1      35.086 -18.567 -21.304  0.00  0.00    +0.003 C 
ATOM     19  C   UNL     1      34.476 -19.677 -20.863  0.00  0.00    +0.038 C 
BRANCH  18  20
ATOM     20  C   UNL     1      34.574 -17.702 -22.381  0.00  0.00    +0.003 C 
ATOM     21  C   UNL     1      34.683 -16.327 -22.256  0.00  0.00    +0.040 C 
ATOM     22  C   UNL     1      34.198 -15.508 -23.276  0.00  0.00    +0.172 C 
ATOM     23  C   UNL     1      33.993 -18.282 -23.497  0.00  0.00    +0.003 C 
ATOM     24  C   UNL     1      33.611 -16.076 -24.406  0.00  0.00    +0.168 C 
ATOM     25  C   UNL     1      33.508 -17.463 -24.517  0.00  0.00    +0.040 C 
BRANCH  22  26
ATOM     26  O   UNL     1      34.305 -14.155 -23.157  0.00  0.00    -0.468 OA
ATOM     27  C   UNL     1      33.768 -13.563 -21.976  0.00  0.00    +0.253 C 
ENDBRANCH  22  26
BRANCH  24  28
ATOM     28  O   UNL     1      33.135 -15.288 -25.410  0.00  0.00    -0.503 OA
ATOM     29  H   UNL     1      33.168 -15.589 -26.297  0.00  0.00    +0.292 HD
ENDBRANCH  24  28
ENDBRANCH  18  20
ENDBRANCH  17  19
ENDBRANCH   1  17
TORSDOF 10
ENDMDL
MODEL 6
REMARK VINA RESULT:     -12.1      3.089     10.631
REMARK  Name = 969516
REMARK  10 active torsions:
REMARK  status: ('A' for Active; 'I' for Inactive)
REMARK    1  A    between atoms: C_1  and  C_3
REMARK    2  A    between atoms: C_1  and  C_17
REMARK    3  A    between atoms: C_3  and  C_5
REMARK    4  A    between atoms: C_4  and  C_6
REMARK    5  A    between atoms: C_8  and  O_12
REMARK    6  A    between atoms: C_10  and  O_14
REMARK    7  A    between atoms: C_17  and  C_19
REMARK    8  A    between atoms: C_18  and  C_20
REMARK    9  A    between atoms: C_22  and  O_26
REMARK   10  A    between atoms: C_24  and  O_28
REMARK                            x       y       z     vdW  Elec       q    Type
REMARK                         _______ _______ _______ _____ _____    ______ ____
ROOT
ATOM      1  C   UNL     1      35.173 -17.573 -22.480  0.00  0.00    +0.138 C 
ENDROOT
BRANCH   1   3
ATOM      2  O   UNL     1      33.699 -18.930 -23.818  0.00  0.00    -0.291 OA
ATOM      3  C   UNL     1      34.137 -18.656 -22.704  0.00  0.00    +0.181 C 
BRANCH   3   5
ATOM      4  C   UNL     1      34.610 -20.086 -20.760  0.00  0.00    +0.003 C 
ATOM      5  C   UNL     1      33.711 -19.408 -21.486  0.00  0.00    +0.038 C 
BRANCH   4   6
ATOM      6  C   UNL     1      34.292 -20.867 -19.550  0.00  0.00    +0.003 C 
ATOM      7  C   UNL     1      35.309 -21.196 -18.668  0.00  0.00    +0.040 C 
ATOM      8  C   UNL     1      35.007 -21.935 -17.525  0.00  0.00    +0.172 C 
ATOM      9  C   UNL     1      32.984 -21.257 -19.321  0.00  0.00    +0.003 C 
ATOM     10  C   UNL     1      33.695 -22.336 -17.280  0.00  0.00    +0.168 C 
ATOM     11  C   UNL     1      32.682 -21.997 -18.177  0.00  0.00    +0.040 C 
BRANCH   8  12
ATOM     12  O   UNL     1      36.005 -22.260 -16.655  0.00  0.00    -0.468 OA
ATOM     13  C   UNL     1      36.867 -21.205 -16.233  0.00  0.00    +0.253 C 
ENDBRANCH   8  12
BRANCH  10  14
ATOM     14  O   UNL     1      33.388 -23.057 -16.165  0.00  0.00    -0.503 OA
ATOM     15  H   UNL     1      33.536 -23.982 -16.150  0.00  0.00    +0.292 HD
ENDBRANCH  10  14
ENDBRANCH   4   6
ENDBRANCH   3   5
ENDBRANCH   1   3
BRANCH   1  17
ATOM     16  O   UNL     1      34.901 -16.635 -20.275  0.00  0.00    -0.291 OA
ATOM     17  C   UNL     1      34.780 -16.493 -21.490  0.00  0.00    +0.181 C 
BRANCH  17  19
ATOM     18  C   UNL     1      33.619 -14.330 -21.327  0.00  0.00    +0.003 C 
ATOM     19  C   UNL     1      34.277 -15.220 -22.084  0.00  0.00    +0.038 C 
BRANCH  18  20
ATOM     20  C   UNL     1      33.075 -13.053 -21.819  0.00  0.00    +0.003 C 
ATOM     21  C   UNL     1      32.078 -12.417 -21.098  0.00  0.00    +0.040 C 
ATOM     22  C   UNL     1      31.562 -11.208 -21.564  0.00  0.00    +0.172 C 
ATOM     23  C   UNL     1      33.570 -12.513 -22.995  0.00  0.00    +0.003 C 
ATOM     24  C   UNL     1      32.050 -10.652 -22.746  0.00  0.00    +0.168 C 
ATOM     25  C   UNL     1      33.054 -11.304 -23.462  0.00  0.00    +0.040 C 
BRANCH  22  26
ATOM     26  O   UNL     1      30.582 -10.580 -20.856  0.00  0.00    -0.468 OA
ATOM     27  C   UNL     1      30.994  -9.781 -19.748  0.00  0.00    +0.253 C 
ENDBRANCH  22  26
BRANCH  24  28
ATOM     28  O   UNL     1      31.556  -9.470 -23.211  0.00  0.00    -0.503 OA
ATOM     29  H   UNL     1      31.769  -8.669 -22.773  0.00  0.00    +0.292 HD
ENDBRANCH  24  28
ENDBRANCH  18  20
ENDBRANCH  17  19
ENDBRANCH   1  17
TORSDOF 10
ENDMDL
MODEL 7
REMARK VINA RESULT:     -12.0      1.636     10.941
REMARK  Name = 969516
REMARK  10 active torsions:
REMARK  status: ('A' for Active; 'I' for Inactive)
REMARK    1  A    between atoms: C_1  and  C_3
REMARK    2  A    between atoms: C_1  and  C_17
REMARK    3  A    between atoms: C_3  and  C_5
REMARK    4  A    between atoms: C_4  and  C_6
REMARK    5  A    between atoms: C_8  and  O_12
REMARK    6  A    between atoms: C_10  and  O_14
REMARK    7  A    between atoms: C_17  and  C_19
REMARK    8  A    between atoms: C_18  and  C_20
REMARK    9  A    between atoms: C_22  and  O_26
REMARK   10  A    between atoms: C_24  and  O_28
REMARK                            x       y       z     vdW  Elec       q    Type
REMARK                         _______ _______ _______ _____ _____    ______ ____
ROOT
ATOM      1  C   UNL     1      34.323 -21.976 -19.294  0.00  0.00    +0.138 C 
ENDROOT
BRANCH   1   3
ATOM      2  O   UNL     1      31.960 -21.527 -19.140  0.00  0.00    -0.291 OA
ATOM      3  C   UNL     1      32.983 -21.921 -18.587  0.00  0.00    +0.181 C 
BRANCH   3   5
ATOM      4  C   UNL     1      34.123 -22.669 -16.540  0.00  0.00    +0.003 C 
ATOM      5  C   UNL     1      32.972 -22.422 -17.180  0.00  0.00    +0.038 C 
BRANCH   4   6
ATOM      6  C   UNL     1      34.220 -23.174 -15.159  0.00  0.00    +0.003 C 
ATOM      7  C   UNL     1      35.425 -23.689 -14.708  0.00  0.00    +0.040 C 
ATOM      8  C   UNL     1      35.516 -24.168 -13.401  0.00  0.00    +0.172 C 
ATOM      9  C   UNL     1      33.105 -23.126 -14.339  0.00  0.00    +0.003 C 
ATOM     10  C   UNL     1      34.402 -24.127 -12.564  0.00  0.00    +0.168 C 
ATOM     11  C   UNL     1      33.196 -23.606 -13.032  0.00  0.00    +0.040 C 
BRANCH   8  12
ATOM     12  O   UNL     1      36.700 -24.674 -12.955  0.00  0.00    -0.468 OA
ATOM     13  C   UNL     1      36.972 -26.044 -13.247  0.00  0.00    +0.253 C 
ENDBRANCH   8  12
BRANCH  10  14
ATOM     14  O   UNL     1      34.480 -24.590 -11.285  0.00  0.00    -0.503 OA
ATOM     15  H   UNL     1      33.973 -25.333 -11.024  0.00  0.00    +0.292 HD
ENDBRANCH  10  14
ENDBRANCH   4   6
ENDBRANCH   3   5
ENDBRANCH   1   3
BRANCH   1  17
ATOM     16  O   UNL     1      35.988 -20.276 -18.909  0.00  0.00    -0.291 OA
ATOM     17  C   UNL     1      34.989 -20.634 -19.528  0.00  0.00    +0.181 C 
BRANCH  17  19
ATOM     18  C   UNL     1      35.140 -18.928 -21.294  0.00  0.00    +0.003 C 
ATOM     19  C   UNL     1      34.383 -19.786 -20.596  0.00  0.00    +0.038 C 
BRANCH  18  20
ATOM     20  C   UNL     1      34.638 -18.042 -22.358  0.00  0.00    +0.003 C 
ATOM     21  C   UNL     1      34.843 -16.676 -22.257  0.00  0.00    +0.040 C 
ATOM     22  C   UNL     1      34.366 -15.837 -23.265  0.00  0.00    +0.172 C 
ATOM     23  C   UNL     1      33.968 -18.593 -23.439  0.00  0.00    +0.003 C 
ATOM     24  C   UNL     1      33.691 -16.376 -24.359  0.00  0.00    +0.168 C 
ATOM     25  C   UNL     1      33.491 -17.754 -24.447  0.00  0.00    +0.040 C 
BRANCH  22  26
ATOM     26  O   UNL     1      34.568 -14.493 -23.169  0.00  0.00    -0.468 OA
ATOM     27  C   UNL     1      33.672 -13.760 -22.337  0.00  0.00    +0.253 C 
ENDBRANCH  22  26
BRANCH  24  28
ATOM     28  O   UNL     1      33.222 -15.568 -25.351  0.00  0.00    -0.503 OA
ATOM     29  H   UNL     1      33.815 -15.208 -25.981  0.00  0.00    +0.292 HD
ENDBRANCH  24  28
ENDBRANCH  18  20
ENDBRANCH  17  19
ENDBRANCH   1  17
TORSDOF 10
ENDMDL
MODEL 8
REMARK VINA RESULT:     -12.0      2.005      2.769
REMARK  Name = 969516
REMARK  10 active torsions:
REMARK  status: ('A' for Active; 'I' for Inactive)
REMARK    1  A    between atoms: C_1  and  C_3
REMARK    2  A    between atoms: C_1  and  C_17
REMARK    3  A    between atoms: C_3  and  C_5
REMARK    4  A    between atoms: C_4  and  C_6
REMARK    5  A    between atoms: C_8  and  O_12
REMARK    6  A    between atoms: C_10  and  O_14
REMARK    7  A    between atoms: C_17  and  C_19
REMARK    8  A    between atoms: C_18  and  C_20
REMARK    9  A    between atoms: C_22  and  O_26
REMARK   10  A    between atoms: C_24  and  O_28
REMARK                            x       y       z     vdW  Elec       q    Type
REMARK                         _______ _______ _______ _____ _____    ______ ____
ROOT
ATOM      1  C   UNL     1      34.109 -22.100 -19.257  0.00  0.00    +0.138 C 
ENDROOT
BRANCH   1   3
ATOM      2  O   UNL     1      35.794 -20.430 -18.836  0.00  0.00    -0.291 OA
ATOM      3  C   UNL     1      34.816 -20.780 -19.490  0.00  0.00    +0.181 C 
BRANCH   3   5
ATOM      4  C   UNL     1      35.033 -18.991 -21.164  0.00  0.00    +0.003 C 
ATOM      5  C   UNL     1      34.276 -19.944 -20.604  0.00  0.00    +0.038 C 
BRANCH   4   6
ATOM      6  C   UNL     1      34.591 -18.107 -22.258  0.00  0.00    +0.003 C 
ATOM      7  C   UNL     1      34.796 -16.740 -22.150  0.00  0.00    +0.040 C 
ATOM      8  C   UNL     1      34.377 -15.904 -23.185  0.00  0.00    +0.172 C 
ATOM      9  C   UNL     1      33.979 -18.659 -23.371  0.00  0.00    +0.003 C 
ATOM     10  C   UNL     1      33.759 -16.445 -24.312  0.00  0.00    +0.168 C 
ATOM     11  C   UNL     1      33.560 -17.822 -24.406  0.00  0.00    +0.040 C 
BRANCH   8  12
ATOM     12  O   UNL     1      34.577 -14.560 -23.083  0.00  0.00    -0.468 OA
ATOM     13  C   UNL     1      33.773 -13.855 -22.139  0.00  0.00    +0.253 C 
ENDBRANCH   8  12
BRANCH  10  14
ATOM     14  O   UNL     1      33.347 -15.638 -25.329  0.00  0.00    -0.503 OA
ATOM     15  H   UNL     1      33.904 -15.492 -26.068  0.00  0.00    +0.292 HD
ENDBRANCH  10  14
ENDBRANCH   4   6
ENDBRANCH   3   5
ENDBRANCH   1   3
BRANCH   1  17
ATOM     16  O   UNL     1      31.915 -21.511 -18.451  0.00  0.00    -0.291 OA
ATOM     17  C   UNL     1      32.990 -22.066 -18.235  0.00  0.00    +0.181 C 
BRANCH  17  19
ATOM     18  C   UNL     1      34.335 -22.499 -16.221  0.00  0.00    +0.003 C 
ATOM     19  C   UNL     1      33.255 -22.793 -16.959  0.00  0.00    +0.038 C 
BRANCH  18  20
ATOM     20  C   UNL     1      34.691 -23.163 -14.956  0.00  0.00    +0.003 C 
ATOM     21  C   UNL     1      35.981 -23.636 -14.777  0.00  0.00    +0.040 C 
ATOM     22  C   UNL     1      36.318 -24.265 -13.578  0.00  0.00    +0.172 C 
ATOM     23  C   UNL     1      33.728 -23.303 -13.969  0.00  0.00    +0.003 C 
ATOM     24  C   UNL     1      35.360 -24.413 -12.576  0.00  0.00    +0.168 C 
ATOM     25  C   UNL     1      34.065 -23.933 -12.771  0.00  0.00    +0.040 C 
BRANCH  22  26
ATOM     26  O   UNL     1      37.586 -24.730 -13.399  0.00  0.00    -0.468 OA
ATOM     27  C   UNL     1      38.505 -24.538 -14.472  0.00  0.00    +0.253 C 
ENDBRANCH  22  26
BRANCH  24  28
ATOM     28  O   UNL     1      35.676 -25.025 -11.400  0.00  0.00    -0.503 OA
ATOM     29  H   UNL     1      35.924 -24.510 -10.657  0.00  0.00    +0.292 HD
ENDBRANCH  24  28
ENDBRANCH  18  20
ENDBRANCH  17  19
ENDBRANCH   1  17
TORSDOF 10
ENDMDL
MODEL 9
REMARK VINA RESULT:     -11.6      3.323      6.367
REMARK  Name = 969516
REMARK  10 active torsions:
REMARK  status: ('A' for Active; 'I' for Inactive)
REMARK    1  A    between atoms: C_1  and  C_3
REMARK    2  A    between atoms: C_1  and  C_17
REMARK    3  A    between atoms: C_3  and  C_5
REMARK    4  A    between atoms: C_4  and  C_6
REMARK    5  A    between atoms: C_8  and  O_12
REMARK    6  A    between atoms: C_10  and  O_14
REMARK    7  A    between atoms: C_17  and  C_19
REMARK    8  A    between atoms: C_18  and  C_20
REMARK    9  A    between atoms: C_22  and  O_26
REMARK   10  A    between atoms: C_24  and  O_28
REMARK                            x       y       z     vdW  Elec       q    Type
REMARK                         _______ _______ _______ _____ _____    ______ ____
ROOT
ATOM      1  C   UNL     1      34.582 -16.873 -23.192  0.00  0.00    +0.138 C 
ENDROOT
BRANCH   1   3
ATOM      2  O   UNL     1      34.301 -15.471 -25.132  0.00  0.00    -0.291 OA
ATOM      3  C   UNL     1      34.196 -15.598 -23.915  0.00  0.00    +0.181 C 
BRANCH   3   5
ATOM      4  C   UNL     1      33.034 -13.451 -23.616  0.00  0.00    +0.003 C 
ATOM      5  C   UNL     1      33.631 -14.513 -23.058  0.00  0.00    +0.038 C 
BRANCH   4   6
ATOM      6  C   UNL     1      32.456 -12.324 -22.861  0.00  0.00    +0.003 C 
ATOM      7  C   UNL     1      32.468 -11.056 -23.421  0.00  0.00    +0.040 C 
ATOM      8  C   UNL     1      31.921  -9.990 -22.706  0.00  0.00    +0.172 C 
ATOM      9  C   UNL     1      31.915 -12.555 -21.607  0.00  0.00    +0.003 C 
ATOM     10  C   UNL     1      31.373 -10.206 -21.443  0.00  0.00    +0.168 C 
ATOM     11  C   UNL     1      31.369 -11.488 -20.893  0.00  0.00    +0.040 C 
BRANCH   8  12
ATOM     12  O   UNL     1      31.930  -8.743 -23.254  0.00  0.00    -0.468 OA
ATOM     13  C   UNL     1      33.059  -7.918 -22.972  0.00  0.00    +0.253 C 
ENDBRANCH   8  12
BRANCH  10  14
ATOM     14  O   UNL     1      30.835  -9.173 -20.736  0.00  0.00    -0.503 OA
ATOM     15  H   UNL     1      29.924  -9.175 -20.522  0.00  0.00    +0.292 HD
ENDBRANCH  10  14
ENDBRANCH   4   6
ENDBRANCH   3   5
ENDBRANCH   1   3
BRANCH   1  17
ATOM     16  O   UNL     1      33.413 -18.262 -24.779  0.00  0.00    -0.291 OA
ATOM     17  C   UNL     1      33.844 -18.121 -23.637  0.00  0.00    +0.181 C 
BRANCH  17  19
ATOM     18  C   UNL     1      34.140 -18.995 -21.356  0.00  0.00    +0.003 C 
ATOM     19  C   UNL     1      33.712 -19.197 -22.611  0.00  0.00    +0.038 C 
BRANCH  18  20
ATOM     20  C   UNL     1      34.065 -19.993 -20.275  0.00  0.00    +0.003 C 
ATOM     21  C   UNL     1      35.231 -20.409 -19.654  0.00  0.00    +0.040 C 
ATOM     22  C   UNL     1      35.160 -21.355 -18.631  0.00  0.00    +0.172 C 
ATOM     23  C   UNL     1      32.829 -20.496 -19.901  0.00  0.00    +0.003 C 
ATOM     24  C   UNL     1      33.924 -21.871 -18.243  0.00  0.00    +0.168 C 
ATOM     25  C   UNL     1      32.758 -21.442 -18.878  0.00  0.00    +0.040 C 
BRANCH  22  26
ATOM     26  O   UNL     1      36.305 -21.766 -18.018  0.00  0.00    -0.468 OA
ATOM     27  C   UNL     1      36.703 -21.057 -16.845  0.00  0.00    +0.253 C 
ENDBRANCH  22  26
BRANCH  24  28
ATOM     28  O   UNL     1      33.840 -22.793 -17.244  0.00  0.00    -0.503 OA
ATOM     29  H   UNL     1      33.308 -23.557 -17.356  0.00  0.00    +0.292 HD
ENDBRANCH  24  28
ENDBRANCH  18  20
ENDBRANCH  17  19
ENDBRANCH   1  17
TORSDOF 10
ENDMDL
