MODEL 1
REMARK VINA RESULT:     -11.7      0.000      0.000
REMARK  Name = 10024590
REMARK  7 active torsions:
REMARK  status: ('A' for Active; 'I' for Inactive)
REMARK    1  A    between atoms: C_5  and  C_12
REMARK    2  A    between atoms: C_8  and  C_17
REMARK    3  A    between atoms: C_12  and  C_16
REMARK    4  A    between atoms: C_17  and  C_18
REMARK    5  A    between atoms: C_18  and  N_19
REMARK    6  A    between atoms: C_18  and  C_23
REMARK    7  A    between atoms: C_23  and  C_27
REMARK                            x       y       z     vdW  Elec       q    Type
REMARK                         _______ _______ _______ _____ _____    ______ ____
ROOT
ATOM      1  O   UNL     1      37.579 -21.720 -15.600  0.00  0.00    -0.275 OA
ATOM      2  O   UNL     1      37.573 -22.085 -12.095  0.00  0.00    -0.273 OA
ATOM      3  N   UNL     1      36.252 -23.492 -14.853  0.00  0.00    -0.273 N 
ATOM      4  N   UNL     1      35.445 -22.917 -12.110  0.00  0.00    -0.303 N 
ATOM      5  C   UNL     1      37.102 -23.831 -13.697  0.00  0.00    +0.160 C 
ATOM      6  C   UNL     1      34.998 -24.249 -14.947  0.00  0.00    +0.096 C 
ATOM      7  C   UNL     1      33.963 -23.738 -13.942  0.00  0.00    +0.043 C 
ATOM      8  C   UNL     1      36.536 -22.376 -15.654  0.00  0.00    +0.224 C 
ATOM      9  C   UNL     1      34.419 -23.879 -12.491  0.00  0.00    +0.091 C 
ATOM     10  C   UNL     1      36.744 -22.860 -12.577  0.00  0.00    +0.241 C 
ATOM     11  H   UNL     1      35.185 -22.236 -11.448  0.00  0.00    +0.149 HD
ENDROOT
BRANCH   5  12
ATOM     12  C   UNL     1      38.597 -23.883 -14.005  0.00  0.00    +0.132 C 
BRANCH  12  16
ATOM     13  F   UNL     1      38.001 -26.114 -14.514  0.00  0.00    -0.170 F 
ATOM     14  F   UNL     1      39.817 -25.781 -13.355  0.00  0.00    -0.170 F 
ATOM     15  F   UNL     1      39.783 -25.300 -15.481  0.00  0.00    -0.170 F 
ATOM     16  C   UNL     1      39.049 -25.282 -14.347  0.00  0.00    +0.400 C 
ENDBRANCH  12  16
ENDBRANCH   5  12
BRANCH   8  17
ATOM     17  C   UNL     1      35.471 -21.966 -16.643  0.00  0.00    +0.064 C 
BRANCH  17  18
ATOM     18  C   UNL     1      36.077 -21.516 -17.973  0.00  0.00    -0.052 C 
BRANCH  18  19
ATOM     19  N   UNL     1      36.513 -20.124 -17.801  0.00  0.00    +0.382 N 
ATOM     20  H   UNL     1      36.812 -19.748 -18.701  0.00  0.00    -0.089 HD
ATOM     21  H   UNL     1      37.292 -20.090 -17.143  0.00  0.00    -0.089 HD
ATOM     22  H   UNL     1      35.738 -19.567 -17.441  0.00  0.00    -0.089 HD
ENDBRANCH  18  19
BRANCH  18  23
ATOM     23  C   UNL     1      35.083 -21.575 -19.152  0.00  0.00    +0.007 C 
BRANCH  23  27
ATOM     24  F   UNL     1      32.662 -20.387 -19.995  0.00  0.00    -0.204 F 
ATOM     25  F   UNL     1      37.318 -17.970 -21.539  0.00  0.00    -0.202 F 
ATOM     26  F   UNL     1      34.909 -16.915 -22.291  0.00  0.00    -0.202 F 
ATOM     27  C   UNL     1      35.034 -20.324 -19.995  0.00  0.00    +0.006 C 
ATOM     28  C   UNL     1      33.806 -19.799 -20.369  0.00  0.00    +0.138 C 
ATOM     29  C   UNL     1      36.221 -19.719 -20.380  0.00  0.00    +0.030 C 
ATOM     30  C   UNL     1      36.179 -18.563 -21.158  0.00  0.00    +0.167 C 
ATOM     31  C   UNL     1      33.764 -18.643 -21.147  0.00  0.00    +0.061 C 
ATOM     32  C   UNL     1      34.950 -18.025 -21.541  0.00  0.00    +0.170 C 
ENDBRANCH  23  27
ENDBRANCH  18  23
ENDBRANCH  17  18
ENDBRANCH   8  17
TORSDOF 7
ENDMDL
MODEL 2
REMARK VINA RESULT:     -10.8     11.174     15.958
REMARK  Name = 10024590
REMARK  7 active torsions:
REMARK  status: ('A' for Active; 'I' for Inactive)
REMARK    1  A    between atoms: C_5  and  C_12
REMARK    2  A    between atoms: C_8  and  C_17
REMARK    3  A    between atoms: C_12  and  C_16
REMARK    4  A    between atoms: C_17  and  C_18
REMARK    5  A    between atoms: C_18  and  N_19
REMARK    6  A    between atoms: C_18  and  C_23
REMARK    7  A    between atoms: C_23  and  C_27
REMARK                            x       y       z     vdW  Elec       q    Type
REMARK                         _______ _______ _______ _____ _____    ______ ____
ROOT
ATOM      1  O   UNL     1      31.507  -8.912 -23.607  0.00  0.00    -0.275 OA
ATOM      2  O   UNL     1      29.865  -5.823 -24.034  0.00  0.00    -0.273 OA
ATOM      3  N   UNL     1      32.286  -7.240 -22.174  0.00  0.00    -0.273 N 
ATOM      4  N   UNL     1      30.152  -5.281 -21.834  0.00  0.00    -0.303 N 
ATOM      5  C   UNL     1      32.080  -6.130 -23.122  0.00  0.00    +0.160 C 
ATOM      6  C   UNL     1      32.719  -6.838 -20.829  0.00  0.00    +0.096 C 
ATOM      7  C   UNL     1      31.556  -6.262 -20.019  0.00  0.00    +0.043 C 
ATOM      8  C   UNL     1      31.876  -8.543 -22.489  0.00  0.00    +0.224 C 
ATOM      9  C   UNL     1      30.953  -5.008 -20.647  0.00  0.00    +0.091 C 
ATOM     10  C   UNL     1      30.606  -5.747 -23.052  0.00  0.00    +0.241 C 
ATOM     11  H   UNL     1      29.185  -5.114 -21.759  0.00  0.00    +0.149 HD
ENDROOT
BRANCH   5  12
ATOM     12  C   UNL     1      32.571  -6.411 -24.541  0.00  0.00    +0.132 C 
BRANCH  12  16
ATOM     13  F   UNL     1      34.465  -6.103 -25.924  0.00  0.00    -0.170 F 
ATOM     14  F   UNL     1      34.665  -7.418 -24.196  0.00  0.00    -0.170 F 
ATOM     15  F   UNL     1      34.539  -5.260 -23.909  0.00  0.00    -0.170 F 
ATOM     16  C   UNL     1      34.072  -6.291 -24.647  0.00  0.00    +0.400 C 
ENDBRANCH  12  16
ENDBRANCH   5  12
BRANCH   8  17
ATOM     17  C   UNL     1      31.891  -9.548 -21.362  0.00  0.00    +0.064 C 
BRANCH  17  18
ATOM     18  C   UNL     1      31.457 -10.935 -21.835  0.00  0.00    -0.052 C 
BRANCH  18  19
ATOM     19  N   UNL     1      30.019 -11.058 -21.557  0.00  0.00    +0.382 N 
ATOM     20  H   UNL     1      29.523 -10.274 -21.981  0.00  0.00    -0.089 HD
ATOM     21  H   UNL     1      29.867 -11.050 -20.548  0.00  0.00    -0.089 HD
ATOM     22  H   UNL     1      29.671 -11.933 -21.947  0.00  0.00    -0.089 HD
ENDBRANCH  18  19
BRANCH  18  23
ATOM     23  C   UNL     1      32.192 -12.088 -21.118  0.00  0.00    +0.007 C 
BRANCH  23  27
ATOM     24  F   UNL     1      33.932 -14.120 -20.210  0.00  0.00    -0.204 F 
ATOM     25  F   UNL     1      32.824 -13.965 -25.563  0.00  0.00    -0.202 F 
ATOM     26  F   UNL     1      34.494 -15.886 -24.563  0.00  0.00    -0.202 F 
ATOM     27  C   UNL     1      32.811 -13.109 -22.041  0.00  0.00    +0.006 C 
ATOM     28  C   UNL     1      33.656 -14.077 -21.520  0.00  0.00    +0.138 C 
ATOM     29  C   UNL     1      32.523 -13.060 -23.396  0.00  0.00    +0.030 C 
ATOM     30  C   UNL     1      33.093 -14.002 -24.251  0.00  0.00    +0.167 C 
ATOM     31  C   UNL     1      34.226 -15.019 -22.376  0.00  0.00    +0.061 C 
ATOM     32  C   UNL     1      33.944 -14.982 -23.740  0.00  0.00    +0.170 C 
ENDBRANCH  23  27
ENDBRANCH  18  23
ENDBRANCH  17  18
ENDBRANCH   8  17
TORSDOF 7
ENDMDL
MODEL 3
REMARK VINA RESULT:     -10.7      1.353      2.473
REMARK  Name = 10024590
REMARK  7 active torsions:
REMARK  status: ('A' for Active; 'I' for Inactive)
REMARK    1  A    between atoms: C_5  and  C_12
REMARK    2  A    between atoms: C_8  and  C_17
REMARK    3  A    between atoms: C_12  and  C_16
REMARK    4  A    between atoms: C_17  and  C_18
REMARK    5  A    between atoms: C_18  and  N_19
REMARK    6  A    between atoms: C_18  and  C_23
REMARK    7  A    between atoms: C_23  and  C_27
REMARK                            x       y       z     vdW  Elec       q    Type
REMARK                         _______ _______ _______ _____ _____    ______ ____
ROOT
ATOM      1  O   UNL     1      37.451 -21.908 -14.524  0.00  0.00    -0.275 OA
ATOM      2  O   UNL     1      36.300 -22.465 -11.240  0.00  0.00    -0.273 OA
ATOM      3  N   UNL     1      35.867 -23.617 -14.373  0.00  0.00    -0.273 N 
ATOM      4  N   UNL     1      34.251 -23.139 -11.993  0.00  0.00    -0.303 N 
ATOM      5  C   UNL     1      36.281 -24.080 -13.036  0.00  0.00    +0.160 C 
ATOM      6  C   UNL     1      34.672 -24.275 -14.917  0.00  0.00    +0.096 C 
ATOM      7  C   UNL     1      33.397 -23.747 -14.257  0.00  0.00    +0.043 C 
ATOM      8  C   UNL     1      36.449 -22.482 -14.956  0.00  0.00    +0.224 C 
ATOM      9  C   UNL     1      33.354 -24.001 -12.752  0.00  0.00    +0.091 C 
ATOM     10  C   UNL     1      35.632 -23.150 -12.017  0.00  0.00    +0.241 C 
ATOM     11  H   UNL     1      33.827 -22.478 -11.398  0.00  0.00    +0.149 HD
ENDROOT
BRANCH   5  12
ATOM     12  C   UNL     1      37.791 -24.223 -12.856  0.00  0.00    +0.132 C 
BRANCH  12  16
ATOM     13  F   UNL     1      37.481 -26.385 -13.766  0.00  0.00    -0.170 F 
ATOM     14  F   UNL     1      39.491 -25.819 -13.138  0.00  0.00    -0.170 F 
ATOM     15  F   UNL     1      38.633 -24.950 -14.944  0.00  0.00    -0.170 F 
ATOM     16  C   UNL     1      38.348 -25.354 -13.687  0.00  0.00    +0.400 C 
ENDBRANCH  12  16
ENDBRANCH   5  12
BRANCH   8  17
ATOM     17  C   UNL     1      35.782 -21.942 -16.198  0.00  0.00    +0.064 C 
BRANCH  17  18
ATOM     18  C   UNL     1      36.797 -21.339 -17.169  0.00  0.00    -0.052 C 
BRANCH  18  19
ATOM     19  N   UNL     1      36.795 -19.886 -16.952  0.00  0.00    +0.382 N 
ATOM     20  H   UNL     1      37.475 -19.449 -17.575  0.00  0.00    -0.089 HD
ATOM     21  H   UNL     1      37.044 -19.687 -15.983  0.00  0.00    -0.089 HD
ATOM     22  H   UNL     1      35.866 -19.515 -17.148  0.00  0.00    -0.089 HD
ENDBRANCH  18  19
BRANCH  18  23
ATOM     23  C   UNL     1      36.465 -21.612 -18.652  0.00  0.00    +0.007 C 
BRANCH  23  27
ATOM     24  F   UNL     1      36.088 -19.637 -20.637  0.00  0.00    -0.204 F 
ATOM     25  F   UNL     1      31.611 -21.771 -18.332  0.00  0.00    -0.202 F 
ATOM     26  F   UNL     1      31.376 -19.853 -20.266  0.00  0.00    -0.202 F 
ATOM     27  C   UNL     1      35.100 -21.138 -19.087  0.00  0.00    +0.006 C 
ATOM     28  C   UNL     1      34.995 -20.165 -20.069  0.00  0.00    +0.138 C 
ATOM     29  C   UNL     1      33.972 -21.687 -18.496  0.00  0.00    +0.030 C 
ATOM     30  C   UNL     1      32.709 -21.251 -18.896  0.00  0.00    +0.167 C 
ATOM     31  C   UNL     1      33.732 -19.730 -20.469  0.00  0.00    +0.061 C 
ATOM     32  C   UNL     1      32.590 -20.273 -19.883  0.00  0.00    +0.170 C 
ENDBRANCH  23  27
ENDBRANCH  18  23
ENDBRANCH  17  18
ENDBRANCH   8  17
TORSDOF 7
ENDMDL
MODEL 4
REMARK VINA RESULT:     -10.7      3.238      4.395
REMARK  Name = 10024590
REMARK  7 active torsions:
REMARK  status: ('A' for Active; 'I' for Inactive)
REMARK    1  A    between atoms: C_5  and  C_12
REMARK    2  A    between atoms: C_8  and  C_17
REMARK    3  A    between atoms: C_12  and  C_16
REMARK    4  A    between atoms: C_17  and  C_18
REMARK    5  A    between atoms: C_18  and  N_19
REMARK    6  A    between atoms: C_18  and  C_23
REMARK    7  A    between atoms: C_23  and  C_27
REMARK                            x       y       z     vdW  Elec       q    Type
REMARK                         _______ _______ _______ _____ _____    ______ ____
ROOT
ATOM      1  O   UNL     1      33.782 -22.792 -18.312  0.00  0.00    -0.275 OA
ATOM      2  O   UNL     1      34.539 -25.026 -15.695  0.00  0.00    -0.273 OA
ATOM      3  N   UNL     1      35.020 -21.816 -16.589  0.00  0.00    -0.273 N 
ATOM      4  N   UNL     1      36.492 -23.936 -15.229  0.00  0.00    -0.303 N 
ATOM      5  C   UNL     1      34.421 -22.621 -15.508  0.00  0.00    +0.160 C 
ATOM      6  C   UNL     1      36.121 -20.937 -16.174  0.00  0.00    +0.096 C 
ATOM      7  C   UNL     1      37.410 -21.728 -15.946  0.00  0.00    +0.043 C 
ATOM      8  C   UNL     1      34.699 -22.060 -17.932  0.00  0.00    +0.224 C 
ATOM      9  C   UNL     1      37.282 -22.774 -14.840  0.00  0.00    +0.091 C 
ATOM     10  C   UNL     1      35.138 -23.967 -15.499  0.00  0.00    +0.241 C 
ATOM     11  H   UNL     1      36.976 -24.790 -15.306  0.00  0.00    +0.149 HD
ENDROOT
BRANCH   5  12
ATOM     12  C   UNL     1      32.900 -22.740 -15.578  0.00  0.00    +0.132 C 
BRANCH  12  16
ATOM     13  F   UNL     1      31.543 -24.055 -14.156  0.00  0.00    -0.170 F 
ATOM     14  F   UNL     1      31.491 -21.890 -13.902  0.00  0.00    -0.170 F 
ATOM     15  F   UNL     1      33.241 -23.018 -13.254  0.00  0.00    -0.170 F 
ATOM     16  C   UNL     1      32.291 -22.934 -14.210  0.00  0.00    +0.400 C 
ENDBRANCH  12  16
ENDBRANCH   5  12
BRANCH   8  17
ATOM     17  C   UNL     1      35.553 -21.368 -18.968  0.00  0.00    +0.064 C 
BRANCH  17  18
ATOM     18  C   UNL     1      34.783 -20.260 -19.686  0.00  0.00    -0.052 C 
BRANCH  18  19
ATOM     19  N   UNL     1      33.368 -20.655 -19.702  0.00  0.00    +0.382 N 
ATOM     20  H   UNL     1      33.295 -21.650 -19.919  0.00  0.00    -0.089 HD
ATOM     21  H   UNL     1      32.873 -20.116 -20.412  0.00  0.00    -0.089 HD
ATOM     22  H   UNL     1      32.955 -20.476 -18.788  0.00  0.00    -0.089 HD
ENDBRANCH  18  19
BRANCH  18  23
ATOM     23  C   UNL     1      35.244 -20.036 -21.142  0.00  0.00    +0.007 C 
BRANCH  23  27
ATOM     24  F   UNL     1      34.529 -19.679 -23.853  0.00  0.00    -0.204 F 
ATOM     25  F   UNL     1      34.526 -15.248 -20.646  0.00  0.00    -0.202 F 
ATOM     26  F   UNL     1      33.851 -15.030 -23.288  0.00  0.00    -0.202 F 
ATOM     27  C   UNL     1      34.869 -18.693 -21.720  0.00  0.00    +0.006 C 
ATOM     28  C   UNL     1      34.529 -18.597 -23.061  0.00  0.00    +0.138 C 
ATOM     29  C   UNL     1      34.871 -17.577 -20.898  0.00  0.00    +0.030 C 
ATOM     30  C   UNL     1      34.526 -16.335 -21.429  0.00  0.00    +0.167 C 
ATOM     31  C   UNL     1      34.184 -17.355 -23.592  0.00  0.00    +0.061 C 
ATOM     32  C   UNL     1      34.181 -16.224 -22.777  0.00  0.00    +0.170 C 
ENDBRANCH  23  27
ENDBRANCH  18  23
ENDBRANCH  17  18
ENDBRANCH   8  17
TORSDOF 7
ENDMDL
MODEL 5
REMARK VINA RESULT:     -10.6      5.175      6.864
REMARK  Name = 10024590
REMARK  7 active torsions:
REMARK  status: ('A' for Active; 'I' for Inactive)
REMARK    1  A    between atoms: C_5  and  C_12
REMARK    2  A    between atoms: C_8  and  C_17
REMARK    3  A    between atoms: C_12  and  C_16
REMARK    4  A    between atoms: C_17  and  C_18
REMARK    5  A    between atoms: C_18  and  N_19
REMARK    6  A    between atoms: C_18  and  C_23
REMARK    7  A    between atoms: C_23  and  C_27
REMARK                            x       y       z     vdW  Elec       q    Type
REMARK                         _______ _______ _______ _____ _____    ______ ____
ROOT
ATOM      1  O   UNL     1      34.271 -24.727 -14.420  0.00  0.00    -0.275 OA
ATOM      2  O   UNL     1      37.069 -26.777 -13.796  0.00  0.00    -0.273 OA
ATOM      3  N   UNL     1      36.254 -23.528 -14.132  0.00  0.00    -0.273 N 
ATOM      4  N   UNL     1      38.477 -25.291 -14.809  0.00  0.00    -0.303 N 
ATOM      5  C   UNL     1      36.845 -24.460 -13.153  0.00  0.00    +0.160 C 
ATOM      6  C   UNL     1      37.136 -22.435 -14.561  0.00  0.00    +0.096 C 
ATOM      7  C   UNL     1      38.191 -22.926 -15.553  0.00  0.00    +0.043 C 
ATOM      8  C   UNL     1      35.032 -23.817 -14.756  0.00  0.00    +0.224 C 
ATOM      9  C   UNL     1      39.115 -23.990 -14.964  0.00  0.00    +0.091 C 
ATOM     10  C   UNL     1      37.452 -25.615 -13.942  0.00  0.00    +0.241 C 
ATOM     11  H   UNL     1      38.814 -26.017 -15.383  0.00  0.00    +0.149 HD
ENDROOT
BRANCH   5  12
ATOM     12  C   UNL     1      35.888 -24.910 -12.051  0.00  0.00    +0.132 C 
BRANCH  12  16
ATOM     13  F   UNL     1      35.246 -24.279  -9.864  0.00  0.00    -0.170 F 
ATOM     14  F   UNL     1      34.579 -23.032 -11.524  0.00  0.00    -0.170 F 
ATOM     15  F   UNL     1      36.671 -22.992 -10.908  0.00  0.00    -0.170 F 
ATOM     16  C   UNL     1      35.598 -23.797 -11.074  0.00  0.00    +0.400 C 
ENDBRANCH  12  16
ENDBRANCH   5  12
BRANCH   8  17
ATOM     17  C   UNL     1      34.645 -22.939 -15.922  0.00  0.00    +0.064 C 
BRANCH  17  18
ATOM     18  C   UNL     1      33.189 -23.158 -16.335  0.00  0.00    -0.052 C 
BRANCH  18  19
ATOM     19  N   UNL     1      33.039 -22.623 -17.695  0.00  0.00    +0.382 N 
ATOM     20  H   UNL     1      32.625 -23.336 -18.297  0.00  0.00    -0.089 HD
ATOM     21  H   UNL     1      33.955 -22.362 -18.060  0.00  0.00    -0.089 HD
ATOM     22  H   UNL     1      32.434 -21.803 -17.673  0.00  0.00    -0.089 HD
ENDBRANCH  18  19
BRANCH  18  23
ATOM     23  C   UNL     1      32.176 -22.444 -15.415  0.00  0.00    +0.007 C 
BRANCH  23  27
ATOM     24  F   UNL     1      32.059 -23.832 -12.957  0.00  0.00    -0.204 F 
ATOM     25  F   UNL     1      27.764 -24.293 -16.312  0.00  0.00    -0.202 F 
ATOM     26  F   UNL     1      27.769 -25.589 -13.904  0.00  0.00    -0.202 F 
ATOM     27  C   UNL     1      30.994 -23.288 -15.007  0.00  0.00    +0.006 C 
ATOM     28  C   UNL     1      31.009 -23.940 -13.784  0.00  0.00    +0.138 C 
ATOM     29  C   UNL     1      29.910 -23.398 -15.866  0.00  0.00    +0.030 C 
ATOM     30  C   UNL     1      28.816 -24.177 -15.491  0.00  0.00    +0.167 C 
ATOM     31  C   UNL     1      29.915 -24.720 -13.409  0.00  0.00    +0.061 C 
ATOM     32  C   UNL     1      28.819 -24.838 -14.262  0.00  0.00    +0.170 C 
ENDBRANCH  23  27
ENDBRANCH  18  23
ENDBRANCH  17  18
ENDBRANCH   8  17
TORSDOF 7
ENDMDL
MODEL 6
REMARK VINA RESULT:     -10.5     10.834     15.956
REMARK  Name = 10024590
REMARK  7 active torsions:
REMARK  status: ('A' for Active; 'I' for Inactive)
REMARK    1  A    between atoms: C_5  and  C_12
REMARK    2  A    between atoms: C_8  and  C_17
REMARK    3  A    between atoms: C_12  and  C_16
REMARK    4  A    between atoms: C_17  and  C_18
REMARK    5  A    between atoms: C_18  and  N_19
REMARK    6  A    between atoms: C_18  and  C_23
REMARK    7  A    between atoms: C_23  and  C_27
REMARK                            x       y       z     vdW  Elec       q    Type
REMARK                         _______ _______ _______ _____ _____    ______ ____
ROOT
ATOM      1  O   UNL     1      31.156  -8.706 -23.820  0.00  0.00    -0.275 OA
ATOM      2  O   UNL     1      29.954  -5.394 -23.881  0.00  0.00    -0.273 OA
ATOM      3  N   UNL     1      32.151  -7.328 -22.218  0.00  0.00    -0.273 N 
ATOM      4  N   UNL     1      30.304  -5.146 -21.637  0.00  0.00    -0.303 N 
ATOM      5  C   UNL     1      32.103  -6.100 -23.034  0.00  0.00    +0.160 C 
ATOM      6  C   UNL     1      32.629  -7.143 -20.842  0.00  0.00    +0.096 C 
ATOM      7  C   UNL     1      31.553  -6.509 -19.959  0.00  0.00    +0.043 C 
ATOM      8  C   UNL     1      31.567  -8.519 -22.672  0.00  0.00    +0.224 C 
ATOM      9  C   UNL     1      31.130  -5.121 -20.436  0.00  0.00    +0.091 C 
ATOM     10  C   UNL     1      30.694  -5.530 -22.905  0.00  0.00    +0.241 C 
ATOM     11  H   UNL     1      29.368  -4.859 -21.532  0.00  0.00    +0.149 HD
ENDROOT
BRANCH   5  12
ATOM     12  C   UNL     1      32.556  -6.285 -24.480  0.00  0.00    +0.132 C 
BRANCH  12  16
ATOM     13  F   UNL     1      34.644  -7.337 -24.121  0.00  0.00    -0.170 F 
ATOM     14  F   UNL     1      34.544  -5.168 -23.916  0.00  0.00    -0.170 F 
ATOM     15  F   UNL     1      34.441  -6.078 -25.895  0.00  0.00    -0.170 F 
ATOM     16  C   UNL     1      34.059  -6.222 -24.607  0.00  0.00    +0.400 C 
ENDBRANCH  12  16
ENDBRANCH   5  12
BRANCH   8  17
ATOM     17  C   UNL     1      31.440  -9.637 -21.665  0.00  0.00    +0.064 C 
BRANCH  17  18
ATOM     18  C   UNL     1      31.565 -11.010 -22.326  0.00  0.00    -0.052 C 
BRANCH  18  19
ATOM     19  N   UNL     1      31.168 -12.010 -21.325  0.00  0.00    +0.382 N 
ATOM     20  H   UNL     1      31.782 -12.822 -21.395  0.00  0.00    -0.089 HD
ATOM     21  H   UNL     1      30.205 -12.297 -21.496  0.00  0.00    -0.089 HD
ATOM     22  H   UNL     1      31.244 -11.606 -20.393  0.00  0.00    -0.089 HD
ENDBRANCH  18  19
BRANCH  18  23
ATOM     23  C   UNL     1      32.998 -11.336 -22.800  0.00  0.00    +0.007 C 
BRANCH  23  27
ATOM     24  F   UNL     1      32.539 -12.723 -25.218  0.00  0.00    -0.204 F 
ATOM     25  F   UNL     1      34.554 -15.589 -21.019  0.00  0.00    -0.202 F 
ATOM     26  F   UNL     1      34.069 -16.820 -23.412  0.00  0.00    -0.202 F 
ATOM     27  C   UNL     1      33.285 -12.808 -22.966  0.00  0.00    +0.006 C 
ATOM     28  C   UNL     1      33.034 -13.419 -24.185  0.00  0.00    +0.138 C 
ATOM     29  C   UNL     1      33.796 -13.524 -21.895  0.00  0.00    +0.030 C 
ATOM     30  C   UNL     1      34.062 -14.885 -22.046  0.00  0.00    +0.167 C 
ATOM     31  C   UNL     1      33.300 -14.779 -24.337  0.00  0.00    +0.061 C 
ATOM     32  C   UNL     1      33.815 -15.512 -23.268  0.00  0.00    +0.170 C 
ENDBRANCH  23  27
ENDBRANCH  18  23
ENDBRANCH  17  18
ENDBRANCH   8  17
TORSDOF 7
ENDMDL
MODEL 7
REMARK VINA RESULT:     -10.4      2.803      4.091
REMARK  Name = 10024590
REMARK  7 active torsions:
REMARK  status: ('A' for Active; 'I' for Inactive)
REMARK    1  A    between atoms: C_5  and  C_12
REMARK    2  A    between atoms: C_8  and  C_17
REMARK    3  A    between atoms: C_12  and  C_16
REMARK    4  A    between atoms: C_17  and  C_18
REMARK    5  A    between atoms: C_18  and  N_19
REMARK    6  A    between atoms: C_18  and  C_23
REMARK    7  A    between atoms: C_23  and  C_27
REMARK                            x       y       z     vdW  Elec       q    Type
REMARK                         _______ _______ _______ _____ _____    ______ ____
ROOT
ATOM      1  O   UNL     1      34.673 -24.370 -14.266  0.00  0.00    -0.275 OA
ATOM      2  O   UNL     1      36.459 -27.180 -13.112  0.00  0.00    -0.273 OA
ATOM      3  N   UNL     1      36.870 -23.881 -13.641  0.00  0.00    -0.273 N 
ATOM      4  N   UNL     1      38.438 -26.330 -13.875  0.00  0.00    -0.303 N 
ATOM      5  C   UNL     1      36.937 -24.878 -12.557  0.00  0.00    +0.160 C 
ATOM      6  C   UNL     1      38.129 -23.180 -13.920  0.00  0.00    +0.096 C 
ATOM      7  C   UNL     1      39.103 -24.069 -14.696  0.00  0.00    +0.043 C 
ATOM      8  C   UNL     1      35.744 -23.794 -14.473  0.00  0.00    +0.224 C 
ATOM      9  C   UNL     1      39.497 -25.331 -13.932  0.00  0.00    +0.091 C 
ATOM     10  C   UNL     1      37.235 -26.227 -13.204  0.00  0.00    +0.241 C 
ATOM     11  H   UNL     1      38.597 -27.168 -14.367  0.00  0.00    +0.149 HD
ENDROOT
BRANCH   5  12
ATOM     12  C   UNL     1      35.715 -24.898 -11.641  0.00  0.00    +0.132 C 
BRANCH  12  16
ATOM     13  F   UNL     1      35.288 -23.937  -9.522  0.00  0.00    -0.170 F 
ATOM     14  F   UNL     1      34.696 -22.811 -11.293  0.00  0.00    -0.170 F 
ATOM     15  F   UNL     1      36.806 -22.987 -10.773  0.00  0.00    -0.170 F 
ATOM     16  C   UNL     1      35.630 -23.651 -10.795  0.00  0.00    +0.400 C 
ENDBRANCH  12  16
ENDBRANCH   5  12
BRANCH   8  17
ATOM     17  C   UNL     1      35.878 -22.929 -15.703  0.00  0.00    +0.064 C 
BRANCH  17  18
ATOM     18  C   UNL     1      34.591 -22.157 -15.994  0.00  0.00    -0.052 C 
BRANCH  18  19
ATOM     19  N   UNL     1      33.709 -22.331 -14.832  0.00  0.00    +0.382 N 
ATOM     20  H   UNL     1      33.646 -23.322 -14.598  0.00  0.00    -0.089 HD
ATOM     21  H   UNL     1      32.780 -21.974 -15.055  0.00  0.00    -0.089 HD
ATOM     22  H   UNL     1      34.090 -21.818 -14.038  0.00  0.00    -0.089 HD
ENDBRANCH  18  19
BRANCH  18  23
ATOM     23  C   UNL     1      33.846 -22.657 -17.251  0.00  0.00    +0.007 C 
BRANCH  23  27
ATOM     24  F   UNL     1      36.237 -21.666 -18.384  0.00  0.00    -0.204 F 
ATOM     25  F   UNL     1      31.523 -19.966 -20.576  0.00  0.00    -0.202 F 
ATOM     26  F   UNL     1      33.904 -19.079 -21.586  0.00  0.00    -0.202 F 
ATOM     27  C   UNL     1      33.864 -21.696 -18.415  0.00  0.00    +0.006 C 
ATOM     28  C   UNL     1      35.078 -21.255 -18.918  0.00  0.00    +0.138 C 
ATOM     29  C   UNL     1      32.663 -21.273 -18.963  0.00  0.00    +0.030 C 
ATOM     30  C   UNL     1      32.676 -20.385 -20.038  0.00  0.00    +0.167 C 
ATOM     31  C   UNL     1      35.092 -20.367 -19.993  0.00  0.00    +0.061 C 
ATOM     32  C   UNL     1      33.891 -19.933 -20.554  0.00  0.00    +0.170 C 
ENDBRANCH  23  27
ENDBRANCH  18  23
ENDBRANCH  17  18
ENDBRANCH   8  17
TORSDOF 7
ENDMDL
MODEL 8
REMARK VINA RESULT:     -10.4      1.773      2.241
REMARK  Name = 10024590
REMARK  7 active torsions:
REMARK  status: ('A' for Active; 'I' for Inactive)
REMARK    1  A    between atoms: C_5  and  C_12
REMARK    2  A    between atoms: C_8  and  C_17
REMARK    3  A    between atoms: C_12  and  C_16
REMARK    4  A    between atoms: C_17  and  C_18
REMARK    5  A    between atoms: C_18  and  N_19
REMARK    6  A    between atoms: C_18  and  C_23
REMARK    7  A    between atoms: C_23  and  C_27
REMARK                            x       y       z     vdW  Elec       q    Type
REMARK                         _______ _______ _______ _____ _____    ______ ____
ROOT
ATOM      1  O   UNL     1      35.695 -22.399 -16.429  0.00  0.00    -0.275 OA
ATOM      2  O   UNL     1      37.128 -21.835 -13.259  0.00  0.00    -0.273 OA
ATOM      3  N   UNL     1      35.111 -24.014 -14.846  0.00  0.00    -0.273 N 
ATOM      4  N   UNL     1      35.353 -22.809 -12.200  0.00  0.00    -0.303 N 
ATOM      5  C   UNL     1      36.392 -23.970 -14.116  0.00  0.00    +0.160 C 
ATOM      6  C   UNL     1      34.080 -24.866 -14.241  0.00  0.00    +0.096 C 
ATOM      7  C   UNL     1      33.447 -24.196 -13.021  0.00  0.00    +0.043 C 
ATOM      8  C   UNL     1      34.852 -23.127 -15.901  0.00  0.00    +0.224 C 
ATOM      9  C   UNL     1      34.452 -23.915 -11.905  0.00  0.00    +0.091 C 
ATOM     10  C   UNL     1      36.332 -22.772 -13.175  0.00  0.00    +0.241 C 
ATOM     11  H   UNL     1      35.254 -22.001 -11.646  0.00  0.00    +0.149 HD
ENDROOT
BRANCH   5  12
ATOM     12  C   UNL     1      37.630 -23.982 -15.011  0.00  0.00    +0.132 C 
BRANCH  12  16
ATOM     13  F   UNL     1      39.167 -24.472 -13.282  0.00  0.00    -0.170 F 
ATOM     14  F   UNL     1      39.743 -24.955 -15.329  0.00  0.00    -0.170 F 
ATOM     15  F   UNL     1      38.236 -26.159 -14.312  0.00  0.00    -0.170 F 
ATOM     16  C   UNL     1      38.700 -24.900 -14.473  0.00  0.00    +0.400 C 
ENDBRANCH  12  16
ENDBRANCH   5  12
BRANCH   8  17
ATOM     17  C   UNL     1      33.430 -23.076 -16.406  0.00  0.00    +0.064 C 
BRANCH  17  18
ATOM     18  C   UNL     1      33.249 -22.002 -17.478  0.00  0.00    -0.052 C 
BRANCH  18  19
ATOM     19  N   UNL     1      31.806 -21.870 -17.722  0.00  0.00    +0.382 N 
ATOM     20  H   UNL     1      31.444 -21.073 -17.198  0.00  0.00    -0.089 HD
ATOM     21  H   UNL     1      31.332 -22.720 -17.418  0.00  0.00    -0.089 HD
ATOM     22  H   UNL     1      31.642 -21.725 -18.717  0.00  0.00    -0.089 HD
ENDBRANCH  18  19
BRANCH  18  23
ATOM     23  C   UNL     1      33.940 -22.347 -18.816  0.00  0.00    +0.007 C 
BRANCH  23  27
ATOM     24  F   UNL     1      36.561 -21.334 -18.519  0.00  0.00    -0.204 F 
ATOM     25  F   UNL     1      33.267 -18.784 -22.062  0.00  0.00    -0.202 F 
ATOM     26  F   UNL     1      35.827 -17.899 -21.688  0.00  0.00    -0.202 F 
ATOM     27  C   UNL     1      34.449 -21.153 -19.586  0.00  0.00    +0.006 C 
ATOM     28  C   UNL     1      35.749 -20.715 -19.386  0.00  0.00    +0.138 C 
ATOM     29  C   UNL     1      33.605 -20.515 -20.482  0.00  0.00    +0.030 C 
ATOM     30  C   UNL     1      34.072 -19.411 -21.195  0.00  0.00    +0.167 C 
ATOM     31  C   UNL     1      36.216 -19.611 -20.100  0.00  0.00    +0.061 C 
ATOM     32  C   UNL     1      35.378 -18.960 -21.004  0.00  0.00    +0.170 C 
ENDBRANCH  23  27
ENDBRANCH  18  23
ENDBRANCH  17  18
ENDBRANCH   8  17
TORSDOF 7
ENDMDL
MODEL 9
REMARK VINA RESULT:     -10.3      3.041      4.238
REMARK  Name = 10024590
REMARK  7 active torsions:
REMARK  status: ('A' for Active; 'I' for Inactive)
REMARK    1  A    between atoms: C_5  and  C_12
REMARK    2  A    between atoms: C_8  and  C_17
REMARK    3  A    between atoms: C_12  and  C_16
REMARK    4  A    between atoms: C_17  and  C_18
REMARK    5  A    between atoms: C_18  and  N_19
REMARK    6  A    between atoms: C_18  and  C_23
REMARK    7  A    between atoms: C_23  and  C_27
REMARK                            x       y       z     vdW  Elec       q    Type
REMARK                         _______ _______ _______ _____ _____    ______ ____
ROOT
ATOM      1  O   UNL     1      33.570 -23.027 -17.814  0.00  0.00    -0.275 OA
ATOM      2  O   UNL     1      34.611 -25.372 -15.399  0.00  0.00    -0.273 OA
ATOM      3  N   UNL     1      35.009 -22.129 -16.208  0.00  0.00    -0.273 N 
ATOM      4  N   UNL     1      36.613 -24.308 -15.119  0.00  0.00    -0.303 N 
ATOM      5  C   UNL     1      34.534 -22.977 -15.099  0.00  0.00    +0.160 C 
ATOM      6  C   UNL     1      36.157 -21.272 -15.889  0.00  0.00    +0.096 C 
ATOM      7  C   UNL     1      37.458 -22.075 -15.846  0.00  0.00    +0.043 C 
ATOM      8  C   UNL     1      34.531 -22.315 -17.514  0.00  0.00    +0.224 C 
ATOM      9  C   UNL     1      37.452 -23.167 -14.778  0.00  0.00    +0.091 C 
ATOM     10  C   UNL     1      35.236 -24.324 -15.230  0.00  0.00    +0.241 C 
ATOM     11  H   UNL     1      37.078 -25.160 -15.288  0.00  0.00    +0.149 HD
ENDROOT
BRANCH   5  12
ATOM     12  C   UNL     1      33.014 -23.089 -14.996  0.00  0.00    +0.132 C 
BRANCH  12  16
ATOM     13  F   UNL     1      32.075 -24.660 -13.498  0.00  0.00    -0.170 F 
ATOM     14  F   UNL     1      31.604 -22.553 -13.196  0.00  0.00    -0.170 F 
ATOM     15  F   UNL     1      33.594 -23.300 -12.712  0.00  0.00    -0.170 F 
ATOM     16  C   UNL     1      32.572 -23.409 -13.589  0.00  0.00    +0.400 C 
ENDBRANCH  12  16
ENDBRANCH   5  12
BRANCH   8  17
ATOM     17  C   UNL     1      35.263 -21.582 -18.612  0.00  0.00    +0.064 C 
BRANCH  17  18
ATOM     18  C   UNL     1      34.335 -20.642 -19.381  0.00  0.00    -0.052 C 
BRANCH  18  19
ATOM     19  N   UNL     1      32.956 -21.032 -19.055  0.00  0.00    +0.382 N 
ATOM     20  H   UNL     1      32.415 -21.121 -19.916  0.00  0.00    -0.089 HD
ATOM     21  H   UNL     1      32.534 -20.320 -18.460  0.00  0.00    -0.089 HD
ATOM     22  H   UNL     1      32.963 -21.926 -18.564  0.00  0.00    -0.089 HD
ENDBRANCH  18  19
BRANCH  18  23
ATOM     23  C   UNL     1      34.514 -20.719 -20.913  0.00  0.00    +0.007 C 
BRANCH  23  27
ATOM     24  F   UNL     1      36.344 -18.720 -20.114  0.00  0.00    -0.204 F 
ATOM     25  F   UNL     1      33.073 -17.586 -24.348  0.00  0.00    -0.202 F 
ATOM     26  F   UNL     1      34.888 -15.733 -23.481  0.00  0.00    -0.202 F 
ATOM     27  C   UNL     1      34.616 -19.380 -21.601  0.00  0.00    +0.006 C 
ATOM     28  C   UNL     1      35.541 -18.449 -21.152  0.00  0.00    +0.138 C 
ATOM     29  C   UNL     1      33.782 -19.103 -22.673  0.00  0.00    +0.030 C 
ATOM     30  C   UNL     1      33.874 -17.867 -23.311  0.00  0.00    +0.167 C 
ATOM     31  C   UNL     1      35.633 -17.213 -21.790  0.00  0.00    +0.061 C 
ATOM     32  C   UNL     1      34.801 -16.922 -22.869  0.00  0.00    +0.170 C 
ENDBRANCH  23  27
ENDBRANCH  18  23
ENDBRANCH  17  18
ENDBRANCH   8  17
TORSDOF 7
ENDMDL
