MODEL 1
REMARK VINA RESULT:     -11.7      0.000      0.000
REMARK  Name = 2742752
REMARK  5 active torsions:
REMARK  status: ('A' for Active; 'I' for Inactive)
REMARK    1  A    between atoms: N_1  and  C_7
REMARK    2  A    between atoms: C_3  and  N_18
REMARK    3  A    between atoms: C_5  and  C_14
REMARK    4  A    between atoms: N_18  and  S_20
REMARK    5  A    between atoms: S_20  and  C_24
REMARK                            x       y       z     vdW  Elec       q    Type
REMARK                         _______ _______ _______ _____ _____    ______ ____
ROOT
ATOM      1  N   UNL     1      32.889 -21.880 -17.884  0.00  0.00    -0.175 N 
ATOM      2  N   UNL     1      31.555 -21.941 -17.685  0.00  0.00    -0.172 NA
ATOM      3  C   UNL     1      33.602 -22.607 -16.966  0.00  0.00    +0.141 C 
ATOM      4  C   UNL     1      32.677 -23.173 -16.122  0.00  0.00    +0.054 C 
ATOM      5  C   UNL     1      31.435 -22.728 -16.613  0.00  0.00    +0.108 C 
ENDROOT
BRANCH   1   7
ATOM      6  F   UNL     1      34.962 -18.927 -22.051  0.00  0.00    -0.204 F 
ATOM      7  C   UNL     1      33.409 -21.139 -18.930  0.00  0.00    +0.075 C 
ATOM      8  C   UNL     1      34.788 -21.101 -19.139  0.00  0.00    +0.019 C 
ATOM      9  C   UNL     1      32.555 -20.430 -19.774  0.00  0.00    +0.019 C 
ATOM     10  C   UNL     1      35.312 -20.352 -20.193  0.00  0.00    +0.031 C 
ATOM     11  C   UNL     1      33.079 -19.682 -20.829  0.00  0.00    +0.031 C 
ATOM     12  C   UNL     1      34.458 -19.643 -21.037  0.00  0.00    +0.140 C 
ENDBRANCH   1   7
BRANCH   5  14
ATOM     13  S   UNL     1      29.838 -24.428 -15.040  0.00  0.00    -0.085 S 
ATOM     14  C   UNL     1      30.118 -23.066 -16.042  0.00  0.00    +0.049 C 
ATOM     15  C   UNL     1      28.969 -22.332 -16.247  0.00  0.00    +0.009 C 
ATOM     16  C   UNL     1      27.847 -22.895 -15.573  0.00  0.00    +0.008 C 
ATOM     17  C   UNL     1      28.179 -24.037 -14.878  0.00  0.00    +0.035 C 
ENDBRANCH   5  14
BRANCH   3  18
ATOM     18  N   UNL     1      35.042 -22.757 -16.890  0.00  0.00    -0.201 N 
ATOM     19  H   UNL     1      35.562 -23.171 -17.616  0.00  0.00    +0.175 HD
BRANCH  18  20
ATOM     20  S   UNL     1      35.792 -22.167 -15.450  0.00  0.00    +0.075 S 
ATOM     21  O   UNL     1      34.780 -21.968 -14.429  0.00  0.00    -0.150 OA
ATOM     22  O   UNL     1      36.719 -21.103 -15.782  0.00  0.00    -0.150 OA
BRANCH  20  24
ATOM     23  F   UNL     1      40.249 -24.481 -14.615  0.00  0.00    -0.204 F 
ATOM     24  C   UNL     1      36.766 -23.565 -14.973  0.00  0.00    +0.127 C 
ATOM     25  C   UNL     1      38.145 -23.462 -14.986  0.00  0.00    +0.050 C 
ATOM     26  C   UNL     1      36.128 -24.733 -14.596  0.00  0.00    +0.020 C 
ATOM     27  C   UNL     1      38.912 -24.562 -14.607  0.00  0.00    +0.141 C 
ATOM     28  C   UNL     1      36.896 -25.835 -14.217  0.00  0.00    +0.004 C 
ATOM     29  C   UNL     1      38.288 -25.749 -14.223  0.00  0.00    +0.030 C 
ENDBRANCH  20  24
ENDBRANCH  18  20
ENDBRANCH   3  18
TORSDOF 5
ENDMDL
MODEL 2
REMARK VINA RESULT:     -11.7      2.930      7.759
REMARK  Name = 2742752
REMARK  5 active torsions:
REMARK  status: ('A' for Active; 'I' for Inactive)
REMARK    1  A    between atoms: N_1  and  C_7
REMARK    2  A    between atoms: C_3  and  N_18
REMARK    3  A    between atoms: C_5  and  C_14
REMARK    4  A    between atoms: N_18  and  S_20
REMARK    5  A    between atoms: S_20  and  C_24
REMARK                            x       y       z     vdW  Elec       q    Type
REMARK                         _______ _______ _______ _____ _____    ______ ____
ROOT
ATOM      1  N   UNL     1      34.315 -23.487 -15.372  0.00  0.00    -0.175 N 
ATOM      2  N   UNL     1      34.816 -22.805 -16.424  0.00  0.00    -0.172 NA
ATOM      3  C   UNL     1      32.945 -23.511 -15.352  0.00  0.00    +0.141 C 
ATOM      4  C   UNL     1      32.532 -22.803 -16.455  0.00  0.00    +0.054 C 
ATOM      5  C   UNL     1      33.726 -22.393 -17.077  0.00  0.00    +0.108 C 
ENDROOT
BRANCH   1   7
ATOM      6  F   UNL     1      37.689 -25.830 -11.697  0.00  0.00    -0.204 F 
ATOM      7  C   UNL     1      35.161 -24.074 -14.449  0.00  0.00    +0.075 C 
ATOM      8  C   UNL     1      35.375 -23.467 -13.212  0.00  0.00    +0.019 C 
ATOM      9  C   UNL     1      35.801 -25.275 -14.757  0.00  0.00    +0.019 C 
ATOM     10  C   UNL     1      36.230 -24.059 -12.283  0.00  0.00    +0.031 C 
ATOM     11  C   UNL     1      36.656 -25.868 -13.828  0.00  0.00    +0.031 C 
ATOM     12  C   UNL     1      36.870 -25.260 -12.590  0.00  0.00    +0.140 C 
ENDBRANCH   1   7
BRANCH   5  14
ATOM     13  S   UNL     1      35.299 -21.155 -19.053  0.00  0.00    -0.085 S 
ATOM     14  C   UNL     1      33.817 -21.596 -18.314  0.00  0.00    +0.049 C 
ATOM     15  C   UNL     1      32.730 -21.118 -19.013  0.00  0.00    +0.009 C 
ATOM     16  C   UNL     1      33.118 -20.381 -20.170  0.00  0.00    +0.008 C 
ATOM     17  C   UNL     1      34.488 -20.323 -20.311  0.00  0.00    +0.035 C 
ENDBRANCH   5  14
BRANCH   3  18
ATOM     18  N   UNL     1      32.090 -24.150 -14.370  0.00  0.00    -0.201 N 
ATOM     19  H   UNL     1      32.179 -25.104 -14.145  0.00  0.00    +0.175 HD
BRANCH  18  20
ATOM     20  S   UNL     1      30.907 -23.139 -13.620  0.00  0.00    +0.075 S 
ATOM     21  O   UNL     1      31.369 -21.764 -13.640  0.00  0.00    -0.150 OA
ATOM     22  O   UNL     1      30.461 -23.746 -12.381  0.00  0.00    -0.150 OA
BRANCH  20  24
ATOM     23  F   UNL     1      26.981 -21.189 -16.209  0.00  0.00    -0.204 F 
ATOM     24  C   UNL     1      29.567 -23.271 -14.767  0.00  0.00    +0.127 C 
ATOM     25  C   UNL     1      28.794 -22.155 -15.034  0.00  0.00    +0.050 C 
ATOM     26  C   UNL     1      29.320 -24.488 -15.377  0.00  0.00    +0.020 C 
ATOM     27  C   UNL     1      27.740 -22.259 -15.940  0.00  0.00    +0.141 C 
ATOM     28  C   UNL     1      28.265 -24.592 -16.283  0.00  0.00    +0.004 C 
ATOM     29  C   UNL     1      27.475 -23.478 -16.565  0.00  0.00    +0.030 C 
ENDBRANCH  20  24
ENDBRANCH  18  20
ENDBRANCH   3  18
TORSDOF 5
ENDMDL
MODEL 3
REMARK VINA RESULT:     -11.5      2.137      6.296
REMARK  Name = 2742752
REMARK  5 active torsions:
REMARK  status: ('A' for Active; 'I' for Inactive)
REMARK    1  A    between atoms: N_1  and  C_7
REMARK    2  A    between atoms: C_3  and  N_18
REMARK    3  A    between atoms: C_5  and  C_14
REMARK    4  A    between atoms: N_18  and  S_20
REMARK    5  A    between atoms: S_20  and  C_24
REMARK                            x       y       z     vdW  Elec       q    Type
REMARK                         _______ _______ _______ _____ _____    ______ ____
ROOT
ATOM      1  N   UNL     1      34.244 -23.426 -15.444  0.00  0.00    -0.175 N 
ATOM      2  N   UNL     1      33.363 -24.017 -14.609  0.00  0.00    -0.172 NA
ATOM      3  C   UNL     1      33.638 -22.701 -16.437  0.00  0.00    +0.141 C 
ATOM      4  C   UNL     1      32.285 -22.827 -16.234  0.00  0.00    +0.054 C 
ATOM      5  C   UNL     1      32.175 -23.648 -15.096  0.00  0.00    +0.108 C 
ENDROOT
BRANCH   1   7
ATOM      6  F   UNL     1      39.667 -24.053 -14.687  0.00  0.00    -0.204 F 
ATOM      7  C   UNL     1      35.605 -23.583 -15.254  0.00  0.00    +0.075 C 
ATOM      8  C   UNL     1      36.483 -22.566 -15.629  0.00  0.00    +0.019 C 
ATOM      9  C   UNL     1      36.098 -24.758 -14.688  0.00  0.00    +0.019 C 
ATOM     10  C   UNL     1      37.855 -22.726 -15.439  0.00  0.00    +0.031 C 
ATOM     11  C   UNL     1      37.471 -24.918 -14.497  0.00  0.00    +0.031 C 
ATOM     12  C   UNL     1      38.349 -23.901 -14.873  0.00  0.00    +0.140 C 
ENDBRANCH   1   7
BRANCH   5  14
ATOM     13  S   UNL     1      29.435 -24.238 -15.323  0.00  0.00    -0.085 S 
ATOM     14  C   UNL     1      30.912 -24.080 -14.470  0.00  0.00    +0.049 C 
ATOM     15  C   UNL     1      30.774 -24.404 -13.137  0.00  0.00    +0.009 C 
ATOM     16  C   UNL     1      29.440 -24.786 -12.814  0.00  0.00    +0.008 C 
ATOM     17  C   UNL     1      28.608 -24.741 -13.911  0.00  0.00    +0.035 C 
ENDBRANCH   5  14
BRANCH   3  18
ATOM     18  N   UNL     1      34.283 -21.947 -17.494  0.00  0.00    -0.201 N 
ATOM     19  H   UNL     1      35.145 -21.491 -17.358  0.00  0.00    +0.175 HD
BRANCH  18  20
ATOM     20  S   UNL     1      33.450 -21.895 -19.007  0.00  0.00    +0.075 S 
ATOM     21  O   UNL     1      32.102 -21.403 -18.796  0.00  0.00    -0.150 OA
ATOM     22  O   UNL     1      33.676 -23.132 -19.731  0.00  0.00    -0.150 OA
BRANCH  20  24
ATOM     23  F   UNL     1      33.817 -18.114 -22.397  0.00  0.00    -0.204 F 
ATOM     24  C   UNL     1      34.356 -20.633 -19.854  0.00  0.00    +0.127 C 
ATOM     25  C   UNL     1      33.711 -19.864 -20.806  0.00  0.00    +0.050 C 
ATOM     26  C   UNL     1      35.690 -20.439 -19.545  0.00  0.00    +0.020 C 
ATOM     27  C   UNL     1      34.424 -18.867 -21.471  0.00  0.00    +0.141 C 
ATOM     28  C   UNL     1      36.403 -19.442 -20.210  0.00  0.00    +0.004 C 
ATOM     29  C   UNL     1      35.770 -18.656 -21.173  0.00  0.00    +0.030 C 
ENDBRANCH  20  24
ENDBRANCH  18  20
ENDBRANCH   3  18
TORSDOF 5
ENDMDL
MODEL 4
REMARK VINA RESULT:     -11.4      2.774      6.954
REMARK  Name = 2742752
REMARK  5 active torsions:
REMARK  status: ('A' for Active; 'I' for Inactive)
REMARK    1  A    between atoms: N_1  and  C_7
REMARK    2  A    between atoms: C_3  and  N_18
REMARK    3  A    between atoms: C_5  and  C_14
REMARK    4  A    between atoms: N_18  and  S_20
REMARK    5  A    between atoms: S_20  and  C_24
REMARK                            x       y       z     vdW  Elec       q    Type
REMARK                         _______ _______ _______ _____ _____    ______ ____
ROOT
ATOM      1  N   UNL     1      34.637 -22.659 -16.458  0.00  0.00    -0.175 N 
ATOM      2  N   UNL     1      35.874 -22.995 -16.033  0.00  0.00    -0.172 NA
ATOM      3  C   UNL     1      33.646 -23.093 -15.616  0.00  0.00    +0.141 C 
ATOM      4  C   UNL     1      34.275 -23.747 -14.585  0.00  0.00    +0.054 C 
ATOM      5  C   UNL     1      35.645 -23.655 -14.895  0.00  0.00    +0.108 C 
ENDROOT
BRANCH   1   7
ATOM      6  F   UNL     1      33.961 -19.831 -21.140  0.00  0.00    -0.204 F 
ATOM      7  C   UNL     1      34.467 -21.949 -17.632  0.00  0.00    +0.075 C 
ATOM      8  C   UNL     1      33.196 -21.817 -18.190  0.00  0.00    +0.019 C 
ATOM      9  C   UNL     1      35.568 -21.366 -18.259  0.00  0.00    +0.019 C 
ATOM     10  C   UNL     1      33.025 -21.103 -19.375  0.00  0.00    +0.031 C 
ATOM     11  C   UNL     1      35.398 -20.651 -19.445  0.00  0.00    +0.031 C 
ATOM     12  C   UNL     1      34.126 -20.520 -20.003  0.00  0.00    +0.140 C 
ENDBRANCH   1   7
BRANCH   5  14
ATOM     13  S   UNL     1      36.510 -25.036 -12.602  0.00  0.00    -0.085 S 
ATOM     14  C   UNL     1      36.745 -24.210 -14.084  0.00  0.00    +0.049 C 
ATOM     15  C   UNL     1      38.079 -24.128 -14.423  0.00  0.00    +0.009 C 
ATOM     16  C   UNL     1      38.917 -24.752 -13.454  0.00  0.00    +0.008 C 
ATOM     17  C   UNL     1      38.193 -25.287 -12.411  0.00  0.00    +0.035 C 
ENDBRANCH   5  14
BRANCH   3  18
ATOM     18  N   UNL     1      32.216 -22.904 -15.772  0.00  0.00    -0.201 N 
ATOM     19  H   UNL     1      31.822 -22.576 -16.611  0.00  0.00    +0.175 HD
BRANCH  18  20
ATOM     20  S   UNL     1      31.246 -23.289 -14.394  0.00  0.00    +0.075 S 
ATOM     21  O   UNL     1      31.472 -22.300 -13.357  0.00  0.00    -0.150 OA
ATOM     22  O   UNL     1      31.359 -24.704 -14.097  0.00  0.00    -0.150 OA
BRANCH  20  24
ATOM     23  F   UNL     1      27.238 -24.677 -17.210  0.00  0.00    -0.204 F 
ATOM     24  C   UNL     1      29.619 -23.029 -15.038  0.00  0.00    +0.127 C 
ATOM     25  C   UNL     1      29.069 -23.975 -15.884  0.00  0.00    +0.050 C 
ATOM     26  C   UNL     1      28.928 -21.886 -14.681  0.00  0.00    +0.020 C 
ATOM     27  C   UNL     1      27.786 -23.772 -16.389  0.00  0.00    +0.141 C 
ATOM     28  C   UNL     1      27.644 -21.681 -15.186  0.00  0.00    +0.004 C 
ATOM     29  C   UNL     1      27.073 -22.624 -16.040  0.00  0.00    +0.030 C 
ENDBRANCH  20  24
ENDBRANCH  18  20
ENDBRANCH   3  18
TORSDOF 5
ENDMDL
MODEL 5
REMARK VINA RESULT:     -11.1      3.092      7.235
REMARK  Name = 2742752
REMARK  5 active torsions:
REMARK  status: ('A' for Active; 'I' for Inactive)
REMARK    1  A    between atoms: N_1  and  C_7
REMARK    2  A    between atoms: C_3  and  N_18
REMARK    3  A    between atoms: C_5  and  C_14
REMARK    4  A    between atoms: N_18  and  S_20
REMARK    5  A    between atoms: S_20  and  C_24
REMARK                            x       y       z     vdW  Elec       q    Type
REMARK                         _______ _______ _______ _____ _____    ______ ____
ROOT
ATOM      1  N   UNL     1      33.056 -23.139 -15.667  0.00  0.00    -0.175 N 
ATOM      2  N   UNL     1      33.849 -23.936 -14.918  0.00  0.00    -0.172 NA
ATOM      3  C   UNL     1      33.761 -22.351 -16.540  0.00  0.00    +0.141 C 
ATOM      4  C   UNL     1      35.087 -22.654 -16.348  0.00  0.00    +0.054 C 
ATOM      5  C   UNL     1      35.081 -23.636 -15.338  0.00  0.00    +0.108 C 
ENDROOT
BRANCH   1   7
ATOM      6  F   UNL     1      27.581 -23.265 -15.052  0.00  0.00    -0.204 F 
ATOM      7  C   UNL     1      31.683 -23.171 -15.512  0.00  0.00    +0.075 C 
ATOM      8  C   UNL     1      31.116 -23.893 -14.463  0.00  0.00    +0.019 C 
ATOM      9  C   UNL     1      30.865 -22.479 -16.405  0.00  0.00    +0.019 C 
ATOM     10  C   UNL     1      29.730 -23.927 -14.308  0.00  0.00    +0.031 C 
ATOM     11  C   UNL     1      29.479 -22.511 -16.251  0.00  0.00    +0.031 C 
ATOM     12  C   UNL     1      28.912 -23.236 -15.202  0.00  0.00    +0.140 C 
ENDBRANCH   1   7
BRANCH   5  14
ATOM     13  S   UNL     1      36.516 -25.987 -14.769  0.00  0.00    -0.085 S 
ATOM     14  C   UNL     1      36.275 -24.290 -14.774  0.00  0.00    +0.049 C 
ATOM     15  C   UNL     1      37.327 -23.619 -14.188  0.00  0.00    +0.009 C 
ATOM     16  C   UNL     1      38.343 -24.508 -13.732  0.00  0.00    +0.008 C 
ATOM     17  C   UNL     1      38.029 -25.826 -13.985  0.00  0.00    +0.035 C 
ENDBRANCH   5  14
BRANCH   3  18
ATOM     18  N   UNL     1      33.225 -21.388 -17.482  0.00  0.00    -0.201 N 
ATOM     19  H   UNL     1      32.869 -20.518 -17.192  0.00  0.00    +0.175 HD
BRANCH  18  20
ATOM     20  S   UNL     1      33.250 -21.858 -19.145  0.00  0.00    +0.075 S 
ATOM     21  O   UNL     1      31.930 -21.670 -19.716  0.00  0.00    -0.150 OA
ATOM     22  O   UNL     1      33.937 -23.128 -19.283  0.00  0.00    -0.150 OA
BRANCH  20  24
ATOM     23  F   UNL     1      34.155 -17.875 -22.184  0.00  0.00    -0.204 F 
ATOM     24  C   UNL     1      34.314 -20.624 -19.835  0.00  0.00    +0.127 C 
ATOM     25  C   UNL     1      33.799 -19.726 -20.752  0.00  0.00    +0.050 C 
ATOM     26  C   UNL     1      35.638 -20.579 -19.440  0.00  0.00    +0.020 C 
ATOM     27  C   UNL     1      34.636 -18.752 -21.293  0.00  0.00    +0.141 C 
ATOM     28  C   UNL     1      36.477 -19.604 -19.981  0.00  0.00    +0.004 C 
ATOM     29  C   UNL     1      35.976 -18.691 -20.908  0.00  0.00    +0.030 C 
ENDBRANCH  20  24
ENDBRANCH  18  20
ENDBRANCH   3  18
TORSDOF 5
ENDMDL
MODEL 6
REMARK VINA RESULT:     -10.8      2.843      5.456
REMARK  Name = 2742752
REMARK  5 active torsions:
REMARK  status: ('A' for Active; 'I' for Inactive)
REMARK    1  A    between atoms: N_1  and  C_7
REMARK    2  A    between atoms: C_3  and  N_18
REMARK    3  A    between atoms: C_5  and  C_14
REMARK    4  A    between atoms: N_18  and  S_20
REMARK    5  A    between atoms: S_20  and  C_24
REMARK                            x       y       z     vdW  Elec       q    Type
REMARK                         _______ _______ _______ _____ _____    ______ ____
ROOT
ATOM      1  N   UNL     1      32.204 -23.076 -16.380  0.00  0.00    -0.175 N 
ATOM      2  N   UNL     1      32.028 -22.276 -17.453  0.00  0.00    -0.172 NA
ATOM      3  C   UNL     1      33.525 -23.300 -16.090  0.00  0.00    +0.141 C 
ATOM      4  C   UNL     1      34.249 -22.604 -17.029  0.00  0.00    +0.054 C 
ATOM      5  C   UNL     1      33.275 -21.993 -17.841  0.00  0.00    +0.108 C 
ENDROOT
BRANCH   1   7
ATOM      6  F   UNL     1      27.861 -25.086 -13.648  0.00  0.00    -0.204 F 
ATOM      7  C   UNL     1      31.115 -23.580 -15.694  0.00  0.00    +0.075 C 
ATOM      8  C   UNL     1      31.308 -24.358 -14.553  0.00  0.00    +0.019 C 
ATOM      9  C   UNL     1      29.822 -23.311 -16.144  0.00  0.00    +0.019 C 
ATOM     10  C   UNL     1      30.209 -24.868 -13.862  0.00  0.00    +0.031 C 
ATOM     11  C   UNL     1      28.723 -23.820 -15.454  0.00  0.00    +0.031 C 
ATOM     12  C   UNL     1      28.916 -24.599 -14.312  0.00  0.00    +0.140 C 
ENDBRANCH   1   7
BRANCH   5  14
ATOM     13  S   UNL     1      35.120 -20.840 -19.623  0.00  0.00    -0.085 S 
ATOM     14  C   UNL     1      33.549 -21.128 -19.003  0.00  0.00    +0.049 C 
ATOM     15  C   UNL     1      32.581 -20.457 -19.719  0.00  0.00    +0.009 C 
ATOM     16  C   UNL     1      33.136 -19.697 -20.789  0.00  0.00    +0.008 C 
ATOM     17  C   UNL     1      34.507 -19.816 -20.851  0.00  0.00    +0.035 C 
ENDBRANCH   5  14
BRANCH   3  18
ATOM     18  N   UNL     1      34.064 -24.106 -15.012  0.00  0.00    -0.201 N 
ATOM     19  H   UNL     1      34.025 -25.090 -15.027  0.00  0.00    +0.175 HD
BRANCH  18  20
ATOM     20  S   UNL     1      34.778 -23.239 -13.699  0.00  0.00    +0.075 S 
ATOM     21  O   UNL     1      34.022 -23.495 -12.488  0.00  0.00    -0.150 OA
ATOM     22  O   UNL     1      35.066 -21.879 -14.112  0.00  0.00    -0.150 OA
BRANCH  20  24
ATOM     23  F   UNL     1      39.485 -24.326 -15.307  0.00  0.00    -0.204 F 
ATOM     24  C   UNL     1      36.333 -24.068 -13.546  0.00  0.00    +0.127 C 
ATOM     25  C   UNL     1      37.306 -23.862 -14.508  0.00  0.00    +0.050 C 
ATOM     26  C   UNL     1      36.547 -24.905 -12.466  0.00  0.00    +0.020 C 
ATOM     27  C   UNL     1      38.532 -24.513 -14.385  0.00  0.00    +0.141 C 
ATOM     28  C   UNL     1      37.773 -25.558 -12.343  0.00  0.00    +0.004 C 
ATOM     29  C   UNL     1      38.766 -25.361 -13.303  0.00  0.00    +0.030 C 
ENDBRANCH  20  24
ENDBRANCH  18  20
ENDBRANCH   3  18
TORSDOF 5
ENDMDL
MODEL 7
REMARK VINA RESULT:     -10.5      3.444      5.862
REMARK  Name = 2742752
REMARK  5 active torsions:
REMARK  status: ('A' for Active; 'I' for Inactive)
REMARK    1  A    between atoms: N_1  and  C_7
REMARK    2  A    between atoms: C_3  and  N_18
REMARK    3  A    between atoms: C_5  and  C_14
REMARK    4  A    between atoms: N_18  and  S_20
REMARK    5  A    between atoms: S_20  and  C_24
REMARK                            x       y       z     vdW  Elec       q    Type
REMARK                         _______ _______ _______ _____ _____    ______ ____
ROOT
ATOM      1  N   UNL     1      32.038 -22.980 -16.372  0.00  0.00    -0.175 N 
ATOM      2  N   UNL     1      31.840 -22.263 -17.499  0.00  0.00    -0.172 NA
ATOM      3  C   UNL     1      33.358 -23.057 -16.011  0.00  0.00    +0.141 C 
ATOM      4  C   UNL     1      34.058 -22.349 -16.958  0.00  0.00    +0.054 C 
ATOM      5  C   UNL     1      33.072 -21.883 -17.849  0.00  0.00    +0.108 C 
ENDROOT
BRANCH   1   7
ATOM      6  F   UNL     1      27.775 -25.247 -13.715  0.00  0.00    -0.204 F 
ATOM      7  C   UNL     1      30.969 -23.549 -15.705  0.00  0.00    +0.075 C 
ATOM      8  C   UNL     1      31.183 -24.275 -14.535  0.00  0.00    +0.019 C 
ATOM      9  C   UNL     1      29.675 -23.395 -16.204  0.00  0.00    +0.019 C 
ATOM     10  C   UNL     1      30.105 -24.850 -13.863  0.00  0.00    +0.031 C 
ATOM     11  C   UNL     1      28.596 -23.969 -15.533  0.00  0.00    +0.031 C 
ATOM     12  C   UNL     1      28.811 -24.697 -14.362  0.00  0.00    +0.140 C 
ENDBRANCH   1   7
BRANCH   5  14
ATOM     13  S   UNL     1      34.878 -20.795 -19.710  0.00  0.00    -0.085 S 
ATOM     14  C   UNL     1      33.321 -21.063 -19.048  0.00  0.00    +0.049 C 
ATOM     15  C   UNL     1      32.336 -20.422 -19.770  0.00  0.00    +0.009 C 
ATOM     16  C   UNL     1      32.868 -19.703 -20.880  0.00  0.00    +0.008 C 
ATOM     17  C   UNL     1      34.238 -19.821 -20.965  0.00  0.00    +0.035 C 
ENDBRANCH   5  14
BRANCH   3  18
ATOM     18  N   UNL     1      33.917 -23.744 -14.863  0.00  0.00    -0.201 N 
ATOM     19  H   UNL     1      33.386 -23.925 -14.054  0.00  0.00    +0.175 HD
BRANCH  18  20
ATOM     20  S   UNL     1      35.571 -24.227 -14.998  0.00  0.00    +0.075 S 
ATOM     21  O   UNL     1      36.298 -23.235 -15.768  0.00  0.00    -0.150 OA
ATOM     22  O   UNL     1      35.642 -25.631 -15.353  0.00  0.00    -0.150 OA
BRANCH  20  24
ATOM     23  F   UNL     1      34.745 -24.428  -9.978  0.00  0.00    -0.204 F 
ATOM     24  C   UNL     1      36.104 -24.095 -13.316  0.00  0.00    +0.127 C 
ATOM     25  C   UNL     1      35.193 -24.318 -12.300  0.00  0.00    +0.050 C 
ATOM     26  C   UNL     1      37.423 -23.775 -13.051  0.00  0.00    +0.020 C 
ATOM     27  C   UNL     1      35.614 -24.218 -10.975  0.00  0.00    +0.141 C 
ATOM     28  C   UNL     1      37.845 -23.674 -11.725  0.00  0.00    +0.004 C 
ATOM     29  C   UNL     1      36.941 -23.895 -10.687  0.00  0.00    +0.030 C 
ENDBRANCH  20  24
ENDBRANCH  18  20
ENDBRANCH   3  18
TORSDOF 5
ENDMDL
MODEL 8
REMARK VINA RESULT:     -10.0      2.791      5.479
REMARK  Name = 2742752
REMARK  5 active torsions:
REMARK  status: ('A' for Active; 'I' for Inactive)
REMARK    1  A    between atoms: N_1  and  C_7
REMARK    2  A    between atoms: C_3  and  N_18
REMARK    3  A    between atoms: C_5  and  C_14
REMARK    4  A    between atoms: N_18  and  S_20
REMARK    5  A    between atoms: S_20  and  C_24
REMARK                            x       y       z     vdW  Elec       q    Type
REMARK                         _______ _______ _______ _____ _____    ______ ____
ROOT
ATOM      1  N   UNL     1      33.760 -21.777 -17.858  0.00  0.00    -0.175 N 
ATOM      2  N   UNL     1      33.453 -20.957 -18.887  0.00  0.00    -0.172 NA
ATOM      3  C   UNL     1      35.107 -21.995 -17.730  0.00  0.00    +0.141 C 
ATOM      4  C   UNL     1      35.711 -21.275 -18.733  0.00  0.00    +0.054 C 
ATOM      5  C   UNL     1      34.644 -20.657 -19.413  0.00  0.00    +0.108 C 
ENDROOT
BRANCH   1   7
ATOM      6  F   UNL     1      29.781 -23.878 -14.676  0.00  0.00    -0.204 F 
ATOM      7  C   UNL     1      32.762 -22.304 -17.059  0.00  0.00    +0.075 C 
ATOM      8  C   UNL     1      33.092 -23.127 -15.983  0.00  0.00    +0.019 C 
ATOM      9  C   UNL     1      31.425 -22.012 -17.330  0.00  0.00    +0.019 C 
ATOM     10  C   UNL     1      32.085 -23.660 -15.179  0.00  0.00    +0.031 C 
ATOM     11  C   UNL     1      30.418 -22.544 -16.526  0.00  0.00    +0.031 C 
ATOM     12  C   UNL     1      30.748 -23.368 -15.450  0.00  0.00    +0.140 C 
ENDBRANCH   1   7
BRANCH   5  14
ATOM     13  S   UNL     1      36.173 -18.836 -20.915  0.00  0.00    -0.085 S 
ATOM     14  C   UNL     1      34.774 -19.767 -20.581  0.00  0.00    +0.049 C 
ATOM     15  C   UNL     1      33.793 -19.583 -21.532  0.00  0.00    +0.009 C 
ATOM     16  C   UNL     1      34.196 -18.667 -22.546  0.00  0.00    +0.008 C 
ATOM     17  C   UNL     1      35.469 -18.184 -22.333  0.00  0.00    +0.035 C 
ENDBRANCH   5  14
BRANCH   3  18
ATOM     18  N   UNL     1      35.774 -22.818 -16.740  0.00  0.00    -0.201 N 
ATOM     19  H   UNL     1      35.807 -23.799 -16.813  0.00  0.00    +0.175 HD
BRANCH  18  20
ATOM     20  S   UNL     1      36.508 -21.974 -15.422  0.00  0.00    +0.075 S 
ATOM     21  O   UNL     1      35.490 -21.631 -14.446  0.00  0.00    -0.150 OA
ATOM     22  O   UNL     1      37.408 -20.959 -15.933  0.00  0.00    -0.150 OA
BRANCH  20  24
ATOM     23  F   UNL     1      37.524 -25.472 -11.865  0.00  0.00    -0.204 F 
ATOM     24  C   UNL     1      37.516 -23.247 -14.719  0.00  0.00    +0.127 C 
ATOM     25  C   UNL     1      37.109 -23.861 -13.549  0.00  0.00    +0.050 C 
ATOM     26  C   UNL     1      38.692 -23.603 -15.356  0.00  0.00    +0.020 C 
ATOM     27  C   UNL     1      37.902 -24.866 -12.998  0.00  0.00    +0.141 C 
ATOM     28  C   UNL     1      39.486 -24.607 -14.804  0.00  0.00    +0.004 C 
ATOM     29  C   UNL     1      39.092 -25.239 -13.625  0.00  0.00    +0.030 C 
ENDBRANCH  20  24
ENDBRANCH  18  20
ENDBRANCH   3  18
TORSDOF 5
ENDMDL
MODEL 9
REMARK VINA RESULT:      -9.8      2.821      6.189
REMARK  Name = 2742752
REMARK  5 active torsions:
REMARK  status: ('A' for Active; 'I' for Inactive)
REMARK    1  A    between atoms: N_1  and  C_7
REMARK    2  A    between atoms: C_3  and  N_18
REMARK    3  A    between atoms: C_5  and  C_14
REMARK    4  A    between atoms: N_18  and  S_20
REMARK    5  A    between atoms: S_20  and  C_24
REMARK                            x       y       z     vdW  Elec       q    Type
REMARK                         _______ _______ _______ _____ _____    ______ ____
ROOT
ATOM      1  N   UNL     1      34.647 -22.562 -16.809  0.00  0.00    -0.175 N 
ATOM      2  N   UNL     1      35.799 -22.676 -16.113  0.00  0.00    -0.172 NA
ATOM      3  C   UNL     1      33.616 -23.280 -16.260  0.00  0.00    +0.141 C 
ATOM      4  C   UNL     1      34.128 -23.896 -15.144  0.00  0.00    +0.054 C 
ATOM      5  C   UNL     1      35.475 -23.488 -15.103  0.00  0.00    +0.108 C 
ENDROOT
BRANCH   1   7
ATOM      6  F   UNL     1      34.419 -19.448 -21.350  0.00  0.00    -0.204 F 
ATOM      7  C   UNL     1      34.590 -21.781 -17.948  0.00  0.00    +0.075 C 
ATOM      8  C   UNL     1      35.763 -21.262 -18.498  0.00  0.00    +0.019 C 
ATOM      9  C   UNL     1      33.360 -21.511 -18.548  0.00  0.00    +0.019 C 
ATOM     10  C   UNL     1      35.705 -20.473 -19.646  0.00  0.00    +0.031 C 
ATOM     11  C   UNL     1      33.302 -20.723 -19.697  0.00  0.00    +0.031 C 
ATOM     12  C   UNL     1      34.475 -20.203 -20.246  0.00  0.00    +0.140 C 
ENDBRANCH   1   7
BRANCH   5  14
ATOM     13  S   UNL     1      38.135 -24.060 -14.391  0.00  0.00    -0.085 S 
ATOM     14  C   UNL     1      36.459 -23.885 -14.080  0.00  0.00    +0.049 C 
ATOM     15  C   UNL     1      36.147 -24.160 -12.765  0.00  0.00    +0.009 C 
ATOM     16  C   UNL     1      37.298 -24.517 -12.005  0.00  0.00    +0.008 C 
ATOM     17  C   UNL     1      38.447 -24.503 -12.767  0.00  0.00    +0.035 C 
ENDBRANCH   5  14
BRANCH   3  18
ATOM     18  N   UNL     1      32.255 -23.377 -16.750  0.00  0.00    -0.201 N 
ATOM     19  H   UNL     1      32.006 -23.987 -17.481  0.00  0.00    +0.175 HD
BRANCH  18  20
ATOM     20  S   UNL     1      31.094 -22.360 -15.973  0.00  0.00    +0.075 S 
ATOM     21  O   UNL     1      30.245 -21.748 -16.977  0.00  0.00    -0.150 OA
ATOM     22  O   UNL     1      31.753 -21.544 -14.971  0.00  0.00    -0.150 OA
BRANCH  20  24
ATOM     23  F   UNL     1      29.805 -24.921 -11.766  0.00  0.00    -0.204 F 
ATOM     24  C   UNL     1      30.121 -23.553 -15.102  0.00  0.00    +0.127 C 
ATOM     25  C   UNL     1      30.358 -23.764 -13.756  0.00  0.00    +0.050 C 
ATOM     26  C   UNL     1      29.140 -24.250 -15.785  0.00  0.00    +0.020 C 
ATOM     27  C   UNL     1      29.589 -24.702 -13.069  0.00  0.00    +0.141 C 
ATOM     28  C   UNL     1      28.370 -25.189 -15.099  0.00  0.00    +0.004 C 
ATOM     29  C   UNL     1      28.594 -25.415 -13.741  0.00  0.00    +0.030 C 
ENDBRANCH  20  24
ENDBRANCH  18  20
ENDBRANCH   3  18
TORSDOF 5
ENDMDL
