MODEL 1
REMARK VINA RESULT:     -11.3      0.000      0.000
REMARK  Name = 10249180
REMARK  4 active torsions:
REMARK  status: ('A' for Active; 'I' for Inactive)
REMARK    1  A    between atoms: C_5  and  N_17
REMARK    2  A    between atoms: C_7  and  C_11
REMARK    3  A    between atoms: N_17  and  C_19
REMARK    4  A    between atoms: C_19  and  C_21
REMARK                            x       y       z     vdW  Elec       q    Type
REMARK                         _______ _______ _______ _____ _____    ______ ____
ROOT
ATOM      1 BR   UNL     1      28.000 -22.780 -16.368  0.00  0.00    -0.066 Br
ATOM      2  N   UNL     1      31.707 -23.711 -15.009  0.00  0.00    -0.152 N 
ATOM      3  N   UNL     1      31.405 -22.402 -17.007  0.00  0.00    -0.388 NA
ATOM      4  N   UNL     1      30.961 -24.331 -14.050  0.00  0.00    -0.173 NA
ATOM      5  C   UNL     1      33.106 -23.656 -15.106  0.00  0.00    +0.126 C 
ATOM      6  C   UNL     1      30.889 -23.086 -15.950  0.00  0.00    +0.200 C 
ATOM      7  C   UNL     1      32.702 -22.362 -17.106  0.00  0.00    +0.135 C 
ATOM      8  C   UNL     1      33.654 -22.989 -16.136  0.00  0.00    +0.064 C 
ATOM      9  C   UNL     1      29.590 -23.325 -15.563  0.00  0.00    +0.168 C 
ATOM     10  C   UNL     1      29.698 -24.090 -14.396  0.00  0.00    +0.112 C 
ENDROOT
BRANCH   7  11
ATOM     11  C   UNL     1      33.311 -21.629 -18.248  0.00  0.00    +0.030 C 
ATOM     12  C   UNL     1      32.498 -20.914 -19.125  0.00  0.00    +0.003 C 
ATOM     13  C   UNL     1      34.690 -21.662 -18.438  0.00  0.00    +0.003 C 
ATOM     14  C   UNL     1      33.069 -20.227 -20.196  0.00  0.00    +0.000 C 
ATOM     15  C   UNL     1      35.261 -20.974 -19.509  0.00  0.00    +0.000 C 
ATOM     16  C   UNL     1      34.450 -20.257 -20.389  0.00  0.00    +0.000 C 
ENDBRANCH   7  11
BRANCH   5  17
ATOM     17  N   UNL     1      33.831 -24.282 -14.132  0.00  0.00    -0.316 N 
ATOM     18  H   UNL     1      33.764 -25.261 -14.046  0.00  0.00    +0.148 HD
BRANCH  17  19
ATOM     19  C   UNL     1      34.686 -23.567 -13.231  0.00  0.00    +0.117 C 
BRANCH  19  21
ATOM     20  N   UNL     1      38.264 -23.682 -14.409  0.00  0.00    -0.243 NA
ATOM     21  C   UNL     1      36.121 -23.992 -13.363  0.00  0.00    +0.017 C 
ATOM     22  C   UNL     1      36.616 -25.036 -12.603  0.00  0.00    +0.001 C 
ATOM     23  C   UNL     1      36.965 -23.350 -14.242  0.00  0.00    +0.096 C 
ATOM     24  C   UNL     1      37.948 -25.408 -12.746  0.00  0.00    +0.020 C 
ATOM     25  C   UNL     1      38.724 -24.706 -13.655  0.00  0.00    +0.099 C 
ENDBRANCH  19  21
ENDBRANCH  17  19
ENDBRANCH   5  17
TORSDOF 4
ENDMDL
MODEL 2
REMARK VINA RESULT:     -11.3      3.055      7.186
REMARK  Name = 10249180
REMARK  4 active torsions:
REMARK  status: ('A' for Active; 'I' for Inactive)
REMARK    1  A    between atoms: C_5  and  N_17
REMARK    2  A    between atoms: C_7  and  C_11
REMARK    3  A    between atoms: N_17  and  C_19
REMARK    4  A    between atoms: C_19  and  C_21
REMARK                            x       y       z     vdW  Elec       q    Type
REMARK                         _______ _______ _______ _____ _____    ______ ____
ROOT
ATOM      1 BR   UNL     1      36.425 -22.790 -13.342  0.00  0.00    -0.066 Br
ATOM      2  N   UNL     1      34.976 -22.108 -17.070  0.00  0.00    -0.152 N 
ATOM      3  N   UNL     1      33.528 -22.812 -15.279  0.00  0.00    -0.388 NA
ATOM      4  N   UNL     1      36.291 -21.823 -17.292  0.00  0.00    -0.173 NA
ATOM      5  C   UNL     1      33.919 -22.055 -17.992  0.00  0.00    +0.126 C 
ATOM      6  C   UNL     1      34.764 -22.479 -15.742  0.00  0.00    +0.200 C 
ATOM      7  C   UNL     1      32.549 -22.777 -16.136  0.00  0.00    +0.135 C 
ATOM      8  C   UNL     1      32.683 -22.377 -17.573  0.00  0.00    +0.064 C 
ATOM      9  C   UNL     1      35.988 -22.421 -15.116  0.00  0.00    +0.168 C 
ATOM     10  C   UNL     1      36.882 -22.015 -16.114  0.00  0.00    +0.112 C 
ENDROOT
BRANCH   7  11
ATOM     11  C   UNL     1      31.182 -23.138 -15.676  0.00  0.00    +0.030 C 
ATOM     12  C   UNL     1      31.017 -24.072 -14.656  0.00  0.00    +0.003 C 
ATOM     13  C   UNL     1      30.071 -22.543 -16.269  0.00  0.00    +0.003 C 
ATOM     14  C   UNL     1      29.736 -24.410 -14.224  0.00  0.00    +0.000 C 
ATOM     15  C   UNL     1      28.788 -22.881 -15.837  0.00  0.00    +0.000 C 
ATOM     16  C   UNL     1      28.621 -23.816 -14.815  0.00  0.00    +0.000 C 
ENDBRANCH   7  11
BRANCH   5  17
ATOM     17  N   UNL     1      34.213 -21.667 -19.268  0.00  0.00    -0.316 N 
ATOM     18  H   UNL     1      34.927 -22.140 -19.754  0.00  0.00    +0.148 HD
BRANCH  17  19
ATOM     19  C   UNL     1      33.522 -20.597 -19.924  0.00  0.00    +0.117 C 
BRANCH  19  21
ATOM     20  N   UNL     1      36.605 -18.573 -20.700  0.00  0.00    -0.243 NA
ATOM     21  C   UNL     1      34.466 -19.672 -20.637  0.00  0.00    +0.017 C 
ATOM     22  C   UNL     1      34.100 -19.079 -21.831  0.00  0.00    +0.001 C 
ATOM     23  C   UNL     1      35.710 -19.397 -20.110  0.00  0.00    +0.096 C 
ATOM     24  C   UNL     1      34.994 -18.226 -22.468  0.00  0.00    +0.020 C 
ATOM     25  C   UNL     1      36.223 -18.007 -21.867  0.00  0.00    +0.099 C 
ENDBRANCH  19  21
ENDBRANCH  17  19
ENDBRANCH   5  17
TORSDOF 4
ENDMDL
MODEL 3
REMARK VINA RESULT:     -11.1      2.793      5.823
REMARK  Name = 10249180
REMARK  4 active torsions:
REMARK  status: ('A' for Active; 'I' for Inactive)
REMARK    1  A    between atoms: C_5  and  N_17
REMARK    2  A    between atoms: C_7  and  C_11
REMARK    3  A    between atoms: N_17  and  C_19
REMARK    4  A    between atoms: C_19  and  C_21
REMARK                            x       y       z     vdW  Elec       q    Type
REMARK                         _______ _______ _______ _____ _____    ______ ____
ROOT
ATOM      1 BR   UNL     1      39.067 -24.560 -14.514  0.00  0.00    -0.066 Br
ATOM      2  N   UNL     1      35.161 -23.832 -13.688  0.00  0.00    -0.152 N 
ATOM      3  N   UNL     1      36.148 -23.125 -15.768  0.00  0.00    -0.388 NA
ATOM      4  N   UNL     1      35.511 -24.477 -12.538  0.00  0.00    -0.173 NA
ATOM      5  C   UNL     1      33.904 -23.314 -14.033  0.00  0.00    +0.126 C 
ATOM      6  C   UNL     1      36.251 -23.733 -14.554  0.00  0.00    +0.200 C 
ATOM      7  C   UNL     1      34.986 -22.632 -16.083  0.00  0.00    +0.135 C 
ATOM      8  C   UNL     1      33.763 -22.707 -15.224  0.00  0.00    +0.064 C 
ATOM      9  C   UNL     1      37.313 -24.338 -13.922  0.00  0.00    +0.168 C 
ATOM     10  C   UNL     1      36.800 -24.773 -12.695  0.00  0.00    +0.112 C 
ENDROOT
BRANCH   7  11
ATOM     11  C   UNL     1      34.829 -21.955 -17.398  0.00  0.00    +0.030 C 
ATOM     12  C   UNL     1      35.931 -21.360 -18.008  0.00  0.00    +0.003 C 
ATOM     13  C   UNL     1      33.581 -21.918 -18.015  0.00  0.00    +0.003 C 
ATOM     14  C   UNL     1      35.784 -20.725 -19.241  0.00  0.00    +0.000 C 
ATOM     15  C   UNL     1      33.433 -21.284 -19.248  0.00  0.00    +0.000 C 
ATOM     16  C   UNL     1      34.535 -20.686 -19.861  0.00  0.00    +0.000 C 
ENDBRANCH   7  11
BRANCH   5  17
ATOM     17  N   UNL     1      32.889 -23.468 -13.132  0.00  0.00    -0.316 N 
ATOM     18  H   UNL     1      32.953 -24.188 -12.464  0.00  0.00    +0.148 HD
BRANCH  17  19
ATOM     19  C   UNL     1      31.733 -22.621 -13.125  0.00  0.00    +0.117 C 
BRANCH  19  21
ATOM     20  N   UNL     1      29.256 -25.211 -14.291  0.00  0.00    -0.243 NA
ATOM     21  C   UNL     1      30.572 -23.249 -13.843  0.00  0.00    +0.017 C 
ATOM     22  C   UNL     1      29.777 -22.494 -14.685  0.00  0.00    +0.001 C 
ATOM     23  C   UNL     1      30.284 -24.585 -13.675  0.00  0.00    +0.096 C 
ATOM     24  C   UNL     1      28.710 -23.101 -15.337  0.00  0.00    +0.020 C 
ATOM     25  C   UNL     1      28.494 -24.450 -15.109  0.00  0.00    +0.099 C 
ENDBRANCH  19  21
ENDBRANCH  17  19
ENDBRANCH   5  17
TORSDOF 4
ENDMDL
MODEL 4
REMARK VINA RESULT:     -10.8      2.948      5.458
REMARK  Name = 10249180
REMARK  4 active torsions:
REMARK  status: ('A' for Active; 'I' for Inactive)
REMARK    1  A    between atoms: C_5  and  N_17
REMARK    2  A    between atoms: C_7  and  C_11
REMARK    3  A    between atoms: N_17  and  C_19
REMARK    4  A    between atoms: C_19  and  C_21
REMARK                            x       y       z     vdW  Elec       q    Type
REMARK                         _______ _______ _______ _____ _____    ______ ____
ROOT
ATOM      1 BR   UNL     1      37.693 -22.274 -15.704  0.00  0.00    -0.066 Br
ATOM      2  N   UNL     1      33.829 -22.527 -16.917  0.00  0.00    -0.152 N 
ATOM      3  N   UNL     1      35.441 -21.230 -18.150  0.00  0.00    -0.388 NA
ATOM      4  N   UNL     1      33.760 -23.309 -15.802  0.00  0.00    -0.173 NA
ATOM      5  C   UNL     1      32.795 -22.213 -17.812  0.00  0.00    +0.126 C 
ATOM      6  C   UNL     1      35.123 -22.038 -17.102  0.00  0.00    +0.200 C 
ATOM      7  C   UNL     1      34.479 -20.926 -18.973  0.00  0.00    +0.135 C 
ATOM      8  C   UNL     1      33.069 -21.417 -18.860  0.00  0.00    +0.064 C 
ATOM      9  C   UNL     1      35.883 -22.533 -16.068  0.00  0.00    +0.168 C 
ATOM     10  C   UNL     1      34.996 -23.302 -15.306  0.00  0.00    +0.112 C 
ENDROOT
BRANCH   7  11
ATOM     11  C   UNL     1      34.779 -20.042 -20.130  0.00  0.00    +0.030 C 
ATOM     12  C   UNL     1      36.038 -19.457 -20.248  0.00  0.00    +0.003 C 
ATOM     13  C   UNL     1      33.800 -19.801 -21.091  0.00  0.00    +0.003 C 
ATOM     14  C   UNL     1      36.319 -18.628 -21.333  0.00  0.00    +0.000 C 
ATOM     15  C   UNL     1      34.082 -18.972 -22.177  0.00  0.00    +0.000 C 
ATOM     16  C   UNL     1      35.342 -18.384 -22.298  0.00  0.00    +0.000 C 
ENDBRANCH   7  11
BRANCH   5  17
ATOM     17  N   UNL     1      31.562 -22.747 -17.564  0.00  0.00    -0.316 N 
ATOM     18  H   UNL     1      31.309 -23.584 -18.016  0.00  0.00    +0.148 HD
BRANCH  17  19
ATOM     19  C   UNL     1      30.625 -22.134 -16.670  0.00  0.00    +0.117 C 
BRANCH  19  21
ATOM     20  N   UNL     1      29.733 -24.982 -14.367  0.00  0.00    -0.243 NA
ATOM     21  C   UNL     1      30.443 -22.935 -15.412  0.00  0.00    +0.017 C 
ATOM     22  C   UNL     1      30.793 -22.402 -14.184  0.00  0.00    +0.001 C 
ATOM     23  C   UNL     1      29.924 -24.210 -15.460  0.00  0.00    +0.096 C 
ATOM     24  C   UNL     1      30.613 -23.165 -13.036  0.00  0.00    +0.020 C 
ATOM     25  C   UNL     1      30.084 -24.438 -13.180  0.00  0.00    +0.099 C 
ENDBRANCH  19  21
ENDBRANCH  17  19
ENDBRANCH   5  17
TORSDOF 4
ENDMDL
MODEL 5
REMARK VINA RESULT:     -10.7      2.651      6.725
REMARK  Name = 10249180
REMARK  4 active torsions:
REMARK  status: ('A' for Active; 'I' for Inactive)
REMARK    1  A    between atoms: C_5  and  N_17
REMARK    2  A    between atoms: C_7  and  C_11
REMARK    3  A    between atoms: N_17  and  C_19
REMARK    4  A    between atoms: C_19  and  C_21
REMARK                            x       y       z     vdW  Elec       q    Type
REMARK                         _______ _______ _______ _____ _____    ______ ____
ROOT
ATOM      1 BR   UNL     1      35.423 -24.006 -11.819  0.00  0.00    -0.066 Br
ATOM      2  N   UNL     1      35.029 -22.664 -15.627  0.00  0.00    -0.152 N 
ATOM      3  N   UNL     1      33.116 -23.393 -14.358  0.00  0.00    -0.388 NA
ATOM      4  N   UNL     1      36.378 -22.532 -15.488  0.00  0.00    -0.173 NA
ATOM      5  C   UNL     1      34.247 -22.353 -16.751  0.00  0.00    +0.126 C 
ATOM      6  C   UNL     1      34.455 -23.170 -14.461  0.00  0.00    +0.200 C 
ATOM      7  C   UNL     1      32.391 -23.117 -15.404  0.00  0.00    +0.135 C 
ATOM      8  C   UNL     1      32.920 -22.559 -16.688  0.00  0.00    +0.064 C 
ATOM      9  C   UNL     1      35.482 -23.358 -13.565  0.00  0.00    +0.168 C 
ATOM     10  C   UNL     1      36.633 -22.950 -14.249  0.00  0.00    +0.112 C 
ENDROOT
BRANCH   7  11
ATOM     11  C   UNL     1      30.924 -23.349 -15.339  0.00  0.00    +0.030 C 
ATOM     12  C   UNL     1      30.064 -22.575 -16.115  0.00  0.00    +0.003 C 
ATOM     13  C   UNL     1      30.414 -24.339 -14.502  0.00  0.00    +0.003 C 
ATOM     14  C   UNL     1      28.688 -22.792 -16.054  0.00  0.00    +0.000 C 
ATOM     15  C   UNL     1      29.038 -24.557 -14.442  0.00  0.00    +0.000 C 
ATOM     16  C   UNL     1      28.175 -23.783 -15.217  0.00  0.00    +0.000 C 
ENDBRANCH   7  11
BRANCH   5  17
ATOM     17  N   UNL     1      34.888 -21.848 -17.846  0.00  0.00    -0.316 N 
ATOM     18  H   UNL     1      35.811 -21.521 -17.745  0.00  0.00    +0.148 HD
BRANCH  17  19
ATOM     19  C   UNL     1      34.267 -21.776 -19.134  0.00  0.00    +0.117 C 
BRANCH  19  21
ATOM     20  N   UNL     1      34.066 -18.719 -21.331  0.00  0.00    -0.243 NA
ATOM     21  C   UNL     1      34.680 -20.544 -19.889  0.00  0.00    +0.017 C 
ATOM     22  C   UNL     1      35.991 -20.107 -19.855  0.00  0.00    +0.001 C 
ATOM     23  C   UNL     1      33.760 -19.833 -20.629  0.00  0.00    +0.096 C 
ATOM     24  C   UNL     1      36.345 -18.965 -20.564  0.00  0.00    +0.020 C 
ATOM     25  C   UNL     1      35.354 -18.313 -21.280  0.00  0.00    +0.099 C 
ENDBRANCH  19  21
ENDBRANCH  17  19
ENDBRANCH   5  17
TORSDOF 4
ENDMDL
MODEL 6
REMARK VINA RESULT:     -10.6      2.579      6.148
REMARK  Name = 10249180
REMARK  4 active torsions:
REMARK  status: ('A' for Active; 'I' for Inactive)
REMARK    1  A    between atoms: C_5  and  N_17
REMARK    2  A    between atoms: C_7  and  C_11
REMARK    3  A    between atoms: N_17  and  C_19
REMARK    4  A    between atoms: C_19  and  C_21
REMARK                            x       y       z     vdW  Elec       q    Type
REMARK                         _______ _______ _______ _____ _____    ______ ____
ROOT
ATOM      1 BR   UNL     1      37.481 -23.690 -14.748  0.00  0.00    -0.066 Br
ATOM      2  N   UNL     1      33.426 -23.556 -14.759  0.00  0.00    -0.152 N 
ATOM      3  N   UNL     1      34.710 -22.580 -16.547  0.00  0.00    -0.388 NA
ATOM      4  N   UNL     1      33.619 -24.226 -13.587  0.00  0.00    -0.173 NA
ATOM      5  C   UNL     1      32.206 -23.190 -15.348  0.00  0.00    +0.126 C 
ATOM      6  C   UNL     1      34.645 -23.250 -15.364  0.00  0.00    +0.200 C 
ATOM      7  C   UNL     1      33.580 -22.228 -17.087  0.00  0.00    +0.135 C 
ATOM      8  C   UNL     1      32.228 -22.526 -16.516  0.00  0.00    +0.064 C 
ATOM      9  C   UNL     1      35.629 -23.749 -14.542  0.00  0.00    +0.168 C 
ATOM     10  C   UNL     1      34.941 -24.333 -13.473  0.00  0.00    +0.112 C 
ENDROOT
BRANCH   7  11
ATOM     11  C   UNL     1      33.603 -21.488 -18.378  0.00  0.00    +0.030 C 
ATOM     12  C   UNL     1      34.812 -21.283 -19.038  0.00  0.00    +0.003 C 
ATOM     13  C   UNL     1      32.415 -21.004 -18.921  0.00  0.00    +0.003 C 
ATOM     14  C   UNL     1      34.834 -20.590 -20.248  0.00  0.00    +0.000 C 
ATOM     15  C   UNL     1      32.436 -20.311 -20.131  0.00  0.00    +0.000 C 
ATOM     16  C   UNL     1      33.646 -20.103 -20.794  0.00  0.00    +0.000 C 
ENDBRANCH   7  11
BRANCH   5  17
ATOM     17  N   UNL     1      31.059 -23.542 -14.694  0.00  0.00    -0.316 N 
ATOM     18  H   UNL     1      30.931 -23.242 -13.765  0.00  0.00    +0.148 HD
BRANCH  17  19
ATOM     19  C   UNL     1      30.035 -24.332 -15.312  0.00  0.00    +0.117 C 
BRANCH  19  21
ATOM     20  N   UNL     1      27.096 -23.113 -17.332  0.00  0.00    -0.243 NA
ATOM     21  C   UNL     1      28.868 -23.495 -15.750  0.00  0.00    +0.017 C 
ATOM     22  C   UNL     1      28.493 -22.378 -15.025  0.00  0.00    +0.001 C 
ATOM     23  C   UNL     1      28.155 -23.824 -16.882  0.00  0.00    +0.096 C 
ATOM     24  C   UNL     1      27.409 -21.622 -15.456  0.00  0.00    +0.020 C 
ATOM     25  C   UNL     1      26.750 -22.027 -16.605  0.00  0.00    +0.099 C 
ENDBRANCH  19  21
ENDBRANCH  17  19
ENDBRANCH   5  17
TORSDOF 4
ENDMDL
MODEL 7
REMARK VINA RESULT:     -10.6      2.045      6.288
REMARK  Name = 10249180
REMARK  4 active torsions:
REMARK  status: ('A' for Active; 'I' for Inactive)
REMARK    1  A    between atoms: C_5  and  N_17
REMARK    2  A    between atoms: C_7  and  C_11
REMARK    3  A    between atoms: N_17  and  C_19
REMARK    4  A    between atoms: C_19  and  C_21
REMARK                            x       y       z     vdW  Elec       q    Type
REMARK                         _______ _______ _______ _____ _____    ______ ____
ROOT
ATOM      1 BR   UNL     1      29.863 -24.158 -13.557  0.00  0.00    -0.066 Br
ATOM      2  N   UNL     1      32.135 -22.620 -16.547  0.00  0.00    -0.152 N 
ATOM      3  N   UNL     1      33.144 -23.641 -14.613  0.00  0.00    -0.388 NA
ATOM      4  N   UNL     1      30.898 -22.344 -17.049  0.00  0.00    -0.173 NA
ATOM      5  C   UNL     1      33.380 -22.337 -17.128  0.00  0.00    +0.126 C 
ATOM      6  C   UNL     1      32.039 -23.264 -15.313  0.00  0.00    +0.200 C 
ATOM      7  C   UNL     1      34.300 -23.366 -15.145  0.00  0.00    +0.135 C 
ATOM      8  C   UNL     1      34.495 -22.694 -16.468  0.00  0.00    +0.064 C 
ATOM      9  C   UNL     1      30.697 -23.393 -15.039  0.00  0.00    +0.168 C 
ATOM     10  C   UNL     1      30.049 -22.812 -16.135  0.00  0.00    +0.112 C 
ENDROOT
BRANCH   7  11
ATOM     11  C   UNL     1      35.535 -23.755 -14.413  0.00  0.00    +0.030 C 
ATOM     12  C   UNL     1      36.042 -22.923 -13.417  0.00  0.00    +0.003 C 
ATOM     13  C   UNL     1      36.180 -24.949 -14.726  0.00  0.00    +0.003 C 
ATOM     14  C   UNL     1      37.200 -23.288 -12.731  0.00  0.00    +0.000 C 
ATOM     15  C   UNL     1      37.338 -25.314 -14.039  0.00  0.00    +0.000 C 
ATOM     16  C   UNL     1      37.848 -24.483 -13.042  0.00  0.00    +0.000 C 
ENDBRANCH   7  11
BRANCH   5  17
ATOM     17  N   UNL     1      33.382 -21.718 -18.346  0.00  0.00    -0.316 N 
ATOM     18  H   UNL     1      32.600 -21.179 -18.605  0.00  0.00    +0.148 HD
BRANCH  17  19
ATOM     19  C   UNL     1      34.480 -21.825 -19.260  0.00  0.00    +0.117 C 
BRANCH  19  21
ATOM     20  N   UNL     1      36.401 -18.773 -20.357  0.00  0.00    -0.243 NA
ATOM     21  C   UNL     1      34.797 -20.510 -19.914  0.00  0.00    +0.017 C 
ATOM     22  C   UNL     1      33.833 -19.838 -20.642  0.00  0.00    +0.001 C 
ATOM     23  C   UNL     1      36.051 -19.952 -19.795  0.00  0.00    +0.096 C 
ATOM     24  C   UNL     1      34.154 -18.622 -21.235  0.00  0.00    +0.020 C 
ATOM     25  C   UNL     1      35.440 -18.137 -21.064  0.00  0.00    +0.099 C 
ENDBRANCH  19  21
ENDBRANCH  17  19
ENDBRANCH   5  17
TORSDOF 4
ENDMDL
MODEL 8
REMARK VINA RESULT:     -10.2      2.300      5.046
REMARK  Name = 10249180
REMARK  4 active torsions:
REMARK  status: ('A' for Active; 'I' for Inactive)
REMARK    1  A    between atoms: C_5  and  N_17
REMARK    2  A    between atoms: C_7  and  C_11
REMARK    3  A    between atoms: N_17  and  C_19
REMARK    4  A    between atoms: C_19  and  C_21
REMARK                            x       y       z     vdW  Elec       q    Type
REMARK                         _______ _______ _______ _____ _____    ______ ____
ROOT
ATOM      1 BR   UNL     1      32.712 -20.636 -19.994  0.00  0.00    -0.066 Br
ATOM      2  N   UNL     1      35.098 -22.156 -17.085  0.00  0.00    -0.152 N 
ATOM      3  N   UNL     1      32.704 -22.386 -16.980  0.00  0.00    -0.388 NA
ATOM      4  N   UNL     1      36.055 -21.618 -17.893  0.00  0.00    -0.173 NA
ATOM      5  C   UNL     1      35.284 -22.851 -15.880  0.00  0.00    +0.126 C 
ATOM      6  C   UNL     1      33.824 -21.941 -17.611  0.00  0.00    +0.200 C 
ATOM      7  C   UNL     1      32.873 -23.018 -15.854  0.00  0.00    +0.135 C 
ATOM      8  C   UNL     1      34.201 -23.306 -15.226  0.00  0.00    +0.064 C 
ATOM      9  C   UNL     1      33.995 -21.247 -18.786  0.00  0.00    +0.168 C 
ATOM     10  C   UNL     1      35.379 -21.078 -18.906  0.00  0.00    +0.112 C 
ENDROOT
BRANCH   7  11
ATOM     11  C   UNL     1      31.676 -23.518 -15.127  0.00  0.00    +0.030 C 
ATOM     12  C   UNL     1      31.826 -24.137 -13.888  0.00  0.00    +0.003 C 
ATOM     13  C   UNL     1      30.410 -23.366 -15.687  0.00  0.00    +0.003 C 
ATOM     14  C   UNL     1      30.704 -24.606 -13.206  0.00  0.00    +0.000 C 
ATOM     15  C   UNL     1      29.287 -23.835 -15.005  0.00  0.00    +0.000 C 
ATOM     16  C   UNL     1      29.434 -24.455 -13.764  0.00  0.00    +0.000 C 
ENDBRANCH   7  11
BRANCH   5  17
ATOM     17  N   UNL     1      36.566 -23.030 -15.445  0.00  0.00    -0.316 N 
ATOM     18  H   UNL     1      37.242 -22.350 -15.669  0.00  0.00    +0.148 HD
BRANCH  17  19
ATOM     19  C   UNL     1      36.964 -24.171 -14.677  0.00  0.00    +0.117 C 
BRANCH  19  21
ATOM     20  N   UNL     1      35.984 -24.996 -11.132  0.00  0.00    -0.243 NA
ATOM     21  C   UNL     1      36.654 -24.001 -13.216  0.00  0.00    +0.017 C 
ATOM     22  C   UNL     1      36.740 -22.755 -12.621  0.00  0.00    +0.001 C 
ATOM     23  C   UNL     1      36.278 -25.081 -12.449  0.00  0.00    +0.096 C 
ATOM     24  C   UNL     1      36.447 -22.627 -11.269  0.00  0.00    +0.020 C 
ATOM     25  C   UNL     1      36.077 -23.767 -10.574  0.00  0.00    +0.099 C 
ENDBRANCH  19  21
ENDBRANCH  17  19
ENDBRANCH   5  17
TORSDOF 4
ENDMDL
MODEL 9
REMARK VINA RESULT:     -10.2      2.124      4.844
REMARK  Name = 10249180
REMARK  4 active torsions:
REMARK  status: ('A' for Active; 'I' for Inactive)
REMARK    1  A    between atoms: C_5  and  N_17
REMARK    2  A    between atoms: C_7  and  C_11
REMARK    3  A    between atoms: N_17  and  C_19
REMARK    4  A    between atoms: C_19  and  C_21
REMARK                            x       y       z     vdW  Elec       q    Type
REMARK                         _______ _______ _______ _____ _____    ______ ____
ROOT
ATOM      1 BR   UNL     1      32.666 -20.584 -20.218  0.00  0.00    -0.066 Br
ATOM      2  N   UNL     1      34.507 -22.220 -16.993  0.00  0.00    -0.152 N 
ATOM      3  N   UNL     1      32.115 -22.330 -17.252  0.00  0.00    -0.388 NA
ATOM      4  N   UNL     1      35.601 -21.731 -17.644  0.00  0.00    -0.173 NA
ATOM      5  C   UNL     1      34.473 -22.922 -15.778  0.00  0.00    +0.126 C 
ATOM      6  C   UNL     1      33.339 -21.942 -17.704  0.00  0.00    +0.200 C 
ATOM      7  C   UNL     1      32.081 -22.969 -16.118  0.00  0.00    +0.135 C 
ATOM      8  C   UNL     1      33.283 -23.322 -15.299  0.00  0.00    +0.064 C 
ATOM      9  C   UNL     1      33.720 -21.257 -18.835  0.00  0.00    +0.168 C 
ATOM     10  C   UNL     1      35.113 -21.159 -18.743  0.00  0.00    +0.112 C 
ENDROOT
BRANCH   7  11
ATOM     11  C   UNL     1      30.765 -23.407 -15.583  0.00  0.00    +0.030 C 
ATOM     12  C   UNL     1      30.712 -24.330 -14.541  0.00  0.00    +0.003 C 
ATOM     13  C   UNL     1      29.590 -22.895 -16.127  0.00  0.00    +0.003 C 
ATOM     14  C   UNL     1      29.478 -24.741 -14.039  0.00  0.00    +0.000 C 
ATOM     15  C   UNL     1      28.354 -23.305 -15.625  0.00  0.00    +0.000 C 
ATOM     16  C   UNL     1      28.299 -24.229 -14.581  0.00  0.00    +0.000 C 
ENDBRANCH   7  11
BRANCH   5  17
ATOM     17  N   UNL     1      35.665 -23.166 -15.157  0.00  0.00    -0.316 N 
ATOM     18  H   UNL     1      36.397 -22.517 -15.265  0.00  0.00    +0.148 HD
BRANCH  17  19
ATOM     19  C   UNL     1      35.888 -24.331 -14.353  0.00  0.00    +0.117 C 
BRANCH  19  21
ATOM     20  N   UNL     1      38.878 -26.626 -14.335  0.00  0.00    -0.243 NA
ATOM     21  C   UNL     1      37.313 -24.802 -14.431  0.00  0.00    +0.017 C 
ATOM     22  C   UNL     1      38.339 -23.902 -14.655  0.00  0.00    +0.001 C 
ATOM     23  C   UNL     1      37.619 -26.137 -14.278  0.00  0.00    +0.096 C 
ATOM     24  C   UNL     1      39.647 -24.367 -14.721  0.00  0.00    +0.020 C 
ATOM     25  C   UNL     1      39.862 -25.725 -14.556  0.00  0.00    +0.099 C 
ENDBRANCH  19  21
ENDBRANCH  17  19
ENDBRANCH   5  17
TORSDOF 4
ENDMDL
