MODEL 1
REMARK VINA RESULT:     -12.8      0.000      0.000
REMARK  Name = 213046
REMARK  4 active torsions:
REMARK  status: ('A' for Active; 'I' for Inactive)
REMARK    1  A    between atoms: C_1  and  C_7
REMARK    2  A    between atoms: C_2  and  C_20
REMARK    3  A    between atoms: C_7  and  N_10
REMARK    4  A    between atoms: C_20  and  N_22
REMARK                            x       y       z     vdW  Elec       q    Type
REMARK                         _______ _______ _______ _____ _____    ______ ____
ROOT
ATOM      1  C   UNL     1      31.346  -9.239 -21.851  0.00  0.00    +0.018 C 
ATOM      2  C   UNL     1      31.941 -10.446 -21.083  0.00  0.00    -0.019 C 
ATOM      3  C   UNL     1      31.570  -7.932 -21.070  0.00  0.00    +0.002 C 
ATOM      4  C   UNL     1      31.387 -10.506 -19.648  0.00  0.00    -0.002 C 
ATOM      5  C   UNL     1      31.022  -8.014 -19.649  0.00  0.00    +0.000 C 
ATOM      6  C   UNL     1      31.609  -9.200 -18.894  0.00  0.00    -0.000 C 
ENDROOT
BRANCH   1   7
ATOM      7  C   UNL     1      31.931  -9.094 -23.259  0.00  0.00    +0.101 C 
BRANCH   7  10
ATOM      8  O   UNL     1      34.565  -7.819 -23.292  0.00  0.00    -0.274 OA
ATOM      9  O   UNL     1      30.094  -6.978 -24.134  0.00  0.00    -0.274 OA
ATOM     10  N   UNL     1      32.243  -7.711 -23.564  0.00  0.00    -0.230 N 
ATOM     11  C   UNL     1      34.145  -5.442 -25.272  0.00  0.00    +0.009 C 
ATOM     12  C   UNL     1      31.988  -5.037 -25.677  0.00  0.00    +0.009 C 
ATOM     13  C   UNL     1      33.473  -5.757 -23.921  0.00  0.00    +0.086 C 
ATOM     14  C   UNL     1      31.988  -5.478 -24.201  0.00  0.00    +0.086 C 
ATOM     15  C   UNL     1      33.097  -5.896 -26.291  0.00  0.00    +0.001 C 
ATOM     16  C   UNL     1      34.113  -3.917 -25.477  0.00  0.00    +0.001 C 
ATOM     17  C   UNL     1      32.625  -3.636 -25.756  0.00  0.00    +0.001 C 
ATOM     18  C   UNL     1      33.532  -7.216 -23.544  0.00  0.00    +0.231 C 
ATOM     19  C   UNL     1      31.292  -6.795 -23.964  0.00  0.00    +0.231 C 
ENDBRANCH   7  10
ENDBRANCH   1   7
BRANCH   2  20
ATOM     20  C   UNL     1      31.671 -11.779 -21.785  0.00  0.00    -0.077 C 
BRANCH  20  22
ATOM     21  S   UNL     1      35.764 -18.600 -21.211  0.00  0.00    +0.014 S 
ATOM     22  N   UNL     1      32.798 -12.696 -21.615  0.00  0.00    +0.389 N 
ATOM     23  N   UNL     1      34.092 -15.245 -21.659  0.00  0.00    -0.297 N 
ATOM     24  N   UNL     1      35.416 -17.034 -20.801  0.00  0.00    -0.194 NA
ATOM     25  C   UNL     1      32.490 -13.710 -20.598  0.00  0.00    -0.055 C 
ATOM     26  C   UNL     1      33.133 -13.343 -22.891  0.00  0.00    -0.055 C 
ATOM     27  C   UNL     1      33.685 -14.640 -20.384  0.00  0.00    +0.069 C 
ATOM     28  C   UNL     1      34.335 -14.282 -22.738  0.00  0.00    +0.069 C 
ATOM     29  C   UNL     1      34.579 -16.533 -21.710  0.00  0.00    +0.140 A 
ATOM     30  C   UNL     1      34.182 -17.402 -22.784  0.00  0.00    +0.040 A 
ATOM     31  C   UNL     1      34.793 -18.648 -22.630  0.00  0.00    +0.050 A 
ATOM     32  C   UNL     1      33.329 -17.204 -23.891  0.00  0.00    +0.003 C 
ATOM     33  C   UNL     1      34.587 -19.701 -23.537  0.00  0.00    +0.008 C 
ATOM     34  C   UNL     1      33.116 -18.246 -24.801  0.00  0.00    +0.000 C 
ATOM     35  C   UNL     1      33.739 -19.477 -24.624  0.00  0.00    +0.001 C 
ATOM     36  H   UNL     1      33.604 -12.155 -21.304  0.00  0.00    -0.080 HD
ENDBRANCH  20  22
ENDBRANCH   2  20
TORSDOF 4
ENDMDL
MODEL 2
REMARK VINA RESULT:     -11.6      1.460      2.166
REMARK  Name = 213046
REMARK  4 active torsions:
REMARK  status: ('A' for Active; 'I' for Inactive)
REMARK    1  A    between atoms: C_1  and  C_7
REMARK    2  A    between atoms: C_2  and  C_20
REMARK    3  A    between atoms: C_7  and  N_10
REMARK    4  A    between atoms: C_20  and  N_22
REMARK                            x       y       z     vdW  Elec       q    Type
REMARK                         _______ _______ _______ _____ _____    ______ ____
ROOT
ATOM      1  C   UNL     1      30.758  -7.045 -22.441  0.00  0.00    +0.018 C 
ATOM      2  C   UNL     1      31.539  -8.166 -21.710  0.00  0.00    -0.019 C 
ATOM      3  C   UNL     1      31.115  -5.665 -21.860  0.00  0.00    +0.002 C 
ATOM      4  C   UNL     1      31.316  -8.083 -20.190  0.00  0.00    -0.002 C 
ATOM      5  C   UNL     1      30.896  -5.605 -20.352  0.00  0.00    +0.000 C 
ATOM      6  C   UNL     1      31.666  -6.707 -19.634  0.00  0.00    -0.000 C 
ENDROOT
BRANCH   1   7
ATOM      7  C   UNL     1      31.014  -7.041 -23.951  0.00  0.00    +0.101 C 
BRANCH   7  10
ATOM      8  O   UNL     1      33.910  -7.456 -24.004  0.00  0.00    -0.274 OA
ATOM      9  O   UNL     1      30.660  -4.300 -24.943  0.00  0.00    -0.274 OA
ATOM     10  N   UNL     1      32.041  -6.083 -24.312  0.00  0.00    -0.230 N 
ATOM     11  C   UNL     1      34.863  -5.340 -26.091  0.00  0.00    +0.009 C 
ATOM     12  C   UNL     1      33.294  -3.818 -26.543  0.00  0.00    +0.009 C 
ATOM     13  C   UNL     1      34.148  -5.166 -24.738  0.00  0.00    +0.086 C 
ATOM     14  C   UNL     1      33.068  -4.118 -25.049  0.00  0.00    +0.086 C 
ATOM     15  C   UNL     1      33.727  -5.176 -27.104  0.00  0.00    +0.001 C 
ATOM     16  C   UNL     1      35.686  -4.067 -26.363  0.00  0.00    +0.001 C 
ATOM     17  C   UNL     1      34.604  -3.016 -26.675  0.00  0.00    +0.001 C 
ATOM     18  C   UNL     1      33.387  -6.391 -24.296  0.00  0.00    +0.231 C 
ATOM     19  C   UNL     1      31.758  -4.810 -24.765  0.00  0.00    +0.231 C 
ENDBRANCH   7  10
ENDBRANCH   1   7
BRANCH   2  20
ATOM     20  C   UNL     1      31.154  -9.565 -22.201  0.00  0.00    -0.077 C 
BRANCH  20  22
ATOM     21  S   UNL     1      34.597 -16.649 -20.953  0.00  0.00    +0.014 S 
ATOM     22  N   UNL     1      32.130 -10.559 -21.758  0.00  0.00    +0.389 N 
ATOM     23  N   UNL     1      33.280 -13.173 -21.611  0.00  0.00    -0.297 N 
ATOM     24  N   UNL     1      34.185 -15.100 -20.537  0.00  0.00    -0.194 NA
ATOM     25  C   UNL     1      31.470 -11.626 -20.995  0.00  0.00    -0.055 C 
ATOM     26  C   UNL     1      32.847 -11.127 -22.908  0.00  0.00    -0.055 C 
ATOM     27  C   UNL     1      32.495 -12.642 -20.489  0.00  0.00    +0.069 C 
ATOM     28  C   UNL     1      33.898 -12.147 -22.458  0.00  0.00    +0.069 C 
ATOM     29  C   UNL     1      33.713 -14.480 -21.619  0.00  0.00    +0.140 A 
ATOM     30  C   UNL     1      33.666 -15.239 -22.839  0.00  0.00    +0.040 A 
ATOM     31  C   UNL     1      34.150 -16.529 -22.610  0.00  0.00    +0.050 A 
ATOM     32  C   UNL     1      33.234 -14.905 -24.141  0.00  0.00    +0.003 C 
ATOM     33  C   UNL     1      34.220 -17.495 -23.627  0.00  0.00    +0.008 C 
ATOM     34  C   UNL     1      33.300 -15.860 -25.162  0.00  0.00    +0.000 C 
ATOM     35  C   UNL     1      33.787 -17.137 -24.906  0.00  0.00    +0.001 C 
ATOM     36  H   UNL     1      32.806 -10.095 -21.151  0.00  0.00    -0.080 HD
ENDBRANCH  20  22
ENDBRANCH   2  20
TORSDOF 4
ENDMDL
MODEL 3
REMARK VINA RESULT:     -10.8      7.540     14.139
REMARK  Name = 213046
REMARK  4 active torsions:
REMARK  status: ('A' for Active; 'I' for Inactive)
REMARK    1  A    between atoms: C_1  and  C_7
REMARK    2  A    between atoms: C_2  and  C_20
REMARK    3  A    between atoms: C_7  and  N_10
REMARK    4  A    between atoms: C_20  and  N_22
REMARK                            x       y       z     vdW  Elec       q    Type
REMARK                         _______ _______ _______ _____ _____    ______ ____
ROOT
ATOM      1  C   UNL     1      34.377 -21.727 -17.714  0.00  0.00    +0.018 C 
ATOM      2  C   UNL     1      34.515 -21.224 -19.172  0.00  0.00    -0.019 C 
ATOM      3  C   UNL     1      33.046 -22.476 -17.520  0.00  0.00    +0.002 C 
ATOM      4  C   UNL     1      33.292 -20.381 -19.576  0.00  0.00    -0.002 C 
ATOM      5  C   UNL     1      31.848 -21.628 -17.933  0.00  0.00    +0.000 C 
ATOM      6  C   UNL     1      31.984 -21.135 -19.368  0.00  0.00    -0.000 C 
ENDROOT
BRANCH   1   7
ATOM      7  C   UNL     1      35.535 -22.638 -17.296  0.00  0.00    +0.101 C 
BRANCH   7  10
ATOM      8  O   UNL     1      34.167 -24.605 -15.616  0.00  0.00    -0.274 OA
ATOM      9  O   UNL     1      37.201 -21.119 -15.415  0.00  0.00    -0.274 OA
ATOM     10  N   UNL     1      35.607 -22.777 -15.854  0.00  0.00    -0.230 N 
ATOM     11  C   UNL     1      36.030 -24.782 -13.119  0.00  0.00    +0.009 C 
ATOM     12  C   UNL     1      37.494 -23.099 -13.022  0.00  0.00    +0.009 C 
ATOM     13  C   UNL     1      35.235 -23.596 -13.698  0.00  0.00    +0.086 C 
ATOM     14  C   UNL     1      36.242 -22.438 -13.631  0.00  0.00    +0.086 C 
ATOM     15  C   UNL     1      37.455 -24.513 -13.610  0.00  0.00    +0.001 C 
ATOM     16  C   UNL     1      36.194 -24.553 -11.605  0.00  0.00    +0.001 C 
ATOM     17  C   UNL     1      37.203 -23.392 -11.537  0.00  0.00    +0.001 C 
ATOM     18  C   UNL     1      34.909 -23.747 -15.163  0.00  0.00    +0.231 C 
ATOM     19  C   UNL     1      36.428 -21.999 -15.062  0.00  0.00    +0.231 C 
ENDBRANCH   7  10
ENDBRANCH   1   7
BRANCH   2  20
ATOM     20  C   UNL     1      35.789 -20.404 -19.391  0.00  0.00    -0.077 C 
BRANCH  20  22
ATOM     21  S   UNL     1      33.322 -15.389 -25.080  0.00  0.00    +0.014 S 
ATOM     22  N   UNL     1      35.737 -19.691 -20.668  0.00  0.00    +0.389 N 
ATOM     23  N   UNL     1      34.811 -17.677 -22.473  0.00  0.00    -0.297 N 
ATOM     24  N   UNL     1      33.953 -16.815 -24.525  0.00  0.00    -0.194 NA
ATOM     25  C   UNL     1      34.390 -19.767 -21.247  0.00  0.00    -0.055 C 
ATOM     26  C   UNL     1      36.135 -18.288 -20.491  0.00  0.00    -0.055 C 
ATOM     27  C   UNL     1      34.346 -19.064 -22.604  0.00  0.00    +0.069 C 
ATOM     28  C   UNL     1      36.119 -17.535 -21.826  0.00  0.00    +0.069 C 
ATOM     29  C   UNL     1      34.263 -16.669 -23.236  0.00  0.00    +0.140 A 
ATOM     30  C   UNL     1      34.001 -15.388 -22.641  0.00  0.00    +0.040 A 
ATOM     31  C   UNL     1      33.448 -14.530 -23.595  0.00  0.00    +0.050 A 
ATOM     32  C   UNL     1      34.200 -14.897 -21.331  0.00  0.00    +0.003 C 
ATOM     33  C   UNL     1      33.090 -13.206 -23.294  0.00  0.00    +0.008 C 
ATOM     34  C   UNL     1      33.846 -13.579 -21.021  0.00  0.00    +0.000 C 
ATOM     35  C   UNL     1      33.299 -12.747 -21.991  0.00  0.00    +0.001 C 
ATOM     36  H   UNL     1      36.394 -20.136 -21.308  0.00  0.00    -0.080 HD
ENDBRANCH  20  22
ENDBRANCH   2  20
TORSDOF 4
ENDMDL
MODEL 4
REMARK VINA RESULT:     -10.7      1.721      2.512
REMARK  Name = 213046
REMARK  4 active torsions:
REMARK  status: ('A' for Active; 'I' for Inactive)
REMARK    1  A    between atoms: C_1  and  C_7
REMARK    2  A    between atoms: C_2  and  C_20
REMARK    3  A    between atoms: C_7  and  N_10
REMARK    4  A    between atoms: C_20  and  N_22
REMARK                            x       y       z     vdW  Elec       q    Type
REMARK                         _______ _______ _______ _____ _____    ______ ____
ROOT
ATOM      1  C   UNL     1      32.357  -8.929 -22.522  0.00  0.00    +0.018 C 
ATOM      2  C   UNL     1      32.521 -10.267 -23.286  0.00  0.00    -0.019 C 
ATOM      3  C   UNL     1      33.044  -7.781 -23.281  0.00  0.00    +0.002 C 
ATOM      4  C   UNL     1      34.005 -10.549 -23.579  0.00  0.00    -0.002 C 
ATOM      5  C   UNL     1      34.511  -8.082 -23.569  0.00  0.00    +0.000 C 
ATOM      6  C   UNL     1      34.671  -9.397 -24.322  0.00  0.00    -0.000 C 
ENDROOT
BRANCH   1   7
ATOM      7  C   UNL     1      30.889  -8.569 -22.279  0.00  0.00    +0.101 C 
BRANCH   7  10
ATOM      8  O   UNL     1      31.264  -6.411 -20.338  0.00  0.00    -0.274 OA
ATOM      9  O   UNL     1      30.076  -7.191 -24.741  0.00  0.00    -0.274 OA
ATOM     10  N   UNL     1      30.651  -7.151 -22.472  0.00  0.00    -0.230 N 
ATOM     11  C   UNL     1      31.744  -3.927 -22.166  0.00  0.00    +0.009 C 
ATOM     12  C   UNL     1      31.170  -4.304 -24.290  0.00  0.00    +0.009 C 
ATOM     13  C   UNL     1      30.524  -4.859 -22.036  0.00  0.00    +0.086 C 
ATOM     14  C   UNL     1      30.129  -5.119 -23.498  0.00  0.00    +0.086 C 
ATOM     15  C   UNL     1      32.433  -4.438 -23.434  0.00  0.00    +0.001 C 
ATOM     16  C   UNL     1      31.244  -2.549 -22.638  0.00  0.00    +0.001 C 
ATOM     17  C   UNL     1      30.848  -2.809 -24.104  0.00  0.00    +0.001 C 
ATOM     18  C   UNL     1      30.860  -6.218 -21.475  0.00  0.00    +0.231 C 
ATOM     19  C   UNL     1      30.264  -6.609 -23.681  0.00  0.00    +0.231 C 
ENDBRANCH   7  10
ENDBRANCH   1   7
BRANCH   2  20
ATOM     20  C   UNL     1      31.921 -11.453 -22.526  0.00  0.00    -0.077 C 
BRANCH  20  22
ATOM     21  S   UNL     1      35.430 -18.452 -21.007  0.00  0.00    +0.014 S 
ATOM     22  N   UNL     1      32.957 -12.423 -22.173  0.00  0.00    +0.389 N 
ATOM     23  N   UNL     1      34.058 -15.046 -21.885  0.00  0.00    -0.297 N 
ATOM     24  N   UNL     1      35.161 -16.837 -20.760  0.00  0.00    -0.194 NA
ATOM     25  C   UNL     1      32.482 -13.323 -21.114  0.00  0.00    -0.055 C 
ATOM     26  C   UNL     1      33.361 -13.200 -23.353  0.00  0.00    -0.055 C 
ATOM     27  C   UNL     1      33.580 -14.308 -20.709  0.00  0.00    +0.069 C 
ATOM     28  C   UNL     1      34.470 -14.198 -23.008  0.00  0.00    +0.069 C 
ATOM     29  C   UNL     1      34.451 -16.363 -21.785  0.00  0.00    +0.140 A 
ATOM     30  C   UNL     1      34.094 -17.294 -22.820  0.00  0.00    +0.040 A 
ATOM     31  C   UNL     1      34.594 -18.559 -22.508  0.00  0.00    +0.050 A 
ATOM     32  C   UNL     1      33.364 -17.136 -24.019  0.00  0.00    +0.003 C 
ATOM     33  C   UNL     1      34.397 -19.670 -23.343  0.00  0.00    +0.008 C 
ATOM     34  C   UNL     1      33.161 -18.237 -24.859  0.00  0.00    +0.000 C 
ATOM     35  C   UNL     1      33.672 -19.487 -24.523  0.00  0.00    +0.001 C 
ATOM     36  H   UNL     1      33.768 -11.912 -21.827  0.00  0.00    -0.080 HD
ENDBRANCH  20  22
ENDBRANCH   2  20
TORSDOF 4
ENDMDL
