MODEL 1
REMARK VINA RESULT:     -13.7      0.000      0.000
REMARK  Name = 23629645
REMARK  6 active torsions:
REMARK  status: ('A' for Active; 'I' for Inactive)
REMARK    1  A    between atoms: N_1  and  C_6
REMARK    2  A    between atoms: N_1  and  C_21
REMARK    3  A    between atoms: C_3  and  C_16
REMARK    4  A    between atoms: C_11  and  C_18
REMARK    5  A    between atoms: C_18  and  O_19
REMARK    6  A    between atoms: C_21  and  C_28
REMARK                            x       y       z     vdW  Elec       q    Type
REMARK                         _______ _______ _______ _____ _____    ______ ____
ROOT
ATOM      1  N   UNL     1      34.407 -18.648 -22.376  0.00  0.00    -0.300 N 
ATOM      2  C   UNL     1      33.747 -18.891 -23.642  0.00  0.00    +0.113 C 
ENDROOT
BRANCH   1   6
ATOM      3  C   UNL     1      33.675 -21.143 -19.083  0.00  0.00    +0.054 C 
ATOM      4  C   UNL     1      34.983 -20.921 -19.508  0.00  0.00    +0.006 C 
ATOM      5  C   UNL     1      32.609 -20.541 -19.747  0.00  0.00    +0.006 C 
ATOM      6  C   UNL     1      34.161 -19.487 -21.268  0.00  0.00    +0.048 C 
ATOM      7  C   UNL     1      35.227 -20.091 -20.602  0.00  0.00    +0.015 C 
ATOM      8  C   UNL     1      32.852 -19.711 -20.842  0.00  0.00    +0.015 C 
BRANCH   3  16
ATOM      9  O   UNL     1      32.254 -22.377 -17.773  0.00  0.00    -0.270 OA
ATOM     10  N   UNL     1      34.496 -22.359 -17.111  0.00  0.00    -0.276 N 
ATOM     11  C   UNL     1      36.172 -22.030 -14.766  0.00  0.00    +0.102 C 
ATOM     12  C   UNL     1      34.742 -22.576 -14.677  0.00  0.00    +0.033 C 
ATOM     13  C   UNL     1      36.405 -21.223 -16.049  0.00  0.00    +0.033 C 
ATOM     14  C   UNL     1      34.285 -23.248 -15.972  0.00  0.00    +0.094 C 
ATOM     15  C   UNL     1      35.886 -21.931 -17.299  0.00  0.00    +0.094 C 
ATOM     16  C   UNL     1      33.419 -22.017 -17.931  0.00  0.00    +0.249 C 
BRANCH  11  18
ATOM     17  O   UNL     1      38.287 -23.126 -15.125  0.00  0.00    -0.250 OA
ATOM     18  C   UNL     1      37.162 -23.152 -14.645  0.00  0.00    +0.317 C 
BRANCH  18  19
ATOM     19  O   UNL     1      36.610 -24.173 -13.931  0.00  0.00    -0.444 OA
ATOM     20  C   UNL     1      37.046 -25.486 -14.297  0.00  0.00    +0.256 C 
ENDBRANCH  18  19
ENDBRANCH  11  18
ENDBRANCH   3  16
ENDBRANCH   1   6
BRANCH   1  21
ATOM     21  C   UNL     1      35.314 -17.523 -22.257  0.00  0.00    +0.148 C 
BRANCH  21  28
ATOM     22  N   UNL     1      34.085 -15.574 -23.011  0.00  0.00    -0.392 NA
ATOM     23  N   UNL     1      33.796 -14.652 -20.417  0.00  0.00    -0.200 NA
ATOM     24  N   UNL     1      32.628 -12.807 -21.187  0.00  0.00    -0.271 NA
ATOM     25  N   UNL     1      32.213 -12.500 -23.529  0.00  0.00    -0.310 NA
ATOM     26  N   UNL     1      33.007 -14.100 -25.076  0.00  0.00    -0.329 N 
ATOM     27  N   UNL     1      31.442 -10.937 -21.965  0.00  0.00    -0.283 N 
ATOM     28  C   UNL     1      34.582 -16.239 -21.967  0.00  0.00    +0.133 C 
ATOM     29  C   UNL     1      34.449 -15.799 -20.689  0.00  0.00    +0.193 C 
ATOM     30  C   UNL     1      33.433 -14.427 -22.736  0.00  0.00    +0.248 C 
ATOM     31  C   UNL     1      33.280 -13.950 -21.433  0.00  0.00    +0.131 C 
ATOM     32  C   UNL     1      32.874 -13.653 -23.735  0.00  0.00    +0.231 C 
ATOM     33  C   UNL     1      32.127 -12.139 -22.243  0.00  0.00    +0.207 C 
ATOM     34  H   UNL     1      32.620 -13.571 -25.811  0.00  0.00    +0.145 HD
ATOM     35  H   UNL     1      33.484 -14.939 -25.270  0.00  0.00    +0.145 HD
ATOM     36  H   UNL     1      31.351 -10.627 -21.034  0.00  0.00    +0.156 HD
ATOM     37  H   UNL     1      31.057 -10.408 -22.700  0.00  0.00    +0.156 HD
ENDBRANCH  21  28
ENDBRANCH   1  21
TORSDOF 6
ENDMDL
MODEL 2
REMARK VINA RESULT:     -13.6      1.058      2.052
REMARK  Name = 23629645
REMARK  6 active torsions:
REMARK  status: ('A' for Active; 'I' for Inactive)
REMARK    1  A    between atoms: N_1  and  C_6
REMARK    2  A    between atoms: N_1  and  C_21
REMARK    3  A    between atoms: C_3  and  C_16
REMARK    4  A    between atoms: C_11  and  C_18
REMARK    5  A    between atoms: C_18  and  O_19
REMARK    6  A    between atoms: C_21  and  C_28
REMARK                            x       y       z     vdW  Elec       q    Type
REMARK                         _______ _______ _______ _____ _____    ______ ____
ROOT
ATOM      1  N   UNL     1      35.180 -18.771 -21.979  0.00  0.00    -0.300 N 
ATOM      2  C   UNL     1      36.424 -18.053 -21.796  0.00  0.00    +0.113 C 
ENDROOT
BRANCH   1   6
ATOM      3  C   UNL     1      33.674 -21.227 -18.928  0.00  0.00    +0.054 C 
ATOM      4  C   UNL     1      35.049 -21.146 -19.138  0.00  0.00    +0.006 C 
ATOM      5  C   UNL     1      32.797 -20.497 -19.726  0.00  0.00    +0.006 C 
ATOM      6  C   UNL     1      34.673 -19.597 -20.952  0.00  0.00    +0.048 C 
ATOM      7  C   UNL     1      35.549 -20.330 -20.152  0.00  0.00    +0.015 C 
ATOM      8  C   UNL     1      33.297 -19.681 -20.740  0.00  0.00    +0.015 C 
BRANCH   3  16
ATOM      9  O   UNL     1      31.943 -22.331 -17.905  0.00  0.00    -0.270 OA
ATOM     10  N   UNL     1      34.035 -22.547 -16.885  0.00  0.00    -0.276 N 
ATOM     11  C   UNL     1      35.323 -22.420 -14.289  0.00  0.00    +0.102 C 
ATOM     12  C   UNL     1      33.852 -22.821 -14.451  0.00  0.00    +0.033 C 
ATOM     13  C   UNL     1      35.843 -21.621 -15.491  0.00  0.00    +0.033 C 
ATOM     14  C   UNL     1      33.554 -23.426 -15.823  0.00  0.00    +0.094 C 
ATOM     15  C   UNL     1      35.473 -22.256 -16.830  0.00  0.00    +0.094 C 
ATOM     16  C   UNL     1      33.147 -22.087 -17.860  0.00  0.00    +0.249 C 
BRANCH  11  18
ATOM     17  O   UNL     1      35.714 -24.747 -13.804  0.00  0.00    -0.250 OA
ATOM     18  C   UNL     1      36.167 -23.636 -14.041  0.00  0.00    +0.317 C 
BRANCH  18  19
ATOM     19  O   UNL     1      37.486 -23.299 -14.122  0.00  0.00    -0.444 OA
ATOM     20  C   UNL     1      38.371 -24.364 -14.485  0.00  0.00    +0.256 C 
ENDBRANCH  18  19
ENDBRANCH  11  18
ENDBRANCH   3  16
ENDBRANCH   1   6
BRANCH   1  21
ATOM     21  C   UNL     1      34.467 -18.643 -23.235  0.00  0.00    +0.148 C 
BRANCH  21  28
ATOM     22  N   UNL     1      34.098 -16.362 -22.498  0.00  0.00    -0.392 NA
ATOM     23  N   UNL     1      33.439 -15.555 -25.062  0.00  0.00    -0.200 NA
ATOM     24  N   UNL     1      33.099 -13.392 -24.309  0.00  0.00    -0.271 NA
ATOM     25  N   UNL     1      33.406 -12.828 -21.999  0.00  0.00    -0.310 NA
ATOM     26  N   UNL     1      34.065 -14.500 -20.465  0.00  0.00    -0.329 N 
ATOM     27  N   UNL     1      32.754 -11.198 -23.549  0.00  0.00    -0.283 N 
ATOM     28  C   UNL     1      34.095 -17.213 -23.525  0.00  0.00    +0.133 C 
ATOM     29  C   UNL     1      33.773 -16.831 -24.789  0.00  0.00    +0.193 C 
ATOM     30  C   UNL     1      33.763 -15.087 -22.773  0.00  0.00    +0.248 C 
ATOM     31  C   UNL     1      33.428 -14.665 -24.062  0.00  0.00    +0.131 C 
ATOM     32  C   UNL     1      33.732 -14.116 -21.791  0.00  0.00    +0.231 C 
ATOM     33  C   UNL     1      33.103 -12.537 -23.269  0.00  0.00    +0.207 C 
ATOM     34  H   UNL     1      34.052 -13.833 -19.742  0.00  0.00    +0.145 HD
ATOM     35  H   UNL     1      34.309 -15.433 -20.271  0.00  0.00    +0.145 HD
ATOM     36  H   UNL     1      32.523 -10.932 -24.468  0.00  0.00    +0.156 HD
ATOM     37  H   UNL     1      32.740 -10.532 -22.825  0.00  0.00    +0.156 HD
ENDBRANCH  21  28
ENDBRANCH   1  21
TORSDOF 6
ENDMDL
MODEL 3
REMARK VINA RESULT:     -12.3      4.177     10.436
REMARK  Name = 23629645
REMARK  6 active torsions:
REMARK  status: ('A' for Active; 'I' for Inactive)
REMARK    1  A    between atoms: N_1  and  C_6
REMARK    2  A    between atoms: N_1  and  C_21
REMARK    3  A    between atoms: C_3  and  C_16
REMARK    4  A    between atoms: C_11  and  C_18
REMARK    5  A    between atoms: C_18  and  O_19
REMARK    6  A    between atoms: C_21  and  C_28
REMARK                            x       y       z     vdW  Elec       q    Type
REMARK                         _______ _______ _______ _____ _____    ______ ____
ROOT
ATOM      1  N   UNL     1      35.518 -20.070 -20.110  0.00  0.00    -0.300 N 
ATOM      2  C   UNL     1      36.433 -19.738 -19.037  0.00  0.00    +0.113 C 
ENDROOT
BRANCH   1   6
ATOM      3  C   UNL     1      34.366 -17.154 -22.899  0.00  0.00    +0.054 C 
ATOM      4  C   UNL     1      35.300 -16.841 -21.915  0.00  0.00    +0.006 C 
ATOM      5  C   UNL     1      33.812 -18.430 -22.961  0.00  0.00    +0.006 C 
ATOM      6  C   UNL     1      35.131 -19.089 -21.048  0.00  0.00    +0.048 C 
ATOM      7  C   UNL     1      35.684 -17.810 -20.988  0.00  0.00    +0.015 C 
ATOM      8  C   UNL     1      34.194 -19.399 -22.034  0.00  0.00    +0.015 C 
BRANCH   3  16
ATOM      9  O   UNL     1      34.165 -16.402 -25.056  0.00  0.00    -0.270 OA
ATOM     10  N   UNL     1      33.398 -14.949 -23.394  0.00  0.00    -0.276 N 
ATOM     11  C   UNL     1      33.520 -12.171 -22.570  0.00  0.00    +0.102 C 
ATOM     12  C   UNL     1      33.653 -12.593 -24.037  0.00  0.00    +0.033 C 
ATOM     13  C   UNL     1      33.846 -13.317 -21.604  0.00  0.00    +0.033 C 
ATOM     14  C   UNL     1      32.959 -13.922 -24.334  0.00  0.00    +0.094 C 
ATOM     15  C   UNL     1      33.155 -14.626 -21.983  0.00  0.00    +0.094 C 
ATOM     16  C   UNL     1      33.962 -16.133 -23.874  0.00  0.00    +0.249 C 
BRANCH  11  18
ATOM     17  O   UNL     1      31.417 -11.997 -21.406  0.00  0.00    -0.250 OA
ATOM     18  C   UNL     1      32.148 -11.620 -22.312  0.00  0.00    +0.317 C 
BRANCH  18  19
ATOM     19  O   UNL     1      31.863 -10.656 -23.233  0.00  0.00    -0.444 OA
ATOM     20  C   UNL     1      31.779  -9.322 -22.722  0.00  0.00    +0.256 C 
ENDBRANCH  18  19
ENDBRANCH  11  18
ENDBRANCH   3  16
ENDBRANCH   1   6
BRANCH   1  21
ATOM     21  C   UNL     1      34.994 -21.418 -20.201  0.00  0.00    +0.148 C 
BRANCH  21  28
ATOM     22  N   UNL     1      34.477 -22.253 -17.984  0.00  0.00    -0.392 NA
ATOM     23  N   UNL     1      31.788 -21.681 -18.308  0.00  0.00    -0.200 NA
ATOM     24  N   UNL     1      31.345 -22.491 -16.184  0.00  0.00    -0.271 NA
ATOM     25  N   UNL     1      33.105 -23.350 -14.800  0.00  0.00    -0.310 NA
ATOM     26  N   UNL     1      35.324 -23.373 -15.612  0.00  0.00    -0.329 N 
ATOM     27  N   UNL     1      30.893 -23.309 -14.031  0.00  0.00    -0.283 N 
ATOM     28  C   UNL     1      34.002 -21.710 -19.106  0.00  0.00    +0.133 C 
ATOM     29  C   UNL     1      32.686 -21.425 -19.279  0.00  0.00    +0.193 C 
ATOM     30  C   UNL     1      33.578 -22.509 -17.013  0.00  0.00    +0.248 C 
ATOM     31  C   UNL     1      32.219 -22.226 -17.163  0.00  0.00    +0.131 C 
ATOM     32  C   UNL     1      33.951 -23.069 -15.807  0.00  0.00    +0.231 C 
ATOM     33  C   UNL     1      31.829 -23.038 -15.053  0.00  0.00    +0.207 C 
ATOM     34  H   UNL     1      35.623 -23.774 -14.763  0.00  0.00    +0.145 HD
ATOM     35  H   UNL     1      35.976 -23.184 -16.324  0.00  0.00    +0.145 HD
ATOM     36  H   UNL     1      29.941 -23.098 -14.167  0.00  0.00    +0.156 HD
ATOM     37  H   UNL     1      31.193 -23.710 -13.184  0.00  0.00    +0.156 HD
ENDBRANCH  21  28
ENDBRANCH   1  21
TORSDOF 6
ENDMDL
MODEL 4
REMARK VINA RESULT:     -12.1      2.151      3.391
REMARK  Name = 23629645
REMARK  6 active torsions:
REMARK  status: ('A' for Active; 'I' for Inactive)
REMARK    1  A    between atoms: N_1  and  C_6
REMARK    2  A    between atoms: N_1  and  C_21
REMARK    3  A    between atoms: C_3  and  C_16
REMARK    4  A    between atoms: C_11  and  C_18
REMARK    5  A    between atoms: C_18  and  O_19
REMARK    6  A    between atoms: C_21  and  C_28
REMARK                            x       y       z     vdW  Elec       q    Type
REMARK                         _______ _______ _______ _____ _____    ______ ____
ROOT
ATOM      1  N   UNL     1      33.639 -20.557 -19.857  0.00  0.00    -0.300 N 
ATOM      2  C   UNL     1      32.366 -20.180 -20.436  0.00  0.00    +0.113 C 
ENDROOT
BRANCH   1   6
ATOM      3  C   UNL     1      33.778 -22.780 -16.301  0.00  0.00    +0.054 C 
ATOM      4  C   UNL     1      34.931 -22.160 -16.776  0.00  0.00    +0.006 C 
ATOM      5  C   UNL     1      32.580 -22.667 -17.000  0.00  0.00    +0.006 C 
ATOM      6  C   UNL     1      33.686 -21.305 -18.660  0.00  0.00    +0.048 C 
ATOM      7  C   UNL     1      34.885 -21.421 -17.958  0.00  0.00    +0.015 C 
ATOM      8  C   UNL     1      32.533 -21.928 -18.182  0.00  0.00    +0.015 C 
BRANCH   3  16
ATOM      9  O   UNL     1      32.744 -23.835 -14.546  0.00  0.00    -0.270 OA
ATOM     10  N   UNL     1      35.080 -23.913 -14.549  0.00  0.00    -0.276 N 
ATOM     11  C   UNL     1      37.369 -23.534 -12.808  0.00  0.00    +0.102 C 
ATOM     12  C   UNL     1      36.004 -23.983 -12.275  0.00  0.00    +0.033 C 
ATOM     13  C   UNL     1      37.258 -22.828 -14.165  0.00  0.00    +0.033 C 
ATOM     14  C   UNL     1      35.169 -24.709 -13.329  0.00  0.00    +0.094 C 
ATOM     15  C   UNL     1      36.375 -23.584 -15.157  0.00  0.00    +0.094 C 
ATOM     16  C   UNL     1      33.828 -23.559 -15.056  0.00  0.00    +0.249 C 
BRANCH  11  18
ATOM     17  O   UNL     1      38.084 -25.793 -12.372  0.00  0.00    -0.250 OA
ATOM     18  C   UNL     1      38.307 -24.703 -12.882  0.00  0.00    +0.317 C 
BRANCH  18  19
ATOM     19  O   UNL     1      39.417 -24.354 -13.592  0.00  0.00    -0.444 OA
ATOM     20  C   UNL     1      39.982 -25.392 -14.400  0.00  0.00    +0.256 C 
ENDBRANCH  18  19
ENDBRANCH  11  18
ENDBRANCH   3  16
ENDBRANCH   1   6
BRANCH   1  21
ATOM     21  C   UNL     1      34.864 -20.146 -20.513  0.00  0.00    +0.148 C 
BRANCH  21  28
ATOM     22  N   UNL     1      34.076 -18.938 -22.462  0.00  0.00    -0.392 NA
ATOM     23  N   UNL     1      34.990 -16.533 -21.441  0.00  0.00    -0.200 NA
ATOM     24  N   UNL     1      34.219 -15.426 -23.323  0.00  0.00    -0.271 NA
ATOM     25  N   UNL     1      33.125 -16.617 -25.094  0.00  0.00    -0.310 NA
ATOM     26  N   UNL     1      32.827 -18.954 -24.919  0.00  0.00    -0.329 N 
ATOM     27  N   UNL     1      33.438 -14.300 -25.229  0.00  0.00    -0.283 N 
ATOM     28  C   UNL     1      34.687 -18.862 -21.279  0.00  0.00    +0.133 C 
ATOM     29  C   UNL     1      35.141 -17.689 -20.766  0.00  0.00    +0.193 C 
ATOM     30  C   UNL     1      33.924 -17.782 -23.136  0.00  0.00    +0.248 C 
ATOM     31  C   UNL     1      34.381 -16.561 -22.634  0.00  0.00    +0.131 C 
ATOM     32  C   UNL     1      33.306 -17.736 -24.370  0.00  0.00    +0.231 C 
ATOM     33  C   UNL     1      33.601 -15.508 -24.516  0.00  0.00    +0.207 C 
ATOM     34  H   UNL     1      32.381 -18.956 -25.797  0.00  0.00    +0.145 HD
ATOM     35  H   UNL     1      32.939 -19.796 -24.422  0.00  0.00    +0.145 HD
ATOM     36  H   UNL     1      33.771 -13.455 -24.848  0.00  0.00    +0.156 HD
ATOM     37  H   UNL     1      32.994 -14.303 -26.107  0.00  0.00    +0.156 HD
ENDBRANCH  21  28
ENDBRANCH   1  21
TORSDOF 6
ENDMDL
MODEL 5
REMARK VINA RESULT:     -11.9      4.613      8.588
REMARK  Name = 23629645
REMARK  6 active torsions:
REMARK  status: ('A' for Active; 'I' for Inactive)
REMARK    1  A    between atoms: N_1  and  C_6
REMARK    2  A    between atoms: N_1  and  C_21
REMARK    3  A    between atoms: C_3  and  C_16
REMARK    4  A    between atoms: C_11  and  C_18
REMARK    5  A    between atoms: C_18  and  O_19
REMARK    6  A    between atoms: C_21  and  C_28
REMARK                            x       y       z     vdW  Elec       q    Type
REMARK                         _______ _______ _______ _____ _____    ______ ____
ROOT
ATOM      1  N   UNL     1      32.146 -10.377 -22.777  0.00  0.00    -0.300 N 
ATOM      2  C   UNL     1      30.992 -10.102 -21.946  0.00  0.00    +0.113 C 
ENDROOT
BRANCH   1   6
ATOM      3  C   UNL     1      33.113 -14.321 -23.830  0.00  0.00    +0.054 C 
ATOM      4  C   UNL     1      32.932 -13.363 -24.824  0.00  0.00    +0.006 C 
ATOM      5  C   UNL     1      32.974 -13.977 -22.489  0.00  0.00    +0.006 C 
ATOM      6  C   UNL     1      32.472 -11.703 -23.132  0.00  0.00    +0.048 C 
ATOM      7  C   UNL     1      32.611 -12.052 -24.475  0.00  0.00    +0.015 C 
ATOM      8  C   UNL     1      32.653 -12.666 -22.138  0.00  0.00    +0.015 C 
BRANCH   3  16
ATOM      9  O   UNL     1      32.980 -16.111 -25.258  0.00  0.00    -0.270 OA
ATOM     10  N   UNL     1      34.259 -16.438 -23.329  0.00  0.00    -0.276 N 
ATOM     11  C   UNL     1      34.690 -18.342 -21.183  0.00  0.00    +0.102 C 
ATOM     12  C   UNL     1      34.208 -18.774 -22.572  0.00  0.00    +0.033 C 
ATOM     13  C   UNL     1      34.410 -16.859 -20.907  0.00  0.00    +0.033 C 
ATOM     14  C   UNL     1      34.637 -17.806 -23.674  0.00  0.00    +0.094 C 
ATOM     15  C   UNL     1      34.822 -15.951 -22.065  0.00  0.00    +0.094 C 
ATOM     16  C   UNL     1      33.451 -15.702 -24.199  0.00  0.00    +0.249 C 
BRANCH  11  18
ATOM     17  O   UNL     1      37.015 -18.317 -21.816  0.00  0.00    -0.250 OA
ATOM     18  C   UNL     1      36.149 -18.655 -21.021  0.00  0.00    +0.317 C 
BRANCH  18  19
ATOM     19  O   UNL     1      36.338 -19.361 -19.870  0.00  0.00    -0.444 OA
ATOM     20  C   UNL     1      35.549 -20.548 -19.739  0.00  0.00    +0.256 C 
ENDBRANCH  18  19
ENDBRANCH  11  18
ENDBRANCH   3  16
ENDBRANCH   1   6
BRANCH   1  21
ATOM     21  C   UNL     1      32.970  -9.273 -23.231  0.00  0.00    +0.148 C 
BRANCH  21  28
ATOM     22  N   UNL     1      32.229  -7.335 -21.978  0.00  0.00    -0.392 NA
ATOM     23  N   UNL     1      30.966  -6.278 -24.203  0.00  0.00    -0.200 NA
ATOM     24  N   UNL     1      30.282  -4.446 -22.962  0.00  0.00    -0.271 NA
ATOM     25  N   UNL     1      30.853  -4.245 -20.642  0.00  0.00    -0.310 NA
ATOM     26  N   UNL     1      32.131  -5.939 -19.602  0.00  0.00    -0.329 N 
ATOM     27  N   UNL     1      29.588  -2.587 -21.708  0.00  0.00    -0.283 N 
ATOM     28  C   UNL     1      32.239  -7.959 -23.156  0.00  0.00    +0.133 C 
ATOM     29  C   UNL     1      31.623  -7.453 -24.256  0.00  0.00    +0.193 C 
ATOM     30  C   UNL     1      31.571  -6.160 -21.926  0.00  0.00    +0.248 C 
ATOM     31  C   UNL     1      30.929  -5.615 -23.040  0.00  0.00    +0.131 C 
ATOM     32  C   UNL     1      31.493  -5.422 -20.760  0.00  0.00    +0.231 C 
ATOM     33  C   UNL     1      30.275  -3.819 -21.771  0.00  0.00    +0.207 C 
ATOM     34  H   UNL     1      32.095  -5.438 -18.755  0.00  0.00    +0.145 HD
ATOM     35  H   UNL     1      32.611  -6.797 -19.646  0.00  0.00    +0.145 HD
ATOM     36  H   UNL     1      29.146  -2.230 -22.511  0.00  0.00    +0.156 HD
ATOM     37  H   UNL     1      29.551  -2.088 -20.861  0.00  0.00    +0.156 HD
ENDBRANCH  21  28
ENDBRANCH   1  21
TORSDOF 6
ENDMDL
MODEL 6
REMARK VINA RESULT:     -11.8      4.179     10.465
REMARK  Name = 23629645
REMARK  6 active torsions:
REMARK  status: ('A' for Active; 'I' for Inactive)
REMARK    1  A    between atoms: N_1  and  C_6
REMARK    2  A    between atoms: N_1  and  C_21
REMARK    3  A    between atoms: C_3  and  C_16
REMARK    4  A    between atoms: C_11  and  C_18
REMARK    5  A    between atoms: C_18  and  O_19
REMARK    6  A    between atoms: C_21  and  C_28
REMARK                            x       y       z     vdW  Elec       q    Type
REMARK                         _______ _______ _______ _____ _____    ______ ____
ROOT
ATOM      1  N   UNL     1      35.242 -19.843 -20.511  0.00  0.00    -0.300 N 
ATOM      2  C   UNL     1      36.353 -19.702 -19.592  0.00  0.00    +0.113 C 
ENDROOT
BRANCH   1   6
ATOM      3  C   UNL     1      34.207 -16.701 -23.091  0.00  0.00    +0.054 C 
ATOM      4  C   UNL     1      34.860 -16.426 -21.892  0.00  0.00    +0.006 C 
ATOM      5  C   UNL     1      33.894 -18.013 -23.437  0.00  0.00    +0.006 C 
ATOM      6  C   UNL     1      34.894 -18.786 -21.379  0.00  0.00    +0.048 C 
ATOM      7  C   UNL     1      35.205 -17.471 -21.035  0.00  0.00    +0.015 C 
ATOM      8  C   UNL     1      34.239 -19.058 -22.580  0.00  0.00    +0.015 C 
BRANCH   3  16
ATOM      9  O   UNL     1      34.095 -15.771 -25.185  0.00  0.00    -0.270 OA
ATOM     10  N   UNL     1      33.259 -14.459 -23.440  0.00  0.00    -0.276 N 
ATOM     11  C   UNL     1      33.347 -11.759 -22.383  0.00  0.00    +0.102 C 
ATOM     12  C   UNL     1      33.541 -12.058 -23.874  0.00  0.00    +0.033 C 
ATOM     13  C   UNL     1      33.632 -12.983 -21.504  0.00  0.00    +0.033 C 
ATOM     14  C   UNL     1      32.860 -13.356 -24.309  0.00  0.00    +0.094 C 
ATOM     15  C   UNL     1      32.958 -14.254 -22.019  0.00  0.00    +0.094 C 
ATOM     16  C   UNL     1      33.843 -15.601 -23.994  0.00  0.00    +0.249 C 
BRANCH  11  18
ATOM     17  O   UNL     1      31.310 -10.614 -22.968  0.00  0.00    -0.250 OA
ATOM     18  C   UNL     1      31.965 -11.227 -22.137  0.00  0.00    +0.317 C 
BRANCH  18  19
ATOM     19  O   UNL     1      31.577 -11.535 -20.867  0.00  0.00    -0.444 OA
ATOM     20  C   UNL     1      31.297 -10.415 -20.021  0.00  0.00    +0.256 C 
ENDBRANCH  18  19
ENDBRANCH  11  18
ENDBRANCH   3  16
ENDBRANCH   1   6
BRANCH   1  21
ATOM     21  C   UNL     1      34.483 -21.078 -20.518  0.00  0.00    +0.148 C 
BRANCH  21  28
ATOM     22  N   UNL     1      35.184 -21.686 -18.278  0.00  0.00    -0.392 NA
ATOM     23  N   UNL     1      32.578 -22.238 -17.525  0.00  0.00    -0.200 NA
ATOM     24  N   UNL     1      33.298 -22.809 -15.400  0.00  0.00    -0.271 NA
ATOM     25  N   UNL     1      35.621 -22.705 -14.815  0.00  0.00    -0.310 NA
ATOM     26  N   UNL     1      37.202 -22.011 -16.428  0.00  0.00    -0.329 N 
ATOM     27  N   UNL     1      34.024 -23.387 -13.244  0.00  0.00    -0.283 N 
ATOM     28  C   UNL     1      34.162 -21.549 -19.124  0.00  0.00    +0.133 C 
ATOM     29  C   UNL     1      32.879 -21.817 -18.769  0.00  0.00    +0.193 C 
ATOM     30  C   UNL     1      34.882 -22.108 -17.035  0.00  0.00    +0.248 C 
ATOM     31  C   UNL     1      33.572 -22.391 -16.641  0.00  0.00    +0.131 C 
ATOM     32  C   UNL     1      35.856 -22.286 -16.071  0.00  0.00    +0.231 C 
ATOM     33  C   UNL     1      34.332 -22.945 -14.549  0.00  0.00    +0.207 C 
ATOM     34  H   UNL     1      37.920 -22.128 -15.765  0.00  0.00    +0.145 HD
ATOM     35  H   UNL     1      37.417 -21.702 -17.338  0.00  0.00    +0.145 HD
ATOM     36  H   UNL     1      33.090 -23.578 -12.997  0.00  0.00    +0.156 HD
ATOM     37  H   UNL     1      34.743 -23.505 -12.582  0.00  0.00    +0.156 HD
ENDBRANCH  21  28
ENDBRANCH   1  21
TORSDOF 6
ENDMDL
MODEL 7
REMARK VINA RESULT:     -11.7      4.324     10.523
REMARK  Name = 23629645
REMARK  6 active torsions:
REMARK  status: ('A' for Active; 'I' for Inactive)
REMARK    1  A    between atoms: N_1  and  C_6
REMARK    2  A    between atoms: N_1  and  C_21
REMARK    3  A    between atoms: C_3  and  C_16
REMARK    4  A    between atoms: C_11  and  C_18
REMARK    5  A    between atoms: C_18  and  O_19
REMARK    6  A    between atoms: C_21  and  C_28
REMARK                            x       y       z     vdW  Elec       q    Type
REMARK                         _______ _______ _______ _____ _____    ______ ____
ROOT
ATOM      1  N   UNL     1      35.122 -19.626 -20.632  0.00  0.00    -0.300 N 
ATOM      2  C   UNL     1      36.328 -19.532 -19.834  0.00  0.00    +0.113 C 
ENDROOT
BRANCH   1   6
ATOM      3  C   UNL     1      34.076 -16.539 -23.274  0.00  0.00    +0.054 C 
ATOM      4  C   UNL     1      34.719 -16.238 -22.076  0.00  0.00    +0.006 C 
ATOM      5  C   UNL     1      33.777 -17.859 -23.599  0.00  0.00    +0.006 C 
ATOM      6  C   UNL     1      34.770 -18.587 -21.521  0.00  0.00    +0.048 C 
ATOM      7  C   UNL     1      35.068 -17.263 -21.198  0.00  0.00    +0.015 C 
ATOM      8  C   UNL     1      34.125 -18.886 -22.721  0.00  0.00    +0.015 C 
BRANCH   3  16
ATOM      9  O   UNL     1      33.916 -15.671 -25.391  0.00  0.00    -0.270 OA
ATOM     10  N   UNL     1      33.170 -14.286 -23.661  0.00  0.00    -0.276 N 
ATOM     11  C   UNL     1      33.356 -11.559 -22.692  0.00  0.00    +0.102 C 
ATOM     12  C   UNL     1      33.493 -11.907 -24.178  0.00  0.00    +0.033 C 
ATOM     13  C   UNL     1      33.642 -12.762 -21.785  0.00  0.00    +0.033 C 
ATOM     14  C   UNL     1      32.768 -13.200 -24.551  0.00  0.00    +0.094 C 
ATOM     15  C   UNL     1      32.921 -14.031 -22.238  0.00  0.00    +0.094 C 
ATOM     16  C   UNL     1      33.708 -15.458 -24.198  0.00  0.00    +0.249 C 
BRANCH  11  18
ATOM     17  O   UNL     1      31.403 -10.235 -23.181  0.00  0.00    -0.250 OA
ATOM     18  C   UNL     1      31.996 -10.986 -22.418  0.00  0.00    +0.317 C 
BRANCH  18  19
ATOM     19  O   UNL     1      31.548 -11.431 -21.210  0.00  0.00    -0.444 OA
ATOM     20  C   UNL     1      31.176 -10.411 -20.277  0.00  0.00    +0.256 C 
ENDBRANCH  18  19
ENDBRANCH  11  18
ENDBRANCH   3  16
ENDBRANCH   1   6
BRANCH   1  21
ATOM     21  C   UNL     1      34.274 -20.793 -20.496  0.00  0.00    +0.148 C 
BRANCH  21  28
ATOM     22  N   UNL     1      33.155 -21.693 -18.542  0.00  0.00    -0.392 NA
ATOM     23  N   UNL     1      35.563 -22.026 -17.217  0.00  0.00    -0.200 NA
ATOM     24  N   UNL     1      34.447 -22.878 -15.376  0.00  0.00    -0.271 NA
ATOM     25  N   UNL     1      32.059 -23.090 -15.369  0.00  0.00    -0.310 NA
ATOM     26  N   UNL     1      30.822 -22.421 -17.268  0.00  0.00    -0.329 N 
ATOM     27  N   UNL     1      33.320 -23.744 -13.507  0.00  0.00    -0.283 N 
ATOM     28  C   UNL     1      34.319 -21.362 -19.102  0.00  0.00    +0.133 C 
ATOM     29  C   UNL     1      35.508 -21.519 -18.464  0.00  0.00    +0.193 C 
ATOM     30  C   UNL     1      33.211 -22.200 -17.295  0.00  0.00    +0.248 C 
ATOM     31  C   UNL     1      34.418 -22.373 -16.614  0.00  0.00    +0.131 C 
ATOM     32  C   UNL     1      32.071 -22.580 -16.613  0.00  0.00    +0.231 C 
ATOM     33  C   UNL     1      33.270 -23.212 -14.814  0.00  0.00    +0.207 C 
ATOM     34  H   UNL     1      29.990 -22.682 -16.810  0.00  0.00    +0.145 HD
ATOM     35  H   UNL     1      30.787 -22.051 -18.179  0.00  0.00    +0.145 HD
ATOM     36  H   UNL     1      34.187 -23.854 -13.054  0.00  0.00    +0.156 HD
ATOM     37  H   UNL     1      32.488 -24.004 -13.050  0.00  0.00    +0.156 HD
ENDBRANCH  21  28
ENDBRANCH   1  21
TORSDOF 6
ENDMDL
MODEL 8
REMARK VINA RESULT:     -11.5      4.096      7.706
REMARK  Name = 23629645
REMARK  6 active torsions:
REMARK  status: ('A' for Active; 'I' for Inactive)
REMARK    1  A    between atoms: N_1  and  C_6
REMARK    2  A    between atoms: N_1  and  C_21
REMARK    3  A    between atoms: C_3  and  C_16
REMARK    4  A    between atoms: C_11  and  C_18
REMARK    5  A    between atoms: C_18  and  O_19
REMARK    6  A    between atoms: C_21  and  C_28
REMARK                            x       y       z     vdW  Elec       q    Type
REMARK                         _______ _______ _______ _____ _____    ______ ____
ROOT
ATOM      1  N   UNL     1      32.666 -11.005 -22.891  0.00  0.00    -0.300 N 
ATOM      2  C   UNL     1      33.519  -9.910 -23.306  0.00  0.00    +0.113 C 
ENDROOT
BRANCH   1   6
ATOM      3  C   UNL     1      33.731 -14.971 -23.752  0.00  0.00    +0.054 C 
ATOM      4  C   UNL     1      34.044 -14.423 -22.511  0.00  0.00    +0.006 C 
ATOM      5  C   UNL     1      33.066 -14.209 -24.709  0.00  0.00    +0.006 C 
ATOM      6  C   UNL     1      33.024 -12.339 -23.180  0.00  0.00    +0.048 C 
ATOM      7  C   UNL     1      33.690 -13.105 -22.224  0.00  0.00    +0.015 C 
ATOM      8  C   UNL     1      32.712 -12.891 -24.423  0.00  0.00    +0.015 C 
BRANCH   3  16
ATOM      9  O   UNL     1      33.912 -16.734 -25.209  0.00  0.00    -0.270 OA
ATOM     10  N   UNL     1      34.631 -17.139 -23.022  0.00  0.00    -0.276 N 
ATOM     11  C   UNL     1      34.420 -19.090 -20.885  0.00  0.00    +0.102 C 
ATOM     12  C   UNL     1      34.303 -19.483 -22.362  0.00  0.00    +0.033 C 
ATOM     13  C   UNL     1      34.129 -17.602 -20.655  0.00  0.00    +0.033 C 
ATOM     14  C   UNL     1      35.038 -18.516 -23.289  0.00  0.00    +0.094 C 
ATOM     15  C   UNL     1      34.861 -16.694 -21.642  0.00  0.00    +0.094 C 
ATOM     16  C   UNL     1      34.104 -16.359 -24.054  0.00  0.00    +0.249 C 
BRANCH  11  18
ATOM     17  O   UNL     1      36.699 -18.675 -20.221  0.00  0.00    -0.250 OA
ATOM     18  C   UNL     1      35.774 -19.464 -20.356  0.00  0.00    +0.317 C 
BRANCH  18  19
ATOM     19  O   UNL     1      35.797 -20.795 -20.060  0.00  0.00    -0.444 OA
ATOM     20  C   UNL     1      35.734 -21.117 -18.667  0.00  0.00    +0.256 C 
ENDBRANCH  18  19
ENDBRANCH  11  18
ENDBRANCH   3  16
ENDBRANCH   1   6
BRANCH   1  21
ATOM     21  C   UNL     1      31.433 -10.713 -22.186  0.00  0.00    +0.148 C 
BRANCH  21  28
ATOM     22  N   UNL     1      30.971  -8.439 -22.888  0.00  0.00    -0.392 NA
ATOM     23  N   UNL     1      31.385  -7.478 -20.325  0.00  0.00    -0.200 NA
ATOM     24  N   UNL     1      30.936  -5.323 -21.046  0.00  0.00    -0.271 NA
ATOM     25  N   UNL     1      30.386  -4.879 -23.337  0.00  0.00    -0.310 NA
ATOM     26  N   UNL     1      30.300  -6.661 -24.885  0.00  0.00    -0.329 N 
ATOM     27  N   UNL     1      30.480  -3.138 -21.772  0.00  0.00    -0.283 N 
ATOM     28  C   UNL     1      31.297  -9.246 -21.877  0.00  0.00    +0.133 C 
ATOM     29  C   UNL     1      31.504  -8.788 -20.615  0.00  0.00    +0.193 C 
ATOM     30  C   UNL     1      30.853  -7.129 -22.597  0.00  0.00    +0.248 C 
ATOM     31  C   UNL     1      31.059  -6.630 -21.309  0.00  0.00    +0.131 C 
ATOM     32  C   UNL     1      30.518  -6.198 -23.561  0.00  0.00    +0.231 C 
ATOM     33  C   UNL     1      30.606  -4.513 -22.069  0.00  0.00    +0.207 C 
ATOM     34  H   UNL     1      30.060  -6.024 -25.596  0.00  0.00    +0.145 HD
ATOM     35  H   UNL     1      30.387  -7.620 -25.092  0.00  0.00    +0.145 HD
ATOM     36  H   UNL     1      30.632  -2.818 -20.854  0.00  0.00    +0.156 HD
ATOM     37  H   UNL     1      30.242  -2.502 -22.484  0.00  0.00    +0.156 HD
ENDBRANCH  21  28
ENDBRANCH   1  21
TORSDOF 6
ENDMDL
MODEL 9
REMARK VINA RESULT:     -11.0      8.013     14.506
REMARK  Name = 23629645
REMARK  6 active torsions:
REMARK  status: ('A' for Active; 'I' for Inactive)
REMARK    1  A    between atoms: N_1  and  C_6
REMARK    2  A    between atoms: N_1  and  C_21
REMARK    3  A    between atoms: C_3  and  C_16
REMARK    4  A    between atoms: C_11  and  C_18
REMARK    5  A    between atoms: C_18  and  O_19
REMARK    6  A    between atoms: C_21  and  C_28
REMARK                            x       y       z     vdW  Elec       q    Type
REMARK                         _______ _______ _______ _____ _____    ______ ____
ROOT
ATOM      1  N   UNL     1      32.196 -11.064 -22.707  0.00  0.00    -0.300 N 
ATOM      2  C   UNL     1      31.274 -11.650 -21.755  0.00  0.00    +0.113 C 
ENDROOT
BRANCH   1   6
ATOM      3  C   UNL     1      32.375  -6.902 -23.208  0.00  0.00    +0.054 C 
ATOM      4  C   UNL     1      33.528  -7.668 -23.357  0.00  0.00    +0.006 C 
ATOM      5  C   UNL     1      31.163  -7.510 -22.892  0.00  0.00    +0.006 C 
ATOM      6  C   UNL     1      32.256  -9.664 -22.876  0.00  0.00    +0.048 C 
ATOM      7  C   UNL     1      33.469  -9.052 -23.191  0.00  0.00    +0.015 C 
ATOM      8  C   UNL     1      31.103  -8.894 -22.726  0.00  0.00    +0.015 C 
BRANCH   3  16
ATOM      9  O   UNL     1      32.005  -4.769 -22.450  0.00  0.00    -0.270 OA
ATOM     10  N   UNL     1      32.963  -4.946 -24.575  0.00  0.00    -0.276 N 
ATOM     11  C   UNL     1      32.729  -3.897 -27.270  0.00  0.00    +0.102 C 
ATOM     12  C   UNL     1      32.317  -3.082 -26.038  0.00  0.00    +0.033 C 
ATOM     13  C   UNL     1      32.753  -5.404 -26.987  0.00  0.00    +0.033 C 
ATOM     14  C   UNL     1      33.066  -3.503 -24.774  0.00  0.00    +0.094 C 
ATOM     15  C   UNL     1      33.479  -5.752 -25.688  0.00  0.00    +0.094 C 
ATOM     16  C   UNL     1      32.437  -5.445 -23.382  0.00  0.00    +0.249 C 
BRANCH  11  18
ATOM     17  O   UNL     1      34.571  -2.357 -27.470  0.00  0.00    -0.250 OA
ATOM     18  C   UNL     1      34.056  -3.421 -27.785  0.00  0.00    +0.317 C 
BRANCH  18  19
ATOM     19  O   UNL     1      34.573  -4.350 -28.638  0.00  0.00    -0.444 OA
ATOM     20  C   UNL     1      35.961  -4.649 -28.453  0.00  0.00    +0.256 C 
ENDBRANCH  18  19
ENDBRANCH  11  18
ENDBRANCH   3  16
ENDBRANCH   1   6
BRANCH   1  21
ATOM     21  C   UNL     1      33.047 -11.935 -23.494  0.00  0.00    +0.148 C 
BRANCH  21  28
ATOM     22  N   UNL     1      33.650 -14.281 -23.401  0.00  0.00    -0.392 NA
ATOM     23  N   UNL     1      34.065 -14.150 -20.668  0.00  0.00    -0.200 NA
ATOM     24  N   UNL     1      34.633 -16.395 -20.633  0.00  0.00    -0.271 NA
ATOM     25  N   UNL     1      34.630 -17.700 -22.644  0.00  0.00    -0.310 NA
ATOM     26  N   UNL     1      34.040 -16.685 -24.695  0.00  0.00    -0.329 N 
ATOM     27  N   UNL     1      35.210 -18.671 -20.593  0.00  0.00    -0.283 N 
ATOM     28  C   UNL     1      33.479 -13.150 -22.717  0.00  0.00    +0.133 C 
ATOM     29  C   UNL     1      33.679 -13.071 -21.375  0.00  0.00    +0.193 C 
ATOM     30  C   UNL     1      34.037 -15.360 -22.693  0.00  0.00    +0.248 C 
ATOM     31  C   UNL     1      34.249 -15.309 -21.314  0.00  0.00    +0.131 C 
ATOM     32  C   UNL     1      34.246 -16.587 -23.293  0.00  0.00    +0.231 C 
ATOM     33  C   UNL     1      34.804 -17.535 -21.328  0.00  0.00    +0.207 C 
ATOM     34  H   UNL     1      34.181 -17.544 -25.153  0.00  0.00    +0.145 HD
ATOM     35  H   UNL     1      33.759 -15.893 -25.207  0.00  0.00    +0.145 HD
ATOM     36  H   UNL     1      35.352 -18.602 -19.621  0.00  0.00    +0.156 HD
ATOM     37  H   UNL     1      35.349 -19.530 -21.052  0.00  0.00    +0.156 HD
ENDBRANCH  21  28
ENDBRANCH   1  21
TORSDOF 6
ENDMDL
