MODEL 1
REMARK VINA RESULT:     -11.5      0.000      0.000
REMARK  Name = 55473
REMARK  9 active torsions:
REMARK  status: ('A' for Active; 'I' for Inactive)
REMARK    1  A    between atoms: O_1  and  C_5
REMARK    2  A    between atoms: O_1  and  C_16
REMARK    3  A    between atoms: C_2  and  C_8
REMARK    4  A    between atoms: C_8  and  N_9
REMARK    5  A    between atoms: C_16  and  C_17
REMARK    6  A    between atoms: C_17  and  C_18
REMARK    7  A    between atoms: C_18  and  N_19
REMARK    8  A    between atoms: C_24  and  C_27
REMARK    9  A    between atoms: C_27  and  O_28
REMARK                            x       y       z     vdW  Elec       q    Type
REMARK                         _______ _______ _______ _____ _____    ______ ____
ROOT
ATOM      1  O   UNL     1      35.195 -21.991 -17.993  0.00  0.00    -0.475 OA
ENDROOT
BRANCH   1   5
ATOM      2  C   UNL     1      34.404 -19.742 -20.768  0.00  0.00    -0.040 C 
ATOM      3  C   UNL     1      35.139 -20.485 -19.844  0.00  0.00    +0.031 C 
ATOM      4  C   UNL     1      33.010 -19.781 -20.744  0.00  0.00    -0.006 C 
ATOM      5  C   UNL     1      34.479 -21.267 -18.895  0.00  0.00    +0.138 C 
ATOM      6  C   UNL     1      32.350 -20.561 -19.795  0.00  0.00    +0.003 C 
ATOM      7  C   UNL     1      33.084 -21.304 -18.870  0.00  0.00    +0.037 C 
BRANCH   2   8
ATOM      8  C   UNL     1      35.116 -18.899 -21.793  0.00  0.00    -0.050 C 
BRANCH   8   9
ATOM      9  N   UNL     1      34.401 -17.652 -22.065  0.00  0.00    +0.390 N 
ATOM     10  C   UNL     1      34.573 -17.257 -23.470  0.00  0.00    -0.077 C 
ATOM     11  C   UNL     1      34.853 -16.590 -21.155  0.00  0.00    -0.077 C 
ATOM     12  C   UNL     1      33.791 -15.982 -23.784  0.00  0.00    -0.023 C 
ATOM     13  C   UNL     1      34.078 -15.293 -21.393  0.00  0.00    -0.023 C 
ATOM     14  C   UNL     1      34.183 -14.845 -22.847  0.00  0.00    -0.004 C 
ATOM     15  H   UNL     1      33.405 -17.804 -21.901  0.00  0.00    -0.079 HD
ENDBRANCH   8   9
ENDBRANCH   2   8
ENDBRANCH   1   5
BRANCH   1  16
ATOM     16  C   UNL     1      36.390 -21.398 -17.486  0.00  0.00    +0.207 C 
BRANCH  16  17
ATOM     17  C   UNL     1      36.560 -21.810 -16.028  0.00  0.00    +0.069 C 
BRANCH  17  18
ATOM     18  C   UNL     1      35.406 -22.659 -15.511  0.00  0.00    +0.094 C 
BRANCH  18  19
ATOM     19  N   UNL     1      35.892 -23.882 -14.915  0.00  0.00    -0.294 N 
ATOM     20  N   UNL     1      36.425 -25.290 -13.091  0.00  0.00    -0.162 N 
ATOM     21  N   UNL     1      35.612 -23.330 -12.570  0.00  0.00    -0.319 NA
ATOM     22  N   UNL     1      36.404 -25.313 -11.751  0.00  0.00    -0.111 NA
ATOM     23  C   UNL     1      35.952 -24.108 -13.571  0.00  0.00    +0.268 C 
ATOM     24  C   UNL     1      35.904 -24.105 -11.484  0.00  0.00    +0.113 C 
ATOM     25  C   UNL     1      36.912 -26.433 -13.827  0.00  0.00    +0.145 C 
ATOM     26  H   UNL     1      36.197 -24.598 -15.517  0.00  0.00    +0.150 HD
BRANCH  24  27
ATOM     27  C   UNL     1      35.686 -23.639 -10.110  0.00  0.00    +0.252 C 
BRANCH  27  28
ATOM     28  O   UNL     1      34.938 -24.573  -9.319  0.00  0.00    -0.368 OA
ATOM     29  H   UNL     1      34.125 -24.818  -9.788  0.00  0.00    +0.212 HD
ENDBRANCH  27  28
ENDBRANCH  24  27
ENDBRANCH  18  19
ENDBRANCH  17  18
ENDBRANCH  16  17
ENDBRANCH   1  16
TORSDOF 9
ENDMDL
MODEL 2
REMARK VINA RESULT:     -11.4      1.833      2.435
REMARK  Name = 55473
REMARK  9 active torsions:
REMARK  status: ('A' for Active; 'I' for Inactive)
REMARK    1  A    between atoms: O_1  and  C_5
REMARK    2  A    between atoms: O_1  and  C_16
REMARK    3  A    between atoms: C_2  and  C_8
REMARK    4  A    between atoms: C_8  and  N_9
REMARK    5  A    between atoms: C_16  and  C_17
REMARK    6  A    between atoms: C_17  and  C_18
REMARK    7  A    between atoms: C_18  and  N_19
REMARK    8  A    between atoms: C_24  and  C_27
REMARK    9  A    between atoms: C_27  and  O_28
REMARK                            x       y       z     vdW  Elec       q    Type
REMARK                         _______ _______ _______ _____ _____    ______ ____
ROOT
ATOM      1  O   UNL     1      35.287 -22.046 -17.992  0.00  0.00    -0.475 OA
ENDROOT
BRANCH   1   5
ATOM      2  C   UNL     1      34.423 -19.815 -20.759  0.00  0.00    -0.040 C 
ATOM      3  C   UNL     1      35.182 -20.557 -19.855  0.00  0.00    +0.031 C 
ATOM      4  C   UNL     1      33.030 -19.837 -20.685  0.00  0.00    -0.006 C 
ATOM      5  C   UNL     1      34.548 -21.322 -18.875  0.00  0.00    +0.138 C 
ATOM      6  C   UNL     1      32.396 -20.601 -19.706  0.00  0.00    +0.003 C 
ATOM      7  C   UNL     1      33.155 -21.343 -18.800  0.00  0.00    +0.037 C 
BRANCH   2   8
ATOM      8  C   UNL     1      35.107 -18.989 -21.817  0.00  0.00    -0.050 C 
BRANCH   8   9
ATOM      9  N   UNL     1      34.409 -17.726 -22.058  0.00  0.00    +0.390 N 
ATOM     10  C   UNL     1      34.594 -17.296 -23.451  0.00  0.00    -0.077 C 
ATOM     11  C   UNL     1      34.871 -16.695 -21.118  0.00  0.00    -0.077 C 
ATOM     12  C   UNL     1      33.831 -16.002 -23.735  0.00  0.00    -0.023 C 
ATOM     13  C   UNL     1      34.115 -15.382 -21.325  0.00  0.00    -0.023 C 
ATOM     14  C   UNL     1      34.233 -14.896 -22.765  0.00  0.00    -0.004 C 
ATOM     15  H   UNL     1      33.411 -17.870 -21.903  0.00  0.00    -0.079 HD
ENDBRANCH   8   9
ENDBRANCH   2   8
ENDBRANCH   1   5
BRANCH   1  16
ATOM     16  C   UNL     1      36.445 -21.416 -17.444  0.00  0.00    +0.207 C 
BRANCH  16  17
ATOM     17  C   UNL     1      36.327 -21.414 -15.924  0.00  0.00    +0.069 C 
BRANCH  17  18
ATOM     18  C   UNL     1      35.383 -22.487 -15.399  0.00  0.00    +0.094 C 
BRANCH  18  19
ATOM     19  N   UNL     1      35.793 -22.942 -14.091  0.00  0.00    -0.294 N 
ATOM     20  N   UNL     1      37.231 -24.065 -12.587  0.00  0.00    -0.162 N 
ATOM     21  N   UNL     1      37.831 -24.114 -14.688  0.00  0.00    -0.319 NA
ATOM     22  N   UNL     1      38.369 -24.774 -12.565  0.00  0.00    -0.111 NA
ATOM     23  C   UNL     1      36.918 -23.675 -13.853  0.00  0.00    +0.268 C 
ATOM     24  C   UNL     1      38.692 -24.775 -13.860  0.00  0.00    +0.113 C 
ATOM     25  C   UNL     1      36.514 -23.811 -11.360  0.00  0.00    +0.145 C 
ATOM     26  H   UNL     1      35.224 -22.706 -13.323  0.00  0.00    +0.150 HD
BRANCH  24  27
ATOM     27  C   UNL     1      39.896 -25.448 -14.361  0.00  0.00    +0.252 C 
BRANCH  27  28
ATOM     28  O   UNL     1      39.927 -25.538 -15.792  0.00  0.00    -0.368 OA
ATOM     29  H   UNL     1      40.075 -24.656 -16.168  0.00  0.00    +0.212 HD
ENDBRANCH  27  28
ENDBRANCH  24  27
ENDBRANCH  18  19
ENDBRANCH  17  18
ENDBRANCH  16  17
ENDBRANCH   1  16
TORSDOF 9
ENDMDL
MODEL 3
REMARK VINA RESULT:     -10.9      2.876      4.566
REMARK  Name = 55473
REMARK  9 active torsions:
REMARK  status: ('A' for Active; 'I' for Inactive)
REMARK    1  A    between atoms: O_1  and  C_5
REMARK    2  A    between atoms: O_1  and  C_16
REMARK    3  A    between atoms: C_2  and  C_8
REMARK    4  A    between atoms: C_8  and  N_9
REMARK    5  A    between atoms: C_16  and  C_17
REMARK    6  A    between atoms: C_17  and  C_18
REMARK    7  A    between atoms: C_18  and  N_19
REMARK    8  A    between atoms: C_24  and  C_27
REMARK    9  A    between atoms: C_27  and  O_28
REMARK                            x       y       z     vdW  Elec       q    Type
REMARK                         _______ _______ _______ _____ _____    ______ ____
ROOT
ATOM      1  O   UNL     1      35.423 -19.061 -20.287  0.00  0.00    -0.475 OA
ENDROOT
BRANCH   1   5
ATOM      2  C   UNL     1      34.477 -16.438 -22.656  0.00  0.00    -0.040 C 
ATOM      3  C   UNL     1      34.981 -17.062 -21.514  0.00  0.00    +0.031 C 
ATOM      4  C   UNL     1      33.927 -17.203 -23.684  0.00  0.00    -0.006 C 
ATOM      5  C   UNL     1      34.933 -18.452 -21.400  0.00  0.00    +0.138 C 
ATOM      6  C   UNL     1      33.879 -18.593 -23.571  0.00  0.00    +0.003 C 
ATOM      7  C   UNL     1      34.381 -19.216 -22.429  0.00  0.00    +0.037 C 
BRANCH   2   8
ATOM      8  C   UNL     1      34.528 -14.938 -22.779  0.00  0.00    -0.050 C 
BRANCH   8   9
ATOM      9  N   UNL     1      33.323 -14.306 -22.243  0.00  0.00    +0.390 N 
ATOM     10  C   UNL     1      33.111 -12.993 -22.867  0.00  0.00    -0.077 C 
ATOM     11  C   UNL     1      33.408 -14.192 -20.780  0.00  0.00    -0.077 C 
ATOM     12  C   UNL     1      31.827 -12.339 -22.354  0.00  0.00    -0.023 C 
ATOM     13  C   UNL     1      32.133 -13.578 -20.199  0.00  0.00    -0.023 C 
ATOM     14  C   UNL     1      31.831 -12.226 -20.834  0.00  0.00    -0.004 C 
ATOM     15  H   UNL     1      32.519 -14.894 -22.466  0.00  0.00    -0.079 HD
ENDBRANCH   8   9
ENDBRANCH   2   8
ENDBRANCH   1   5
BRANCH   1  16
ATOM     16  C   UNL     1      35.097 -20.438 -20.103  0.00  0.00    +0.207 C 
BRANCH  16  17
ATOM     17  C   UNL     1      33.697 -20.535 -19.509  0.00  0.00    +0.069 C 
BRANCH  17  18
ATOM     18  C   UNL     1      33.166 -21.962 -19.467  0.00  0.00    +0.094 C 
BRANCH  18  19
ATOM     19  N   UNL     1      32.346 -22.174 -18.298  0.00  0.00    -0.294 N 
ATOM     20  N   UNL     1      31.974 -22.807 -16.050  0.00  0.00    -0.162 N 
ATOM     21  N   UNL     1      34.037 -22.970 -16.753  0.00  0.00    -0.319 NA
ATOM     22  N   UNL     1      32.630 -23.265 -14.974  0.00  0.00    -0.111 NA
ATOM     23  C   UNL     1      32.818 -22.634 -17.103  0.00  0.00    +0.268 C 
ATOM     24  C   UNL     1      33.873 -23.347 -15.450  0.00  0.00    +0.113 C 
ATOM     25  C   UNL     1      30.553 -22.566 -15.982  0.00  0.00    +0.145 C 
ATOM     26  H   UNL     1      31.385 -21.973 -18.368  0.00  0.00    +0.150 HD
BRANCH  24  27
ATOM     27  C   UNL     1      34.993 -23.816 -14.626  0.00  0.00    +0.252 C 
BRANCH  27  28
ATOM     28  O   UNL     1      36.122 -24.230 -15.407  0.00  0.00    -0.368 OA
ATOM     29  H   UNL     1      35.892 -24.204 -16.349  0.00  0.00    +0.212 HD
ENDBRANCH  27  28
ENDBRANCH  24  27
ENDBRANCH  18  19
ENDBRANCH  17  18
ENDBRANCH  16  17
ENDBRANCH   1  16
TORSDOF 9
ENDMDL
MODEL 4
REMARK VINA RESULT:     -10.8      3.513      4.944
REMARK  Name = 55473
REMARK  9 active torsions:
REMARK  status: ('A' for Active; 'I' for Inactive)
REMARK    1  A    between atoms: O_1  and  C_5
REMARK    2  A    between atoms: O_1  and  C_16
REMARK    3  A    between atoms: C_2  and  C_8
REMARK    4  A    between atoms: C_8  and  N_9
REMARK    5  A    between atoms: C_16  and  C_17
REMARK    6  A    between atoms: C_17  and  C_18
REMARK    7  A    between atoms: C_18  and  N_19
REMARK    8  A    between atoms: C_24  and  C_27
REMARK    9  A    between atoms: C_27  and  O_28
REMARK                            x       y       z     vdW  Elec       q    Type
REMARK                         _______ _______ _______ _____ _____    ______ ____
ROOT
ATOM      1  O   UNL     1      35.332 -19.146 -20.262  0.00  0.00    -0.475 OA
ENDROOT
BRANCH   1   5
ATOM      2  C   UNL     1      34.471 -16.482 -22.618  0.00  0.00    -0.040 C 
ATOM      3  C   UNL     1      34.947 -17.127 -21.476  0.00  0.00    +0.031 C 
ATOM      4  C   UNL     1      33.918 -17.227 -23.659  0.00  0.00    -0.006 C 
ATOM      5  C   UNL     1      34.869 -18.516 -21.375  0.00  0.00    +0.138 C 
ATOM      6  C   UNL     1      33.839 -18.615 -23.560  0.00  0.00    +0.003 C 
ATOM      7  C   UNL     1      34.314 -19.260 -22.417  0.00  0.00    +0.037 C 
BRANCH   2   8
ATOM      8  C   UNL     1      34.555 -14.983 -22.726  0.00  0.00    -0.050 C 
BRANCH   8   9
ATOM      9  N   UNL     1      33.346 -14.331 -22.220  0.00  0.00    +0.390 N 
ATOM     10  C   UNL     1      33.146 -13.035 -22.883  0.00  0.00    -0.077 C 
ATOM     11  C   UNL     1      33.417 -14.177 -20.760  0.00  0.00    -0.077 C 
ATOM     12  C   UNL     1      31.860 -12.362 -22.402  0.00  0.00    -0.023 C 
ATOM     13  C   UNL     1      32.138 -13.542 -20.211  0.00  0.00    -0.023 C 
ATOM     14  C   UNL     1      31.848 -12.207 -20.886  0.00  0.00    -0.004 C 
ATOM     15  H   UNL     1      32.542 -14.922 -22.436  0.00  0.00    -0.079 HD
ENDBRANCH   8   9
ENDBRANCH   2   8
ENDBRANCH   1   5
BRANCH   1  16
ATOM     16  C   UNL     1      35.351 -20.572 -20.282  0.00  0.00    +0.207 C 
BRANCH  16  17
ATOM     17  C   UNL     1      35.140 -21.085 -18.862  0.00  0.00    +0.069 C 
BRANCH  17  18
ATOM     18  C   UNL     1      33.796 -21.777 -18.674  0.00  0.00    +0.094 C 
BRANCH  18  19
ATOM     19  N   UNL     1      33.716 -22.406 -17.376  0.00  0.00    -0.294 N 
ATOM     20  N   UNL     1      32.565 -23.241 -15.487  0.00  0.00    -0.162 N 
ATOM     21  N   UNL     1      31.313 -22.374 -17.054  0.00  0.00    -0.319 NA
ATOM     22  N   UNL     1      31.323 -23.380 -15.000  0.00  0.00    -0.111 NA
ATOM     23  C   UNL     1      32.551 -22.642 -16.708  0.00  0.00    +0.268 C 
ATOM     24  C   UNL     1      30.603 -22.841 -15.985  0.00  0.00    +0.113 C 
ATOM     25  C   UNL     1      33.698 -23.703 -14.721  0.00  0.00    +0.145 C 
ATOM     26  H   UNL     1      34.558 -22.684 -16.948  0.00  0.00    +0.150 HD
BRANCH  24  27
ATOM     27  C   UNL     1      29.140 -22.752 -15.920  0.00  0.00    +0.252 C 
BRANCH  27  28
ATOM     28  O   UNL     1      28.589 -21.899 -16.932  0.00  0.00    -0.368 OA
ATOM     29  H   UNL     1      27.660 -21.710 -16.727  0.00  0.00    +0.212 HD
ENDBRANCH  27  28
ENDBRANCH  24  27
ENDBRANCH  18  19
ENDBRANCH  17  18
ENDBRANCH  16  17
ENDBRANCH   1  16
TORSDOF 9
ENDMDL
MODEL 5
REMARK VINA RESULT:     -10.8      1.563      2.013
REMARK  Name = 55473
REMARK  9 active torsions:
REMARK  status: ('A' for Active; 'I' for Inactive)
REMARK    1  A    between atoms: O_1  and  C_5
REMARK    2  A    between atoms: O_1  and  C_16
REMARK    3  A    between atoms: C_2  and  C_8
REMARK    4  A    between atoms: C_8  and  N_9
REMARK    5  A    between atoms: C_16  and  C_17
REMARK    6  A    between atoms: C_17  and  C_18
REMARK    7  A    between atoms: C_18  and  N_19
REMARK    8  A    between atoms: C_24  and  C_27
REMARK    9  A    between atoms: C_27  and  O_28
REMARK                            x       y       z     vdW  Elec       q    Type
REMARK                         _______ _______ _______ _____ _____    ______ ____
ROOT
ATOM      1  O   UNL     1      35.293 -21.936 -18.005  0.00  0.00    -0.475 OA
ENDROOT
BRANCH   1   5
ATOM      2  C   UNL     1      34.360 -19.788 -20.816  0.00  0.00    -0.040 C 
ATOM      3  C   UNL     1      35.141 -20.494 -19.901  0.00  0.00    +0.031 C 
ATOM      4  C   UNL     1      32.969 -19.835 -20.727  0.00  0.00    -0.006 C 
ATOM      5  C   UNL     1      34.531 -21.247 -18.897  0.00  0.00    +0.138 C 
ATOM      6  C   UNL     1      32.358 -20.587 -19.724  0.00  0.00    +0.003 C 
ATOM      7  C   UNL     1      33.139 -21.292 -18.809  0.00  0.00    +0.037 C 
BRANCH   2   8
ATOM      8  C   UNL     1      35.018 -18.975 -21.899  0.00  0.00    -0.050 C 
BRANCH   8   9
ATOM      9  N   UNL     1      34.348 -17.690 -22.100  0.00  0.00    +0.390 N 
ATOM     10  C   UNL     1      34.512 -17.238 -23.488  0.00  0.00    -0.077 C 
ATOM     11  C   UNL     1      34.858 -16.690 -21.151  0.00  0.00    -0.077 C 
ATOM     12  C   UNL     1      33.776 -15.919 -23.729  0.00  0.00    -0.023 C 
ATOM     13  C   UNL     1      34.132 -15.354 -21.315  0.00  0.00    -0.023 C 
ATOM     14  C   UNL     1      34.229 -14.844 -22.748  0.00  0.00    -0.004 C 
ATOM     15  H   UNL     1      33.350 -17.811 -21.924  0.00  0.00    -0.079 HD
ENDBRANCH   8   9
ENDBRANCH   2   8
ENDBRANCH   1   5
BRANCH   1  16
ATOM     16  C   UNL     1      36.457 -21.281 -17.502  0.00  0.00    +0.207 C 
BRANCH  16  17
ATOM     17  C   UNL     1      36.443 -21.357 -15.980  0.00  0.00    +0.069 C 
BRANCH  17  18
ATOM     18  C   UNL     1      36.856 -22.724 -15.449  0.00  0.00    +0.094 C 
BRANCH  18  19
ATOM     19  N   UNL     1      36.577 -22.835 -14.037  0.00  0.00    -0.294 N 
ATOM     20  N   UNL     1      35.194 -23.297 -12.175  0.00  0.00    -0.162 N 
ATOM     21  N   UNL     1      34.263 -23.554 -14.135  0.00  0.00    -0.319 NA
ATOM     22  N   UNL     1      33.948 -23.689 -11.874  0.00  0.00    -0.111 NA
ATOM     23  C   UNL     1      35.374 -23.219 -13.521  0.00  0.00    +0.268 C 
ATOM     24  C   UNL     1      33.425 -23.832 -13.093  0.00  0.00    +0.113 C 
ATOM     25  C   UNL     1      36.140 -23.019 -11.120  0.00  0.00    +0.145 C 
ATOM     26  H   UNL     1      37.302 -22.621 -13.406  0.00  0.00    +0.150 HD
BRANCH  24  27
ATOM     27  C   UNL     1      32.036 -24.257 -13.299  0.00  0.00    +0.252 C 
BRANCH  27  28
ATOM     28  O   UNL     1      31.086 -23.356 -12.713  0.00  0.00    -0.368 OA
ATOM     29  H   UNL     1      31.557 -22.650 -12.243  0.00  0.00    +0.212 HD
ENDBRANCH  27  28
ENDBRANCH  24  27
ENDBRANCH  18  19
ENDBRANCH  17  18
ENDBRANCH  16  17
ENDBRANCH   1  16
TORSDOF 9
ENDMDL
MODEL 6
REMARK VINA RESULT:     -10.7      2.426      3.881
REMARK  Name = 55473
REMARK  9 active torsions:
REMARK  status: ('A' for Active; 'I' for Inactive)
REMARK    1  A    between atoms: O_1  and  C_5
REMARK    2  A    between atoms: O_1  and  C_16
REMARK    3  A    between atoms: C_2  and  C_8
REMARK    4  A    between atoms: C_8  and  N_9
REMARK    5  A    between atoms: C_16  and  C_17
REMARK    6  A    between atoms: C_17  and  C_18
REMARK    7  A    between atoms: C_18  and  N_19
REMARK    8  A    between atoms: C_24  and  C_27
REMARK    9  A    between atoms: C_27  and  O_28
REMARK                            x       y       z     vdW  Elec       q    Type
REMARK                         _______ _______ _______ _____ _____    ______ ____
ROOT
ATOM      1  O   UNL     1      35.367 -19.052 -20.607  0.00  0.00    -0.475 OA
ENDROOT
BRANCH   1   5
ATOM      2  C   UNL     1      34.411 -16.322 -22.848  0.00  0.00    -0.040 C 
ATOM      3  C   UNL     1      34.919 -16.998 -21.738  0.00  0.00    +0.031 C 
ATOM      4  C   UNL     1      33.857 -17.039 -23.908  0.00  0.00    -0.006 C 
ATOM      5  C   UNL     1      34.873 -18.392 -21.689  0.00  0.00    +0.138 C 
ATOM      6  C   UNL     1      33.811 -18.432 -23.860  0.00  0.00    +0.003 C 
ATOM      7  C   UNL     1      34.318 -19.108 -22.750  0.00  0.00    +0.037 C 
BRANCH   2   8
ATOM      8  C   UNL     1      34.461 -14.818 -22.900  0.00  0.00    -0.050 C 
BRANCH   8   9
ATOM      9  N   UNL     1      33.269 -14.212 -22.306  0.00  0.00    +0.390 N 
ATOM     10  C   UNL     1      33.016 -12.890 -22.896  0.00  0.00    -0.077 C 
ATOM     11  C   UNL     1      33.410 -14.124 -20.846  0.00  0.00    -0.077 C 
ATOM     12  C   UNL     1      31.745 -12.263 -22.322  0.00  0.00    -0.023 C 
ATOM     13  C   UNL     1      32.151 -13.538 -20.204  0.00  0.00    -0.023 C 
ATOM     14  C   UNL     1      31.807 -12.178 -20.801  0.00  0.00    -0.004 C 
ATOM     15  H   UNL     1      32.464 -14.806 -22.509  0.00  0.00    -0.079 HD
ENDBRANCH   8   9
ENDBRANCH   2   8
ENDBRANCH   1   5
BRANCH   1  16
ATOM     16  C   UNL     1      34.763 -20.301 -20.276  0.00  0.00    +0.207 C 
BRANCH  16  17
ATOM     17  C   UNL     1      35.532 -20.926 -19.118  0.00  0.00    +0.069 C 
BRANCH  17  18
ATOM     18  C   UNL     1      34.639 -21.709 -18.164  0.00  0.00    +0.094 C 
BRANCH  18  19
ATOM     19  N   UNL     1      35.346 -22.038 -16.948  0.00  0.00    -0.294 N 
ATOM     20  N   UNL     1      35.488 -22.798 -14.713  0.00  0.00    -0.162 N 
ATOM     21  N   UNL     1      33.482 -22.767 -15.579  0.00  0.00    -0.319 NA
ATOM     22  N   UNL     1      34.716 -23.250 -13.715  0.00  0.00    -0.111 NA
ATOM     23  C   UNL     1      34.747 -22.513 -15.818  0.00  0.00    +0.268 C 
ATOM     24  C   UNL     1      33.512 -23.213 -14.288  0.00  0.00    +0.113 C 
ATOM     25  C   UNL     1      36.913 -22.670 -14.524  0.00  0.00    +0.145 C 
ATOM     26  H   UNL     1      36.322 -21.912 -16.935  0.00  0.00    +0.150 HD
BRANCH  24  27
ATOM     27  C   UNL     1      32.297 -23.622 -13.574  0.00  0.00    +0.252 C 
BRANCH  27  28
ATOM     28  O   UNL     1      31.931 -22.709 -12.531  0.00  0.00    -0.368 OA
ATOM     29  H   UNL     1      32.191 -21.809 -12.783  0.00  0.00    +0.212 HD
ENDBRANCH  27  28
ENDBRANCH  24  27
ENDBRANCH  18  19
ENDBRANCH  17  18
ENDBRANCH  16  17
ENDBRANCH   1  16
TORSDOF 9
ENDMDL
MODEL 7
REMARK VINA RESULT:     -10.6      2.414      3.885
REMARK  Name = 55473
REMARK  9 active torsions:
REMARK  status: ('A' for Active; 'I' for Inactive)
REMARK    1  A    between atoms: O_1  and  C_5
REMARK    2  A    between atoms: O_1  and  C_16
REMARK    3  A    between atoms: C_2  and  C_8
REMARK    4  A    between atoms: C_8  and  N_9
REMARK    5  A    between atoms: C_16  and  C_17
REMARK    6  A    between atoms: C_17  and  C_18
REMARK    7  A    between atoms: C_18  and  N_19
REMARK    8  A    between atoms: C_24  and  C_27
REMARK    9  A    between atoms: C_27  and  O_28
REMARK                            x       y       z     vdW  Elec       q    Type
REMARK                         _______ _______ _______ _____ _____    ______ ____
ROOT
ATOM      1  O   UNL     1      35.347 -19.166 -20.296  0.00  0.00    -0.475 OA
ENDROOT
BRANCH   1   5
ATOM      2  C   UNL     1      34.481 -16.491 -22.637  0.00  0.00    -0.040 C 
ATOM      3  C   UNL     1      34.955 -17.141 -21.498  0.00  0.00    +0.031 C 
ATOM      4  C   UNL     1      33.937 -17.230 -23.686  0.00  0.00    -0.006 C 
ATOM      5  C   UNL     1      34.885 -18.532 -21.408  0.00  0.00    +0.138 C 
ATOM      6  C   UNL     1      33.866 -18.620 -23.597  0.00  0.00    +0.003 C 
ATOM      7  C   UNL     1      34.339 -19.271 -22.458  0.00  0.00    +0.037 C 
BRANCH   2   8
ATOM      8  C   UNL     1      34.557 -14.990 -22.734  0.00  0.00    -0.050 C 
BRANCH   8   9
ATOM      9  N   UNL     1      33.347 -14.349 -22.220  0.00  0.00    +0.390 N 
ATOM     10  C   UNL     1      33.128 -13.057 -22.886  0.00  0.00    -0.077 C 
ATOM     11  C   UNL     1      33.429 -14.187 -20.761  0.00  0.00    -0.077 C 
ATOM     12  C   UNL     1      31.839 -12.395 -22.397  0.00  0.00    -0.023 C 
ATOM     13  C   UNL     1      32.149 -13.563 -20.203  0.00  0.00    -0.023 C 
ATOM     14  C   UNL     1      31.840 -12.234 -20.881  0.00  0.00    -0.004 C 
ATOM     15  H   UNL     1      32.547 -14.948 -22.426  0.00  0.00    -0.079 HD
ENDBRANCH   8   9
ENDBRANCH   2   8
ENDBRANCH   1   5
BRANCH   1  16
ATOM     16  C   UNL     1      34.690 -20.376 -19.919  0.00  0.00    +0.207 C 
BRANCH  16  17
ATOM     17  C   UNL     1      35.725 -21.334 -19.340  0.00  0.00    +0.069 C 
BRANCH  17  18
ATOM     18  C   UNL     1      36.130 -20.980 -17.915  0.00  0.00    +0.094 C 
BRANCH  18  19
ATOM     19  N   UNL     1      35.313 -21.685 -16.956  0.00  0.00    -0.294 N 
ATOM     20  N   UNL     1      34.966 -23.124 -15.111  0.00  0.00    -0.162 N 
ATOM     21  N   UNL     1      37.050 -22.806 -15.687  0.00  0.00    -0.319 NA
ATOM     22  N   UNL     1      35.645 -23.869 -14.228  0.00  0.00    -0.111 NA
ATOM     23  C   UNL     1      35.808 -22.494 -15.975  0.00  0.00    +0.268 C 
ATOM     24  C   UNL     1      36.901 -23.643 -14.618  0.00  0.00    +0.113 C 
ATOM     25  C   UNL     1      33.524 -23.073 -15.056  0.00  0.00    +0.145 C 
ATOM     26  H   UNL     1      34.337 -21.574 -17.013  0.00  0.00    +0.150 HD
BRANCH  24  27
ATOM     27  C   UNL     1      38.049 -24.259 -13.942  0.00  0.00    +0.252 C 
BRANCH  27  28
ATOM     28  O   UNL     1      39.307 -23.825 -14.477  0.00  0.00    -0.368 OA
ATOM     29  H   UNL     1      39.571 -22.994 -14.051  0.00  0.00    +0.212 HD
ENDBRANCH  27  28
ENDBRANCH  24  27
ENDBRANCH  18  19
ENDBRANCH  17  18
ENDBRANCH  16  17
ENDBRANCH   1  16
TORSDOF 9
ENDMDL
MODEL 8
REMARK VINA RESULT:     -10.6      1.980      3.084
REMARK  Name = 55473
REMARK  9 active torsions:
REMARK  status: ('A' for Active; 'I' for Inactive)
REMARK    1  A    between atoms: O_1  and  C_5
REMARK    2  A    between atoms: O_1  and  C_16
REMARK    3  A    between atoms: C_2  and  C_8
REMARK    4  A    between atoms: C_8  and  N_9
REMARK    5  A    between atoms: C_16  and  C_17
REMARK    6  A    between atoms: C_17  and  C_18
REMARK    7  A    between atoms: C_18  and  N_19
REMARK    8  A    between atoms: C_24  and  C_27
REMARK    9  A    between atoms: C_27  and  O_28
REMARK                            x       y       z     vdW  Elec       q    Type
REMARK                         _______ _______ _______ _____ _____    ______ ____
ROOT
ATOM      1  O   UNL     1      33.218 -20.607 -19.909  0.00  0.00    -0.475 OA
ENDROOT
BRANCH   1   5
ATOM      2  C   UNL     1      34.851 -18.330 -22.261  0.00  0.00    -0.040 C 
ATOM      3  C   UNL     1      33.865 -19.097 -21.641  0.00  0.00    +0.031 C 
ATOM      4  C   UNL     1      36.150 -18.321 -21.754  0.00  0.00    -0.006 C 
ATOM      5  C   UNL     1      34.179 -19.858 -20.514  0.00  0.00    +0.138 C 
ATOM      6  C   UNL     1      36.464 -19.080 -20.628  0.00  0.00    +0.003 C 
ATOM      7  C   UNL     1      35.479 -19.849 -20.008  0.00  0.00    +0.037 C 
BRANCH   2   8
ATOM      8  C   UNL     1      34.512 -17.510 -23.478  0.00  0.00    -0.050 C 
BRANCH   8   9
ATOM      9  N   UNL     1      33.848 -16.256 -23.122  0.00  0.00    +0.390 N 
ATOM     10  C   UNL     1      33.818 -15.345 -24.276  0.00  0.00    -0.077 C 
ATOM     11  C   UNL     1      34.511 -15.631 -21.969  0.00  0.00    -0.077 C 
ATOM     12  C   UNL     1      33.083 -14.048 -23.936  0.00  0.00    -0.023 C 
ATOM     13  C   UNL     1      33.798 -14.343 -21.554  0.00  0.00    -0.023 C 
ATOM     14  C   UNL     1      33.697 -13.366 -22.719  0.00  0.00    -0.004 C 
ATOM     15  H   UNL     1      32.883 -16.460 -22.858  0.00  0.00    -0.079 HD
ENDBRANCH   8   9
ENDBRANCH   2   8
ENDBRANCH   1   5
BRANCH   1  16
ATOM     16  C   UNL     1      33.659 -21.646 -19.035  0.00  0.00    +0.207 C 
BRANCH  16  17
ATOM     17  C   UNL     1      32.523 -21.997 -18.081  0.00  0.00    +0.069 C 
BRANCH  17  18
ATOM     18  C   UNL     1      32.985 -22.816 -16.882  0.00  0.00    +0.094 C 
BRANCH  18  19
ATOM     19  N   UNL     1      34.322 -22.440 -16.485  0.00  0.00    -0.294 N 
ATOM     20  N   UNL     1      36.407 -22.807 -15.431  0.00  0.00    -0.162 N 
ATOM     21  N   UNL     1      34.973 -24.450 -15.294  0.00  0.00    -0.319 NA
ATOM     22  N   UNL     1      37.070 -23.735 -14.726  0.00  0.00    -0.111 NA
ATOM     23  C   UNL     1      35.161 -23.240 -15.765  0.00  0.00    +0.268 C 
ATOM     24  C   UNL     1      36.160 -24.710 -14.671  0.00  0.00    +0.113 C 
ATOM     25  C   UNL     1      37.036 -21.544 -15.735  0.00  0.00    +0.145 C 
ATOM     26  H   UNL     1      34.648 -21.551 -16.751  0.00  0.00    +0.150 HD
BRANCH  24  27
ATOM     27  C   UNL     1      36.420 -25.978 -13.980  0.00  0.00    +0.252 C 
BRANCH  27  28
ATOM     28  O   UNL     1      36.302 -25.869 -12.555  0.00  0.00    -0.368 OA
ATOM     29  H   UNL     1      35.648 -25.187 -12.335  0.00  0.00    +0.212 HD
ENDBRANCH  27  28
ENDBRANCH  24  27
ENDBRANCH  18  19
ENDBRANCH  17  18
ENDBRANCH  16  17
ENDBRANCH   1  16
TORSDOF 9
ENDMDL
MODEL 9
REMARK VINA RESULT:     -10.6      6.242     12.972
REMARK  Name = 55473
REMARK  9 active torsions:
REMARK  status: ('A' for Active; 'I' for Inactive)
REMARK    1  A    between atoms: O_1  and  C_5
REMARK    2  A    between atoms: O_1  and  C_16
REMARK    3  A    between atoms: C_2  and  C_8
REMARK    4  A    between atoms: C_8  and  N_9
REMARK    5  A    between atoms: C_16  and  C_17
REMARK    6  A    between atoms: C_17  and  C_18
REMARK    7  A    between atoms: C_18  and  N_19
REMARK    8  A    between atoms: C_24  and  C_27
REMARK    9  A    between atoms: C_27  and  O_28
REMARK                            x       y       z     vdW  Elec       q    Type
REMARK                         _______ _______ _______ _____ _____    ______ ____
ROOT
ATOM      1  O   UNL     1      33.966 -14.391 -20.494  0.00  0.00    -0.475 OA
ENDROOT
BRANCH   1   5
ATOM      2  C   UNL     1      34.992 -17.626 -21.862  0.00  0.00    -0.040 C 
ATOM      3  C   UNL     1      34.734 -16.606 -20.946  0.00  0.00    +0.031 C 
ATOM      4  C   UNL     1      34.732 -17.428 -23.218  0.00  0.00    -0.006 C 
ATOM      5  C   UNL     1      34.217 -15.387 -21.387  0.00  0.00    +0.138 C 
ATOM      6  C   UNL     1      34.216 -16.210 -23.659  0.00  0.00    +0.003 C 
ATOM      7  C   UNL     1      33.959 -15.190 -22.744  0.00  0.00    +0.037 C 
BRANCH   2   8
ATOM      8  C   UNL     1      35.550 -18.941 -21.386  0.00  0.00    -0.050 C 
BRANCH   8   9
ATOM      9  N   UNL     1      34.731 -19.530 -20.327  0.00  0.00    +0.390 N 
ATOM     10  C   UNL     1      35.358 -20.756 -19.814  0.00  0.00    -0.077 C 
ATOM     11  C   UNL     1      33.370 -19.793 -20.815  0.00  0.00    -0.077 C 
ATOM     12  C   UNL     1      34.539 -21.358 -18.671  0.00  0.00    -0.023 C 
ATOM     13  C   UNL     1      32.486 -20.363 -19.705  0.00  0.00    -0.023 C 
ATOM     14  C   UNL     1      33.100 -21.620 -19.099  0.00  0.00    -0.004 C 
ATOM     15  H   UNL     1      34.665 -18.864 -19.556  0.00  0.00    -0.079 HD
ENDBRANCH   8   9
ENDBRANCH   2   8
ENDBRANCH   1   5
BRANCH   1  16
ATOM     16  C   UNL     1      33.489 -13.153 -21.020  0.00  0.00    +0.207 C 
BRANCH  16  17
ATOM     17  C   UNL     1      32.044 -12.957 -20.577  0.00  0.00    +0.069 C 
BRANCH  17  18
ATOM     18  C   UNL     1      31.296 -11.936 -21.425  0.00  0.00    +0.094 C 
BRANCH  18  19
ATOM     19  N   UNL     1      31.345 -10.626 -20.819  0.00  0.00    -0.294 N 
ATOM     20  N   UNL     1      31.315  -8.262 -20.865  0.00  0.00    -0.162 N 
ATOM     21  N   UNL     1      31.122  -9.250 -22.804  0.00  0.00    -0.319 NA
ATOM     22  N   UNL     1      31.215  -7.237 -21.723  0.00  0.00    -0.111 NA
ATOM     23  C   UNL     1      31.259  -9.456 -21.515  0.00  0.00    +0.268 C 
ATOM     24  C   UNL     1      31.100  -7.887 -22.882  0.00  0.00    +0.113 C 
ATOM     25  C   UNL     1      31.463  -8.010 -19.451  0.00  0.00    +0.145 C 
ATOM     26  H   UNL     1      31.446 -10.576 -19.842  0.00  0.00    +0.150 HD
BRANCH  24  27
ATOM     27  C   UNL     1      30.962  -7.180 -24.161  0.00  0.00    +0.252 C 
BRANCH  27  28
ATOM     28  O   UNL     1      31.496  -5.850 -24.121  0.00  0.00    -0.368 OA
ATOM     29  H   UNL     1      32.194  -5.761 -24.788  0.00  0.00    +0.212 HD
ENDBRANCH  27  28
ENDBRANCH  24  27
ENDBRANCH  18  19
ENDBRANCH  17  18
ENDBRANCH  16  17
ENDBRANCH   1  16
TORSDOF 9
ENDMDL
