MODEL 1
REMARK VINA RESULT:     -12.4      0.000      0.000
REMARK  Name = 16045418
REMARK  6 active torsions:
REMARK  status: ('A' for Active; 'I' for Inactive)
REMARK    1  A    between atoms: C_2  and  O_8
REMARK    2  A    between atoms: C_4  and  O_23
REMARK    3  A    between atoms: O_8  and  C_9
REMARK    4  A    between atoms: C_9  and  C_14
REMARK    5  A    between atoms: O_23  and  C_25
REMARK    6  A    between atoms: C_28  and  C_32
REMARK                            x       y       z     vdW  Elec       q    Type
REMARK                         _______ _______ _______ _____ _____    ______ ____
ROOT
ATOM      1 CL   UNL     1      33.440 -16.446 -25.045  0.00  0.00    -0.079 Cl
ATOM      2  C   UNL     1      34.917 -18.491 -21.309  0.00  0.00    +0.142 C 
ATOM      3  C   UNL     1      35.108 -17.120 -21.458  0.00  0.00    +0.075 C 
ATOM      4  C   UNL     1      34.653 -16.479 -22.611  0.00  0.00    +0.159 C 
ATOM      5  C   UNL     1      34.277 -19.226 -22.302  0.00  0.00    +0.038 C 
ATOM      6  C   UNL     1      34.011 -17.211 -23.610  0.00  0.00    +0.092 C 
ATOM      7  C   UNL     1      33.823 -18.585 -23.455  0.00  0.00    +0.018 C 
ENDROOT
BRANCH   2   8
ATOM      8  O   UNL     1      35.363 -19.119 -20.179  0.00  0.00    -0.469 OA
BRANCH   8   9
ATOM      9  C   UNL     1      35.610 -20.522 -20.284  0.00  0.00    +0.249 C 
BRANCH   9  14
ATOM     10  N   UNL     1      33.621 -21.722 -19.408  0.00  0.00    -0.227 N 
ATOM     11  N   UNL     1      33.100 -22.362 -18.339  0.00  0.00    -0.115 NA
ATOM     12  N   UNL     1      34.069 -22.789 -16.157  0.00  0.00    -0.335 NA
ATOM     13  N   UNL     1      35.362 -23.002 -14.165  0.00  0.00    -0.332 N 
ATOM     14  C   UNL     1      34.890 -21.245 -19.224  0.00  0.00    +0.097 C 
ATOM     15  C   UNL     1      35.214 -21.602 -17.944  0.00  0.00    +0.090 C 
ATOM     16  C   UNL     1      34.077 -22.294 -17.427  0.00  0.00    +0.105 C 
ATOM     17  C   UNL     1      36.413 -21.333 -17.301  0.00  0.00    +0.016 C 
ATOM     18  C   UNL     1      36.386 -21.849 -16.002  0.00  0.00    +0.049 C 
ATOM     19  C   UNL     1      35.249 -22.533 -15.506  0.00  0.00    +0.189 C 
ATOM     20  H   UNL     1      33.126 -21.608 -20.252  0.00  0.00    +0.175 HD
ATOM     21  H   UNL     1      34.614 -23.487 -13.749  0.00  0.00    +0.145 HD
ATOM     22  H   UNL     1      36.189 -22.841 -13.656  0.00  0.00    +0.145 HD
ENDBRANCH   9  14
ENDBRANCH   8   9
ENDBRANCH   2   8
BRANCH   4  23
ATOM     23  O   UNL     1      34.850 -15.136 -22.735  0.00  0.00    -0.452 OA
BRANCH  23  25
ATOM     24 CL   UNL     1      31.549 -14.297 -18.954  0.00  0.00    -0.082 Cl
ATOM     25  C   UNL     1      33.913 -14.295 -22.160  0.00  0.00    +0.147 C 
ATOM     26  C   UNL     1      33.626 -13.086 -22.771  0.00  0.00    +0.048 C 
ATOM     27  C   UNL     1      33.285 -14.682 -20.990  0.00  0.00    +0.049 C 
ATOM     28  C   UNL     1      32.682 -12.239 -22.192  0.00  0.00    +0.072 C 
ATOM     29  C   UNL     1      32.341 -13.835 -20.411  0.00  0.00    +0.061 C 
ATOM     30  C   UNL     1      32.039 -12.613 -21.012  0.00  0.00    +0.022 C 
BRANCH  28  32
ATOM     31  N   UNL     1      32.124  -9.966 -23.309  0.00  0.00    -0.191 NA
ATOM     32  C   UNL     1      32.374 -10.987 -22.807  0.00  0.00    +0.101 C 
ENDBRANCH  28  32
ENDBRANCH  23  25
ENDBRANCH   4  23
TORSDOF 6
ENDMDL
MODEL 2
REMARK VINA RESULT:     -12.1      2.835      5.068
REMARK  Name = 16045418
REMARK  6 active torsions:
REMARK  status: ('A' for Active; 'I' for Inactive)
REMARK    1  A    between atoms: C_2  and  O_8
REMARK    2  A    between atoms: C_4  and  O_23
REMARK    3  A    between atoms: O_8  and  C_9
REMARK    4  A    between atoms: C_9  and  C_14
REMARK    5  A    between atoms: O_23  and  C_25
REMARK    6  A    between atoms: C_28  and  C_32
REMARK                            x       y       z     vdW  Elec       q    Type
REMARK                         _______ _______ _______ _____ _____    ______ ____
ROOT
ATOM      1 CL   UNL     1      31.851 -11.839 -19.996  0.00  0.00    -0.079 Cl
ATOM      2  C   UNL     1      33.999 -14.826 -22.603  0.00  0.00    +0.142 C 
ATOM      3  C   UNL     1      33.217 -13.838 -23.197  0.00  0.00    +0.075 C 
ATOM      4  C   UNL     1      32.550 -12.909 -22.397  0.00  0.00    +0.159 C 
ATOM      5  C   UNL     1      34.117 -14.893 -21.218  0.00  0.00    +0.038 C 
ATOM      6  C   UNL     1      32.666 -12.973 -21.009  0.00  0.00    +0.092 C 
ATOM      7  C   UNL     1      33.449 -13.965 -20.420  0.00  0.00    +0.018 C 
ENDROOT
BRANCH   2   8
ATOM      8  O   UNL     1      34.653 -15.736 -23.387  0.00  0.00    -0.469 OA
BRANCH   8   9
ATOM      9  C   UNL     1      34.204 -17.090 -23.301  0.00  0.00    +0.249 C 
BRANCH   9  14
ATOM     10  N   UNL     1      36.346 -17.602 -22.154  0.00  0.00    -0.227 N 
ATOM     11  N   UNL     1      36.936 -18.359 -21.205  0.00  0.00    -0.115 NA
ATOM     12  N   UNL     1      35.984 -20.047 -19.747  0.00  0.00    -0.335 NA
ATOM     13  N   UNL     1      34.681 -21.617 -18.514  0.00  0.00    -0.332 N 
ATOM     14  C   UNL     1      35.006 -17.827 -22.312  0.00  0.00    +0.097 C 
ATOM     15  C   UNL     1      34.706 -18.800 -21.398  0.00  0.00    +0.090 C 
ATOM     16  C   UNL     1      35.932 -19.104 -20.730  0.00  0.00    +0.105 C 
ATOM     17  C   UNL     1      33.457 -19.361 -21.184  0.00  0.00    +0.016 C 
ATOM     18  C   UNL     1      33.531 -20.324 -20.173  0.00  0.00    +0.049 C 
ATOM     19  C   UNL     1      34.755 -20.613 -19.521  0.00  0.00    +0.189 C 
ATOM     20  H   UNL     1      36.841 -16.940 -22.690  0.00  0.00    +0.175 HD
ATOM     21  H   UNL     1      35.490 -21.875 -18.015  0.00  0.00    +0.145 HD
ATOM     22  H   UNL     1      33.821 -22.054 -18.316  0.00  0.00    +0.145 HD
ENDBRANCH   9  14
ENDBRANCH   8   9
ENDBRANCH   2   8
BRANCH   4  23
ATOM     23  O   UNL     1      31.792 -11.951 -23.001  0.00  0.00    -0.452 OA
BRANCH  23  25
ATOM     24 CL   UNL     1      35.581  -8.895 -24.483  0.00  0.00    -0.082 Cl
ATOM     25  C   UNL     1      32.309 -10.668 -23.063  0.00  0.00    +0.147 C 
ATOM     26  C   UNL     1      31.588  -9.622 -22.515  0.00  0.00    +0.048 C 
ATOM     27  C   UNL     1      33.536 -10.464 -23.670  0.00  0.00    +0.049 C 
ATOM     28  C   UNL     1      32.110  -8.330 -22.577  0.00  0.00    +0.072 C 
ATOM     29  C   UNL     1      34.058  -9.172 -23.731  0.00  0.00    +0.061 C 
ATOM     30  C   UNL     1      33.344  -8.105 -23.186  0.00  0.00    +0.022 C 
BRANCH  28  32
ATOM     31  N   UNL     1      30.781  -6.347 -21.564  0.00  0.00    -0.191 NA
ATOM     32  C   UNL     1      31.378  -7.237 -22.018  0.00  0.00    +0.101 C 
ENDBRANCH  28  32
ENDBRANCH  23  25
ENDBRANCH   4  23
TORSDOF 6
ENDMDL
MODEL 3
REMARK VINA RESULT:     -12.0      5.255     10.116
REMARK  Name = 16045418
REMARK  6 active torsions:
REMARK  status: ('A' for Active; 'I' for Inactive)
REMARK    1  A    between atoms: C_2  and  O_8
REMARK    2  A    between atoms: C_4  and  O_23
REMARK    3  A    between atoms: O_8  and  C_9
REMARK    4  A    between atoms: C_9  and  C_14
REMARK    5  A    between atoms: O_23  and  C_25
REMARK    6  A    between atoms: C_28  and  C_32
REMARK                            x       y       z     vdW  Elec       q    Type
REMARK                         _______ _______ _______ _____ _____    ______ ____
ROOT
ATOM      1 CL   UNL     1      30.463 -23.169 -12.362  0.00  0.00    -0.079 Cl
ATOM      2  C   UNL     1      31.447 -22.539 -16.716  0.00  0.00    +0.142 C 
ATOM      3  C   UNL     1      32.474 -22.811 -15.816  0.00  0.00    +0.075 C 
ATOM      4  C   UNL     1      32.178 -23.008 -14.467  0.00  0.00    +0.159 C 
ATOM      5  C   UNL     1      30.129 -22.461 -16.279  0.00  0.00    +0.038 C 
ATOM      6  C   UNL     1      30.858 -22.931 -14.024  0.00  0.00    +0.092 C 
ATOM      7  C   UNL     1      29.833 -22.658 -14.930  0.00  0.00    +0.018 C 
ENDROOT
BRANCH   2   8
ATOM      8  O   UNL     1      31.738 -22.346 -18.039  0.00  0.00    -0.469 OA
BRANCH   8   9
ATOM      9  C   UNL     1      33.115 -22.157 -18.368  0.00  0.00    +0.249 C 
BRANCH   9  14
ATOM     10  N   UNL     1      32.174 -20.605 -20.062  0.00  0.00    -0.227 N 
ATOM     11  N   UNL     1      32.468 -19.641 -20.960  0.00  0.00    -0.115 NA
ATOM     12  N   UNL     1      34.609 -18.665 -21.549  0.00  0.00    -0.335 NA
ATOM     13  N   UNL     1      36.872 -17.973 -21.836  0.00  0.00    -0.332 N 
ATOM     14  C   UNL     1      33.254 -21.102 -19.384  0.00  0.00    +0.097 C 
ATOM     15  C   UNL     1      34.324 -20.409 -19.879  0.00  0.00    +0.090 C 
ATOM     16  C   UNL     1      33.796 -19.511 -20.856  0.00  0.00    +0.105 C 
ATOM     17  C   UNL     1      35.646 -20.567 -19.493  0.00  0.00    +0.016 C 
ATOM     18  C   UNL     1      36.463 -19.690 -20.214  0.00  0.00    +0.049 C 
ATOM     19  C   UNL     1      35.922 -18.806 -21.179  0.00  0.00    +0.189 C 
ATOM     20  H   UNL     1      31.255 -20.924 -19.907  0.00  0.00    +0.175 HD
ATOM     21  H   UNL     1      36.574 -17.331 -22.521  0.00  0.00    +0.145 HD
ATOM     22  H   UNL     1      37.827 -18.039 -21.606  0.00  0.00    +0.145 HD
ENDBRANCH   9  14
ENDBRANCH   8   9
ENDBRANCH   2   8
BRANCH   4  23
ATOM     23  O   UNL     1      33.199 -23.274 -13.604  0.00  0.00    -0.452 OA
BRANCH  23  25
ATOM     24 CL   UNL     1      36.966 -20.958 -16.123  0.00  0.00    -0.082 Cl
ATOM     25  C   UNL     1      34.479 -23.345 -14.127  0.00  0.00    +0.147 C 
ATOM     26  C   UNL     1      35.202 -24.517 -13.985  0.00  0.00    +0.048 C 
ATOM     27  C   UNL     1      35.004 -22.244 -14.780  0.00  0.00    +0.049 C 
ATOM     28  C   UNL     1      36.490 -24.589 -14.513  0.00  0.00    +0.072 C 
ATOM     29  C   UNL     1      36.293 -22.316 -15.308  0.00  0.00    +0.061 C 
ATOM     30  C   UNL     1      37.036 -23.489 -15.174  0.00  0.00    +0.022 C 
BRANCH  28  32
ATOM     31  N   UNL     1      37.872 -26.770 -14.263  0.00  0.00    -0.191 NA
ATOM     32  C   UNL     1      37.252 -25.791 -14.374  0.00  0.00    +0.101 C 
ENDBRANCH  28  32
ENDBRANCH  23  25
ENDBRANCH   4  23
TORSDOF 6
ENDMDL
MODEL 4
REMARK VINA RESULT:     -12.0      5.485      8.242
REMARK  Name = 16045418
REMARK  6 active torsions:
REMARK  status: ('A' for Active; 'I' for Inactive)
REMARK    1  A    between atoms: C_2  and  O_8
REMARK    2  A    between atoms: C_4  and  O_23
REMARK    3  A    between atoms: O_8  and  C_9
REMARK    4  A    between atoms: C_9  and  C_14
REMARK    5  A    between atoms: O_23  and  C_25
REMARK    6  A    between atoms: C_28  and  C_32
REMARK                            x       y       z     vdW  Elec       q    Type
REMARK                         _______ _______ _______ _____ _____    ______ ____
ROOT
ATOM      1 CL   UNL     1      28.736 -22.072 -16.505  0.00  0.00    -0.079 Cl
ATOM      2  C   UNL     1      32.326 -23.365 -14.103  0.00  0.00    +0.142 C 
ATOM      3  C   UNL     1      32.457 -23.163 -15.475  0.00  0.00    +0.075 C 
ATOM      4  C   UNL     1      31.352 -22.763 -16.225  0.00  0.00    +0.159 C 
ATOM      5  C   UNL     1      31.099 -23.169 -13.477  0.00  0.00    +0.038 C 
ATOM      6  C   UNL     1      30.120 -22.566 -15.602  0.00  0.00    +0.092 C 
ATOM      7  C   UNL     1      29.993 -22.769 -14.228  0.00  0.00    +0.018 C 
ENDROOT
BRANCH   2   8
ATOM      8  O   UNL     1      33.410 -23.758 -13.368  0.00  0.00    -0.469 OA
BRANCH   8   9
ATOM      9  C   UNL     1      34.685 -23.292 -13.813  0.00  0.00    +0.249 C 
BRANCH   9  14
ATOM     10  N   UNL     1      35.036 -25.506 -14.883  0.00  0.00    -0.227 N 
ATOM     11  N   UNL     1      35.943 -26.466 -15.160  0.00  0.00    -0.115 NA
ATOM     12  N   UNL     1      38.307 -26.573 -14.628  0.00  0.00    -0.335 NA
ATOM     13  N   UNL     1      40.567 -26.299 -13.921  0.00  0.00    -0.332 N 
ATOM     14  C   UNL     1      35.534 -24.431 -14.198  0.00  0.00    +0.097 C 
ATOM     15  C   UNL     1      36.859 -24.717 -14.018  0.00  0.00    +0.090 C 
ATOM     16  C   UNL     1      37.075 -25.990 -14.630  0.00  0.00    +0.105 C 
ATOM     17  C   UNL     1      37.786 -23.915 -13.369  0.00  0.00    +0.016 C 
ATOM     18  C   UNL     1      39.042 -24.531 -13.379  0.00  0.00    +0.049 C 
ATOM     19  C   UNL     1      39.237 -25.793 -13.990  0.00  0.00    +0.189 C 
ATOM     20  H   UNL     1      34.091 -25.573 -15.153  0.00  0.00    +0.175 HD
ATOM     21  H   UNL     1      40.784 -27.171 -14.323  0.00  0.00    +0.145 HD
ATOM     22  H   UNL     1      41.270 -25.776 -13.472  0.00  0.00    +0.145 HD
ENDBRANCH   9  14
ENDBRANCH   8   9
ENDBRANCH   2   8
BRANCH   4  23
ATOM     23  O   UNL     1      31.504 -22.571 -17.566  0.00  0.00    -0.452 OA
BRANCH  23  25
ATOM     24 CL   UNL     1      36.507 -21.979 -16.849  0.00  0.00    -0.082 Cl
ATOM     25  C   UNL     1      32.695 -22.017 -18.003  0.00  0.00    +0.147 C 
ATOM     26  C   UNL     1      32.698 -21.238 -19.147  0.00  0.00    +0.048 C 
ATOM     27  C   UNL     1      33.854 -22.254 -17.286  0.00  0.00    +0.049 C 
ATOM     28  C   UNL     1      33.897 -20.679 -19.587  0.00  0.00    +0.072 C 
ATOM     29  C   UNL     1      35.054 -21.696 -17.725  0.00  0.00    +0.061 C 
ATOM     30  C   UNL     1      35.076 -20.909 -18.877  0.00  0.00    +0.022 C 
BRANCH  28  32
ATOM     31  N   UNL     1      33.938 -19.216 -21.728  0.00  0.00    -0.191 NA
ATOM     32  C   UNL     1      33.919 -19.873 -20.767  0.00  0.00    +0.101 C 
ENDBRANCH  28  32
ENDBRANCH  23  25
ENDBRANCH   4  23
TORSDOF 6
ENDMDL
MODEL 5
REMARK VINA RESULT:     -11.8      6.048      8.633
REMARK  Name = 16045418
REMARK  6 active torsions:
REMARK  status: ('A' for Active; 'I' for Inactive)
REMARK    1  A    between atoms: C_2  and  O_8
REMARK    2  A    between atoms: C_4  and  O_23
REMARK    3  A    between atoms: O_8  and  C_9
REMARK    4  A    between atoms: C_9  and  C_14
REMARK    5  A    between atoms: O_23  and  C_25
REMARK    6  A    between atoms: C_28  and  C_32
REMARK                            x       y       z     vdW  Elec       q    Type
REMARK                         _______ _______ _______ _____ _____    ______ ____
ROOT
ATOM      1 CL   UNL     1      28.758 -22.043 -16.488  0.00  0.00    -0.079 Cl
ATOM      2  C   UNL     1      32.317 -23.409 -14.081  0.00  0.00    +0.142 C 
ATOM      3  C   UNL     1      32.455 -23.210 -15.452  0.00  0.00    +0.075 C 
ATOM      4  C   UNL     1      31.359 -22.787 -16.204  0.00  0.00    +0.159 C 
ATOM      5  C   UNL     1      31.093 -23.189 -13.456  0.00  0.00    +0.038 C 
ATOM      6  C   UNL     1      30.130 -22.565 -15.583  0.00  0.00    +0.092 C 
ATOM      7  C   UNL     1      29.998 -22.767 -14.209  0.00  0.00    +0.018 C 
ENDROOT
BRANCH   2   8
ATOM      8  O   UNL     1      33.392 -23.825 -13.344  0.00  0.00    -0.469 OA
BRANCH   8   9
ATOM      9  C   UNL     1      34.672 -23.344 -13.757  0.00  0.00    +0.249 C 
BRANCH   9  14
ATOM     10  N   UNL     1      35.045 -25.544 -14.846  0.00  0.00    -0.227 N 
ATOM     11  N   UNL     1      35.962 -26.492 -15.132  0.00  0.00    -0.115 NA
ATOM     12  N   UNL     1      38.329 -26.577 -14.608  0.00  0.00    -0.335 NA
ATOM     13  N   UNL     1      40.588 -26.283 -13.905  0.00  0.00    -0.332 N 
ATOM     14  C   UNL     1      35.533 -24.470 -14.153  0.00  0.00    +0.097 C 
ATOM     15  C   UNL     1      36.862 -24.742 -13.979  0.00  0.00    +0.090 C 
ATOM     16  C   UNL     1      37.090 -26.007 -14.601  0.00  0.00    +0.105 C 
ATOM     17  C   UNL     1      37.781 -23.935 -13.325  0.00  0.00    +0.016 C 
ATOM     18  C   UNL     1      39.044 -24.536 -13.344  0.00  0.00    +0.049 C 
ATOM     19  C   UNL     1      39.252 -25.792 -13.966  0.00  0.00    +0.189 C 
ATOM     20  H   UNL     1      34.100 -25.620 -15.114  0.00  0.00    +0.175 HD
ATOM     21  H   UNL     1      40.813 -27.149 -14.315  0.00  0.00    +0.145 HD
ATOM     22  H   UNL     1      41.286 -25.755 -13.453  0.00  0.00    +0.145 HD
ENDBRANCH   9  14
ENDBRANCH   8   9
ENDBRANCH   2   8
BRANCH   4  23
ATOM     23  O   UNL     1      31.518 -22.598 -17.545  0.00  0.00    -0.452 OA
BRANCH  23  25
ATOM     24 CL   UNL     1      33.938 -19.780 -21.023  0.00  0.00    -0.082 Cl
ATOM     25  C   UNL     1      32.704 -22.030 -17.976  0.00  0.00    +0.147 C 
ATOM     26  C   UNL     1      33.855 -22.223 -17.232  0.00  0.00    +0.048 C 
ATOM     27  C   UNL     1      32.711 -21.284 -19.142  0.00  0.00    +0.049 C 
ATOM     28  C   UNL     1      35.050 -21.652 -17.667  0.00  0.00    +0.072 C 
ATOM     29  C   UNL     1      33.907 -20.712 -19.577  0.00  0.00    +0.061 C 
ATOM     30  C   UNL     1      35.076 -20.896 -18.839  0.00  0.00    +0.022 C 
BRANCH  28  32
ATOM     31  N   UNL     1      37.224 -21.992 -16.293  0.00  0.00    -0.191 NA
ATOM     32  C   UNL     1      36.248 -21.839 -16.911  0.00  0.00    +0.101 C 
ENDBRANCH  28  32
ENDBRANCH  23  25
ENDBRANCH   4  23
TORSDOF 6
ENDMDL
MODEL 6
REMARK VINA RESULT:     -11.8      2.416      3.173
REMARK  Name = 16045418
REMARK  6 active torsions:
REMARK  status: ('A' for Active; 'I' for Inactive)
REMARK    1  A    between atoms: C_2  and  O_8
REMARK    2  A    between atoms: C_4  and  O_23
REMARK    3  A    between atoms: O_8  and  C_9
REMARK    4  A    between atoms: C_9  and  C_14
REMARK    5  A    between atoms: O_23  and  C_25
REMARK    6  A    between atoms: C_28  and  C_32
REMARK                            x       y       z     vdW  Elec       q    Type
REMARK                         _______ _______ _______ _____ _____    ______ ____
ROOT
ATOM      1 CL   UNL     1      37.381 -17.970 -22.100  0.00  0.00    -0.079 Cl
ATOM      2  C   UNL     1      33.971 -20.156 -20.120  0.00  0.00    +0.142 C 
ATOM      3  C   UNL     1      33.751 -19.495 -21.325  0.00  0.00    +0.075 C 
ATOM      4  C   UNL     1      34.801 -18.817 -21.945  0.00  0.00    +0.159 C 
ATOM      5  C   UNL     1      35.231 -20.143 -19.528  0.00  0.00    +0.038 C 
ATOM      6  C   UNL     1      36.066 -18.801 -21.357  0.00  0.00    +0.092 C 
ATOM      7  C   UNL     1      36.280 -19.464 -20.148  0.00  0.00    +0.018 C 
ENDROOT
BRANCH   2   8
ATOM      8  O   UNL     1      32.942 -20.820 -19.512  0.00  0.00    -0.469 OA
BRANCH   8   9
ATOM      9  C   UNL     1      33.221 -22.144 -19.052  0.00  0.00    +0.249 C 
BRANCH   9  14
ATOM     10  N   UNL     1      31.250 -22.105 -17.541  0.00  0.00    -0.227 N 
ATOM     11  N   UNL     1      30.811 -22.370 -16.292  0.00  0.00    -0.115 NA
ATOM     12  N   UNL     1      32.012 -23.243 -14.374  0.00  0.00    -0.335 NA
ATOM     13  N   UNL     1      33.530 -24.105 -12.750  0.00  0.00    -0.332 N 
ATOM     14  C   UNL     1      32.576 -22.373 -17.749  0.00  0.00    +0.097 C 
ATOM     15  C   UNL     1      33.028 -22.846 -16.548  0.00  0.00    +0.090 C 
ATOM     16  C   UNL     1      31.903 -22.829 -15.668  0.00  0.00    +0.105 C 
ATOM     17  C   UNL     1      34.323 -23.252 -16.266  0.00  0.00    +0.016 C 
ATOM     18  C   UNL     1      34.415 -23.673 -14.936  0.00  0.00    +0.049 C 
ATOM     19  C   UNL     1      33.288 -23.649 -14.078  0.00  0.00    +0.189 C 
ATOM     20  H   UNL     1      30.662 -21.748 -18.246  0.00  0.00    +0.175 HD
ATOM     21  H   UNL     1      32.796 -24.119 -12.094  0.00  0.00    +0.145 HD
ATOM     22  H   UNL     1      34.430 -24.406 -12.489  0.00  0.00    +0.145 HD
ENDBRANCH   9  14
ENDBRANCH   8   9
ENDBRANCH   2   8
BRANCH   4  23
ATOM     23  O   UNL     1      34.563 -18.179 -23.126  0.00  0.00    -0.452 OA
BRANCH  23  25
ATOM     24 CL   UNL     1      34.022 -13.976 -20.308  0.00  0.00    -0.082 Cl
ATOM     25  C   UNL     1      34.237 -16.834 -23.074  0.00  0.00    +0.147 C 
ATOM     26  C   UNL     1      33.865 -16.185 -24.238  0.00  0.00    +0.048 C 
ATOM     27  C   UNL     1      34.290 -16.173 -21.860  0.00  0.00    +0.049 C 
ATOM     28  C   UNL     1      33.536 -14.831 -24.186  0.00  0.00    +0.072 C 
ATOM     29  C   UNL     1      33.961 -14.819 -21.807  0.00  0.00    +0.061 C 
ATOM     30  C   UNL     1      33.585 -14.147 -22.971  0.00  0.00    +0.022 C 
BRANCH  28  32
ATOM     31  N   UNL     1      32.836 -13.582 -26.348  0.00  0.00    -0.191 NA
ATOM     32  C   UNL     1      33.151 -14.143 -25.378  0.00  0.00    +0.101 C 
ENDBRANCH  28  32
ENDBRANCH  23  25
ENDBRANCH   4  23
TORSDOF 6
ENDMDL
MODEL 7
REMARK VINA RESULT:     -11.7      4.069      9.363
REMARK  Name = 16045418
REMARK  6 active torsions:
REMARK  status: ('A' for Active; 'I' for Inactive)
REMARK    1  A    between atoms: C_2  and  O_8
REMARK    2  A    between atoms: C_4  and  O_23
REMARK    3  A    between atoms: O_8  and  C_9
REMARK    4  A    between atoms: C_9  and  C_14
REMARK    5  A    between atoms: O_23  and  C_25
REMARK    6  A    between atoms: C_28  and  C_32
REMARK                            x       y       z     vdW  Elec       q    Type
REMARK                         _______ _______ _______ _____ _____    ______ ____
ROOT
ATOM      1 CL   UNL     1      36.355 -22.407 -16.203  0.00  0.00    -0.079 Cl
ATOM      2  C   UNL     1      34.722 -20.405 -19.898  0.00  0.00    +0.142 C 
ATOM      3  C   UNL     1      34.062 -21.513 -19.373  0.00  0.00    +0.075 C 
ATOM      4  C   UNL     1      34.561 -22.138 -18.230  0.00  0.00    +0.159 C 
ATOM      5  C   UNL     1      35.875 -19.917 -19.290  0.00  0.00    +0.038 C 
ATOM      6  C   UNL     1      35.716 -21.653 -17.617  0.00  0.00    +0.092 C 
ATOM      7  C   UNL     1      36.373 -20.543 -18.147  0.00  0.00    +0.018 C 
ENDROOT
BRANCH   2   8
ATOM      8  O   UNL     1      34.234 -19.792 -21.019  0.00  0.00    -0.469 OA
BRANCH   8   9
ATOM      9  C   UNL     1      34.983 -18.682 -21.517  0.00  0.00    +0.249 C 
BRANCH   9  14
ATOM     10  N   UNL     1      33.873 -18.954 -23.721  0.00  0.00    -0.227 N 
ATOM     11  N   UNL     1      33.314 -18.303 -24.763  0.00  0.00    -0.115 NA
ATOM     12  N   UNL     1      33.019 -15.925 -25.134  0.00  0.00    -0.335 NA
ATOM     13  N   UNL     1      32.919 -13.543 -25.120  0.00  0.00    -0.332 N 
ATOM     14  C   UNL     1      34.343 -18.141 -22.726  0.00  0.00    +0.097 C 
ATOM     15  C   UNL     1      34.067 -16.872 -23.155  0.00  0.00    +0.090 C 
ATOM     16  C   UNL     1      33.428 -17.014 -24.424  0.00  0.00    +0.105 C 
ATOM     17  C   UNL     1      34.360 -15.700 -22.475  0.00  0.00    +0.016 C 
ATOM     18  C   UNL     1      33.932 -14.595 -23.218  0.00  0.00    +0.049 C 
ATOM     19  C   UNL     1      33.300 -14.755 -24.476  0.00  0.00    +0.189 C 
ATOM     20  H   UNL     1      33.938 -19.937 -23.681  0.00  0.00    +0.175 HD
ATOM     21  H   UNL     1      32.474 -13.570 -25.997  0.00  0.00    +0.145 HD
ATOM     22  H   UNL     1      33.101 -12.677 -24.687  0.00  0.00    +0.145 HD
ENDBRANCH   9  14
ENDBRANCH   8   9
ENDBRANCH   2   8
BRANCH   4  23
ATOM     23  O   UNL     1      33.898 -23.221 -17.733  0.00  0.00    -0.452 OA
BRANCH  23  25
ATOM     24 CL   UNL     1      32.969 -23.086 -12.732  0.00  0.00    -0.082 Cl
ATOM     25  C   UNL     1      32.986 -23.003 -16.714  0.00  0.00    +0.147 C 
ATOM     26  C   UNL     1      31.686 -22.654 -17.035  0.00  0.00    +0.048 C 
ATOM     27  C   UNL     1      33.397 -23.140 -15.400  0.00  0.00    +0.049 C 
ATOM     28  C   UNL     1      30.768 -22.435 -16.008  0.00  0.00    +0.072 C 
ATOM     29  C   UNL     1      32.479 -22.922 -14.373  0.00  0.00    +0.061 C 
ATOM     30  C   UNL     1      31.164 -22.569 -14.678  0.00  0.00    +0.022 C 
BRANCH  28  32
ATOM     31  N   UNL     1      28.324 -21.779 -16.576  0.00  0.00    -0.191 NA
ATOM     32  C   UNL     1      29.421 -22.073 -16.320  0.00  0.00    +0.101 C 
ENDBRANCH  28  32
ENDBRANCH  23  25
ENDBRANCH   4  23
TORSDOF 6
ENDMDL
MODEL 8
REMARK VINA RESULT:     -11.7      5.074     10.342
REMARK  Name = 16045418
REMARK  6 active torsions:
REMARK  status: ('A' for Active; 'I' for Inactive)
REMARK    1  A    between atoms: C_2  and  O_8
REMARK    2  A    between atoms: C_4  and  O_23
REMARK    3  A    between atoms: O_8  and  C_9
REMARK    4  A    between atoms: C_9  and  C_14
REMARK    5  A    between atoms: O_23  and  C_25
REMARK    6  A    between atoms: C_28  and  C_32
REMARK                            x       y       z     vdW  Elec       q    Type
REMARK                         _______ _______ _______ _____ _____    ______ ____
ROOT
ATOM      1 CL   UNL     1      29.903 -24.442 -13.231  0.00  0.00    -0.079 Cl
ATOM      2  C   UNL     1      31.494 -22.279 -16.853  0.00  0.00    +0.142 C 
ATOM      3  C   UNL     1      32.350 -23.086 -16.108  0.00  0.00    +0.075 C 
ATOM      4  C   UNL     1      31.865 -23.760 -14.986  0.00  0.00    +0.159 C 
ATOM      5  C   UNL     1      30.159 -22.139 -16.485  0.00  0.00    +0.038 C 
ATOM      6  C   UNL     1      30.528 -23.622 -14.613  0.00  0.00    +0.092 C 
ATOM      7  C   UNL     1      29.676 -22.811 -15.362  0.00  0.00    +0.018 C 
ENDROOT
BRANCH   2   8
ATOM      8  O   UNL     1      31.969 -21.619 -17.952  0.00  0.00    -0.469 OA
BRANCH   8   9
ATOM      9  C   UNL     1      32.934 -22.313 -18.745  0.00  0.00    +0.249 C 
BRANCH   9  14
ATOM     10  N   UNL     1      35.248 -21.565 -18.241  0.00  0.00    -0.227 N 
ATOM     11  N   UNL     1      36.230 -20.705 -18.587  0.00  0.00    -0.115 NA
ATOM     12  N   UNL     1      36.271 -19.005 -20.316  0.00  0.00    -0.335 NA
ATOM     13  N   UNL     1      35.915 -17.464 -22.100  0.00  0.00    -0.332 N 
ATOM     14  C   UNL     1      34.105 -21.454 -18.985  0.00  0.00    +0.097 C 
ATOM     15  C   UNL     1      34.366 -20.451 -19.877  0.00  0.00    +0.090 C 
ATOM     16  C   UNL     1      35.695 -20.011 -19.598  0.00  0.00    +0.105 C 
ATOM     17  C   UNL     1      33.496 -19.974 -20.846  0.00  0.00    +0.016 C 
ATOM     18  C   UNL     1      34.105 -18.946 -21.572  0.00  0.00    +0.049 C 
ATOM     19  C   UNL     1      35.425 -18.522 -21.281  0.00  0.00    +0.189 C 
ATOM     20  H   UNL     1      35.347 -22.220 -17.512  0.00  0.00    +0.175 HD
ATOM     21  H   UNL     1      36.824 -17.114 -21.960  0.00  0.00    +0.145 HD
ATOM     22  H   UNL     1      35.344 -17.083 -22.806  0.00  0.00    +0.145 HD
ENDBRANCH   9  14
ENDBRANCH   8   9
ENDBRANCH   2   8
BRANCH   4  23
ATOM     23  O   UNL     1      32.721 -24.545 -14.274  0.00  0.00    -0.452 OA
BRANCH  23  25
ATOM     24 CL   UNL     1      36.948 -21.913 -15.321  0.00  0.00    -0.082 Cl
ATOM     25  C   UNL     1      33.888 -23.965 -13.807  0.00  0.00    +0.147 C 
ATOM     26  C   UNL     1      34.192 -24.051 -12.460  0.00  0.00    +0.048 C 
ATOM     27  C   UNL     1      34.722 -23.313 -14.699  0.00  0.00    +0.049 C 
ATOM     28  C   UNL     1      35.368 -23.466 -11.990  0.00  0.00    +0.072 C 
ATOM     29  C   UNL     1      35.897 -22.729 -14.229  0.00  0.00    +0.061 C 
ATOM     30  C   UNL     1      36.221 -22.805 -12.874  0.00  0.00    +0.022 C 
BRANCH  28  32
ATOM     31  N   UNL     1      35.969 -23.608  -9.471  0.00  0.00    -0.191 NA
ATOM     32  C   UNL     1      35.699 -23.544 -10.602  0.00  0.00    +0.101 C 
ENDBRANCH  28  32
ENDBRANCH  23  25
ENDBRANCH   4  23
TORSDOF 6
ENDMDL
MODEL 9
REMARK VINA RESULT:     -11.7      4.559     10.634
REMARK  Name = 16045418
REMARK  6 active torsions:
REMARK  status: ('A' for Active; 'I' for Inactive)
REMARK    1  A    between atoms: C_2  and  O_8
REMARK    2  A    between atoms: C_4  and  O_23
REMARK    3  A    between atoms: O_8  and  C_9
REMARK    4  A    between atoms: C_9  and  C_14
REMARK    5  A    between atoms: O_23  and  C_25
REMARK    6  A    between atoms: C_28  and  C_32
REMARK                            x       y       z     vdW  Elec       q    Type
REMARK                         _______ _______ _______ _____ _____    ______ ____
ROOT
ATOM      1 CL   UNL     1      32.940 -23.114 -14.548  0.00  0.00    -0.079 Cl
ATOM      2  C   UNL     1      34.703 -21.832 -18.495  0.00  0.00    +0.142 C 
ATOM      3  C   UNL     1      35.438 -21.650 -17.327  0.00  0.00    +0.075 C 
ATOM      4  C   UNL     1      34.901 -22.045 -16.101  0.00  0.00    +0.159 C 
ATOM      5  C   UNL     1      33.435 -22.403 -18.448  0.00  0.00    +0.038 C 
ATOM      6  C   UNL     1      33.630 -22.618 -16.049  0.00  0.00    +0.092 C 
ATOM      7  C   UNL     1      32.897 -22.797 -17.222  0.00  0.00    +0.018 C 
ENDROOT
BRANCH   2   8
ATOM      8  O   UNL     1      35.230 -21.445 -19.696  0.00  0.00    -0.469 OA
BRANCH   8   9
ATOM      9  C   UNL     1      34.316 -20.889 -20.644  0.00  0.00    +0.249 C 
BRANCH   9  14
ATOM     10  N   UNL     1      35.586 -18.797 -20.221  0.00  0.00    -0.227 N 
ATOM     11  N   UNL     1      35.864 -17.561 -20.688  0.00  0.00    -0.115 NA
ATOM     12  N   UNL     1      35.073 -16.440 -22.688  0.00  0.00    -0.335 NA
ATOM     13  N   UNL     1      34.079 -15.698 -24.724  0.00  0.00    -0.332 N 
ATOM     14  C   UNL     1      34.727 -19.522 -21.002  0.00  0.00    +0.097 C 
ATOM     15  C   UNL     1      34.428 -18.696 -22.050  0.00  0.00    +0.090 C 
ATOM     16  C   UNL     1      35.152 -17.487 -21.819  0.00  0.00    +0.105 C 
ATOM     17  C   UNL     1      33.585 -18.995 -23.109  0.00  0.00    +0.016 C 
ATOM     18  C   UNL     1      33.519 -17.911 -23.990  0.00  0.00    +0.049 C 
ATOM     19  C   UNL     1      34.245 -16.719 -23.744  0.00  0.00    +0.189 C 
ATOM     20  H   UNL     1      35.972 -19.149 -19.386  0.00  0.00    +0.175 HD
ATOM     21  H   UNL     1      34.551 -14.840 -24.625  0.00  0.00    +0.145 HD
ATOM     22  H   UNL     1      33.493 -15.851 -25.500  0.00  0.00    +0.145 HD
ENDBRANCH   9  14
ENDBRANCH   8   9
ENDBRANCH   2   8
BRANCH   4  23
ATOM     23  O   UNL     1      35.640 -21.859 -14.971  0.00  0.00    -0.452 OA
BRANCH  23  25
ATOM     24 CL   UNL     1      37.040 -26.745 -14.731  0.00  0.00    -0.082 Cl
ATOM     25  C   UNL     1      35.900 -22.968 -14.185  0.00  0.00    +0.147 C 
ATOM     26  C   UNL     1      35.761 -22.869 -12.811  0.00  0.00    +0.048 C 
ATOM     27  C   UNL     1      36.291 -24.149 -14.790  0.00  0.00    +0.049 C 
ATOM     28  C   UNL     1      36.022 -23.986 -12.019  0.00  0.00    +0.072 C 
ATOM     29  C   UNL     1      36.552 -25.266 -13.998  0.00  0.00    +0.061 C 
ATOM     30  C   UNL     1      36.418 -25.185 -12.612  0.00  0.00    +0.022 C 
BRANCH  28  32
ATOM     31  N   UNL     1      35.773 -23.834  -9.442  0.00  0.00    -0.191 NA
ATOM     32  C   UNL     1      35.885 -23.902 -10.599  0.00  0.00    +0.101 C 
ENDBRANCH  28  32
ENDBRANCH  23  25
ENDBRANCH   4  23
TORSDOF 6
ENDMDL
