MODEL 1
REMARK VINA RESULT:     -13.8      0.000      0.000
REMARK  Name = 46911863
REMARK  3 active torsions:
REMARK  status: ('A' for Active; 'I' for Inactive)
REMARK    1  A    between atoms: C_5  and  C_18
REMARK    2  A    between atoms: C_7  and  C_12
REMARK    3  A    between atoms: C_18  and  C_20
REMARK                            x       y       z     vdW  Elec       q    Type
REMARK                         _______ _______ _______ _____ _____    ______ ____
ROOT
ATOM      1  N   UNL     1      33.984 -21.557 -18.268  0.00  0.00    -0.190 N 
ATOM      2  N   UNL     1      35.078 -21.900 -17.543  0.00  0.00    -0.162 NA
ATOM      3  N   UNL     1      32.716 -20.686 -19.829  0.00  0.00    -0.126 NA
ATOM      4  N   UNL     1      31.902 -21.352 -18.935  0.00  0.00    -0.127 NA
ATOM      5  C   UNL     1      33.956 -20.820 -19.414  0.00  0.00    +0.228 A 
ATOM      6  C   UNL     1      32.671 -21.872 -18.002  0.00  0.00    +0.187 A 
ATOM      7  C   UNL     1      34.807 -22.606 -16.482  0.00  0.00    +0.104 C 
ATOM      8  C   UNL     1      32.410 -22.650 -16.857  0.00  0.00    +0.042 C 
ATOM      9  C   UNL     1      33.429 -23.038 -16.080  0.00  0.00    +0.024 C 
ENDROOT
BRANCH   7  12
ATOM     10  N   UNL     1      37.129 -24.134 -14.146  0.00  0.00    -0.208 N 
ATOM     11  N   UNL     1      37.949 -23.150 -14.554  0.00  0.00    -0.176 NA
ATOM     12  C   UNL     1      35.923 -23.040 -15.601  0.00  0.00    +0.056 C 
ATOM     13  C   UNL     1      35.903 -24.113 -14.743  0.00  0.00    +0.087 C 
ATOM     14  C   UNL     1      37.207 -22.485 -15.442  0.00  0.00    +0.121 C 
ATOM     15  C   UNL     1      37.585 -25.086 -13.161  0.00  0.00    +0.140 C 
ENDBRANCH   7  12
BRANCH   5  18
ATOM     16  F   UNL     1      35.991 -21.294 -20.551  0.00  0.00    -0.191 F 
ATOM     17  F   UNL     1      36.031 -19.698 -19.110  0.00  0.00    -0.191 F 
ATOM     18  C   UNL     1      35.213 -20.254 -20.076  0.00  0.00    +0.335 C 
BRANCH  18  20
ATOM     19  N   UNL     1      33.964 -16.566 -24.182  0.00  0.00    -0.244 NA
ATOM     20  C   UNL     1      34.885 -19.275 -21.151  0.00  0.00    +0.045 C 
ATOM     21  C   UNL     1      34.837 -17.914 -20.866  0.00  0.00    +0.003 C 
ATOM     22  C   UNL     1      34.528 -16.987 -21.877  0.00  0.00    +0.018 C 
ATOM     23  C   UNL     1      34.625 -19.716 -22.442  0.00  0.00    +0.003 C 
ATOM     24  C   UNL     1      34.264 -17.427 -23.190  0.00  0.00    +0.081 C 
ATOM     25  C   UNL     1      34.317 -18.794 -23.446  0.00  0.00    +0.019 C 
ATOM     26  C   UNL     1      34.474 -15.610 -21.618  0.00  0.00    +0.003 C 
ATOM     27  C   UNL     1      34.167 -14.721 -22.638  0.00  0.00    +0.021 C 
ATOM     28  C   UNL     1      33.922 -15.246 -23.891  0.00  0.00    +0.099 C 
ENDBRANCH  18  20
ENDBRANCH   5  18
TORSDOF 3
ENDMDL
MODEL 2
REMARK VINA RESULT:     -13.5      1.294      1.669
REMARK  Name = 46911863
REMARK  3 active torsions:
REMARK  status: ('A' for Active; 'I' for Inactive)
REMARK    1  A    between atoms: C_5  and  C_18
REMARK    2  A    between atoms: C_7  and  C_12
REMARK    3  A    between atoms: C_18  and  C_20
REMARK                            x       y       z     vdW  Elec       q    Type
REMARK                         _______ _______ _______ _____ _____    ______ ____
ROOT
ATOM      1  N   UNL     1      33.992 -20.625 -19.345  0.00  0.00    -0.190 N 
ATOM      2  N   UNL     1      35.061 -20.906 -18.559  0.00  0.00    -0.162 NA
ATOM      3  N   UNL     1      32.753 -19.776 -20.941  0.00  0.00    -0.126 NA
ATOM      4  N   UNL     1      31.954 -20.586 -20.161  0.00  0.00    -0.127 NA
ATOM      5  C   UNL     1      33.968 -19.812 -20.439  0.00  0.00    +0.228 A 
ATOM      6  C   UNL     1      32.705 -21.092 -19.205  0.00  0.00    +0.187 A 
ATOM      7  C   UNL     1      34.792 -21.712 -17.571  0.00  0.00    +0.104 C 
ATOM      8  C   UNL     1      32.448 -21.974 -18.138  0.00  0.00    +0.042 C 
ATOM      9  C   UNL     1      33.443 -22.311 -17.310  0.00  0.00    +0.024 C 
ENDROOT
BRANCH   7  12
ATOM     10  N   UNL     1      37.013 -23.032 -15.019  0.00  0.00    -0.208 N 
ATOM     11  N   UNL     1      37.911 -22.212 -15.594  0.00  0.00    -0.176 NA
ATOM     12  C   UNL     1      35.882 -22.093 -16.635  0.00  0.00    +0.056 C 
ATOM     13  C   UNL     1      35.782 -22.997 -15.605  0.00  0.00    +0.087 C 
ATOM     14  C   UNL     1      37.214 -21.641 -16.579  0.00  0.00    +0.121 C 
ATOM     15  C   UNL     1      37.401 -23.841 -13.889  0.00  0.00    +0.140 C 
ENDBRANCH   7  12
BRANCH   5  18
ATOM     16  F   UNL     1      35.910 -19.902 -21.810  0.00  0.00    -0.191 F 
ATOM     17  F   UNL     1      36.097 -18.887 -19.924  0.00  0.00    -0.191 F 
ATOM     18  C   UNL     1      35.201 -19.073 -20.960  0.00  0.00    +0.335 C 
BRANCH  18  20
ATOM     19  N   UNL     1      33.844 -14.199 -23.492  0.00  0.00    -0.244 NA
ATOM     20  C   UNL     1      34.842 -17.785 -21.618  0.00  0.00    +0.045 C 
ATOM     21  C   UNL     1      34.559 -16.661 -20.847  0.00  0.00    +0.003 C 
ATOM     22  C   UNL     1      34.221 -15.443 -21.464  0.00  0.00    +0.018 C 
ATOM     23  C   UNL     1      34.789 -17.698 -23.003  0.00  0.00    +0.003 C 
ATOM     24  C   UNL     1      34.165 -15.349 -22.870  0.00  0.00    +0.081 C 
ATOM     25  C   UNL     1      34.452 -16.489 -23.615  0.00  0.00    +0.019 C 
ATOM     26  C   UNL     1      33.931 -14.296 -20.713  0.00  0.00    +0.003 C 
ATOM     27  C   UNL     1      33.601 -13.110 -21.351  0.00  0.00    +0.021 C 
ATOM     28  C   UNL     1      33.572 -13.114 -22.731  0.00  0.00    +0.099 C 
ENDBRANCH  18  20
ENDBRANCH   5  18
TORSDOF 3
ENDMDL
MODEL 3
REMARK VINA RESULT:     -12.3      2.160      3.054
REMARK  Name = 46911863
REMARK  3 active torsions:
REMARK  status: ('A' for Active; 'I' for Inactive)
REMARK    1  A    between atoms: C_5  and  C_18
REMARK    2  A    between atoms: C_7  and  C_12
REMARK    3  A    between atoms: C_18  and  C_20
REMARK                            x       y       z     vdW  Elec       q    Type
REMARK                         _______ _______ _______ _____ _____    ______ ____
ROOT
ATOM      1  N   UNL     1      32.567 -22.722 -16.191  0.00  0.00    -0.190 N 
ATOM      2  N   UNL     1      33.614 -23.204 -15.477  0.00  0.00    -0.162 NA
ATOM      3  N   UNL     1      31.375 -21.922 -17.848  0.00  0.00    -0.126 NA
ATOM      4  N   UNL     1      30.557 -22.028 -16.741  0.00  0.00    -0.127 NA
ATOM      5  C   UNL     1      32.571 -22.342 -17.501  0.00  0.00    +0.228 A 
ATOM      6  C   UNL     1      31.280 -22.509 -15.751  0.00  0.00    +0.187 A 
ATOM      7  C   UNL     1      33.324 -23.480 -14.237  0.00  0.00    +0.104 C 
ATOM      8  C   UNL     1      30.992 -22.832 -14.411  0.00  0.00    +0.042 C 
ATOM      9  C   UNL     1      31.964 -23.315 -13.628  0.00  0.00    +0.024 C 
ENDROOT
BRANCH   7  12
ATOM     10  N   UNL     1      36.236 -24.920 -12.615  0.00  0.00    -0.208 N 
ATOM     11  N   UNL     1      35.574 -24.604 -11.488  0.00  0.00    -0.176 NA
ATOM     12  C   UNL     1      34.391 -24.010 -13.348  0.00  0.00    +0.056 C 
ATOM     13  C   UNL     1      35.569 -24.586 -13.757  0.00  0.00    +0.087 C 
ATOM     14  C   UNL     1      34.448 -24.049 -11.942  0.00  0.00    +0.121 C 
ATOM     15  C   UNL     1      37.530 -25.554 -12.533  0.00  0.00    +0.140 C 
ENDBRANCH   7  12
BRANCH   5  18
ATOM     16  F   UNL     1      33.830 -23.618 -19.064  0.00  0.00    -0.191 F 
ATOM     17  F   UNL     1      34.942 -22.512 -17.594  0.00  0.00    -0.191 F 
ATOM     18  C   UNL     1      33.814 -22.413 -18.388  0.00  0.00    +0.335 C 
BRANCH  18  20
ATOM     19  N   UNL     1      34.094 -18.017 -21.940  0.00  0.00    -0.244 NA
ATOM     20  C   UNL     1      33.898 -21.254 -19.323  0.00  0.00    +0.045 C 
ATOM     21  C   UNL     1      35.134 -20.699 -19.639  0.00  0.00    +0.003 C 
ATOM     22  C   UNL     1      35.218 -19.607 -20.521  0.00  0.00    +0.018 C 
ATOM     23  C   UNL     1      32.743 -20.723 -19.882  0.00  0.00    +0.003 C 
ATOM     24  C   UNL     1      34.049 -19.063 -21.093  0.00  0.00    +0.081 C 
ATOM     25  C   UNL     1      32.827 -19.638 -20.758  0.00  0.00    +0.019 C 
ATOM     26  C   UNL     1      36.449 -19.029 -20.857  0.00  0.00    +0.003 C 
ATOM     27  C   UNL     1      36.498 -17.952 -21.731  0.00  0.00    +0.021 C 
ATOM     28  C   UNL     1      35.302 -17.488 -22.240  0.00  0.00    +0.099 C 
ENDBRANCH  18  20
ENDBRANCH   5  18
TORSDOF 3
ENDMDL
MODEL 4
REMARK VINA RESULT:     -12.2      4.608      8.443
REMARK  Name = 46911863
REMARK  3 active torsions:
REMARK  status: ('A' for Active; 'I' for Inactive)
REMARK    1  A    between atoms: C_5  and  C_18
REMARK    2  A    between atoms: C_7  and  C_12
REMARK    3  A    between atoms: C_18  and  C_20
REMARK                            x       y       z     vdW  Elec       q    Type
REMARK                         _______ _______ _______ _____ _____    ______ ____
ROOT
ATOM      1  N   UNL     1      33.514 -15.072 -23.362  0.00  0.00    -0.190 N 
ATOM      2  N   UNL     1      34.028 -15.837 -22.366  0.00  0.00    -0.162 NA
ATOM      3  N   UNL     1      32.639 -13.374 -24.436  0.00  0.00    -0.126 NA
ATOM      4  N   UNL     1      32.796 -14.414 -25.329  0.00  0.00    -0.127 NA
ATOM      5  C   UNL     1      33.074 -13.785 -23.266  0.00  0.00    +0.228 A 
ATOM      6  C   UNL     1      33.322 -15.429 -24.677  0.00  0.00    +0.187 A 
ATOM      7  C   UNL     1      34.361 -17.039 -22.743  0.00  0.00    +0.104 C 
ATOM      8  C   UNL     1      33.706 -16.729 -25.059  0.00  0.00    +0.042 C 
ATOM      9  C   UNL     1      34.225 -17.556 -24.143  0.00  0.00    +0.024 C 
ENDROOT
BRANCH   7  12
ATOM     10  N   UNL     1      35.190 -19.636 -20.345  0.00  0.00    -0.208 N 
ATOM     11  N   UNL     1      36.357 -18.974 -20.262  0.00  0.00    -0.176 NA
ATOM     12  C   UNL     1      34.931 -17.976 -21.740  0.00  0.00    +0.056 C 
ATOM     13  C   UNL     1      34.301 -19.079 -21.216  0.00  0.00    +0.087 C 
ATOM     14  C   UNL     1      36.192 -17.960 -21.116  0.00  0.00    +0.121 C 
ATOM     15  C   UNL     1      34.980 -20.822 -19.549  0.00  0.00    +0.140 C 
ENDBRANCH   7  12
BRANCH   5  18
ATOM     16  F   UNL     1      34.412 -12.844 -21.539  0.00  0.00    -0.191 F 
ATOM     17  F   UNL     1      32.551 -13.743 -20.946  0.00  0.00    -0.191 F 
ATOM     18  C   UNL     1      33.104 -12.987 -21.963  0.00  0.00    +0.335 C 
BRANCH  18  20
ATOM     19  N   UNL     1      30.484  -7.997 -22.472  0.00  0.00    -0.244 NA
ATOM     20  C   UNL     1      32.422 -11.668 -22.102  0.00  0.00    +0.045 C 
ATOM     21  C   UNL     1      33.063 -10.613 -22.744  0.00  0.00    +0.003 C 
ATOM     22  C   UNL     1      32.423  -9.368 -22.878  0.00  0.00    +0.018 C 
ATOM     23  C   UNL     1      31.143 -11.485 -21.590  0.00  0.00    +0.003 C 
ATOM     24  C   UNL     1      31.125  -9.176 -22.362  0.00  0.00    +0.081 C 
ATOM     25  C   UNL     1      30.509 -10.248 -21.723  0.00  0.00    +0.019 C 
ATOM     26  C   UNL     1      33.045  -8.289 -23.520  0.00  0.00    +0.003 C 
ATOM     27  C   UNL     1      32.387  -7.074 -23.636  0.00  0.00    +0.021 C 
ATOM     28  C   UNL     1      31.119  -6.980 -23.100  0.00  0.00    +0.099 C 
ENDBRANCH  18  20
ENDBRANCH   5  18
TORSDOF 3
ENDMDL
MODEL 5
REMARK VINA RESULT:     -12.1      6.204     12.213
REMARK  Name = 46911863
REMARK  3 active torsions:
REMARK  status: ('A' for Active; 'I' for Inactive)
REMARK    1  A    between atoms: C_5  and  C_18
REMARK    2  A    between atoms: C_7  and  C_12
REMARK    3  A    between atoms: C_18  and  C_20
REMARK                            x       y       z     vdW  Elec       q    Type
REMARK                         _______ _______ _______ _____ _____    ______ ____
ROOT
ATOM      1  N   UNL     1      32.017 -11.119 -22.194  0.00  0.00    -0.190 N 
ATOM      2  N   UNL     1      32.268 -10.055 -22.997  0.00  0.00    -0.162 NA
ATOM      3  N   UNL     1      31.941 -13.171 -21.427  0.00  0.00    -0.126 NA
ATOM      4  N   UNL     1      31.318 -12.346 -20.513  0.00  0.00    -0.127 NA
ATOM      5  C   UNL     1      32.353 -12.420 -22.424  0.00  0.00    +0.228 A 
ATOM      6  C   UNL     1      31.368 -11.117 -20.981  0.00  0.00    +0.187 A 
ATOM      7  C   UNL     1      31.823  -8.924 -22.528  0.00  0.00    +0.104 C 
ATOM      8  C   UNL     1      30.913  -9.877 -20.491  0.00  0.00    +0.042 C 
ATOM      9  C   UNL     1      31.116  -8.770 -21.215  0.00  0.00    +0.024 C 
ENDROOT
BRANCH   7  12
ATOM     10  N   UNL     1      32.909  -5.875 -24.174  0.00  0.00    -0.208 N 
ATOM     11  N   UNL     1      31.702  -5.943 -24.762  0.00  0.00    -0.176 NA
ATOM     12  C   UNL     1      32.031  -7.684 -23.320  0.00  0.00    +0.056 C 
ATOM     13  C   UNL     1      33.156  -6.894 -23.302  0.00  0.00    +0.087 C 
ATOM     14  C   UNL     1      31.170  -7.050 -24.235  0.00  0.00    +0.121 C 
ATOM     15  C   UNL     1      33.803  -4.788 -24.496  0.00  0.00    +0.140 C 
ENDBRANCH   7  12
BRANCH   5  18
ATOM     16  F   UNL     1      34.204 -12.076 -23.879  0.00  0.00    -0.191 F 
ATOM     17  F   UNL     1      32.333 -12.607 -24.795  0.00  0.00    -0.191 F 
ATOM     18  C   UNL     1      33.098 -12.882 -23.677  0.00  0.00    +0.335 C 
BRANCH  18  20
ATOM     19  N   UNL     1      34.501 -18.358 -23.436  0.00  0.00    -0.244 NA
ATOM     20  C   UNL     1      33.471 -14.323 -23.604  0.00  0.00    +0.045 C 
ATOM     21  C   UNL     1      34.024 -14.845 -22.438  0.00  0.00    +0.003 C 
ATOM     22  C   UNL     1      34.376 -16.204 -22.365  0.00  0.00    +0.018 C 
ATOM     23  C   UNL     1      33.270 -15.153 -24.699  0.00  0.00    +0.003 C 
ATOM     24  C   UNL     1      34.174 -17.052 -23.473  0.00  0.00    +0.081 C 
ATOM     25  C   UNL     1      33.621 -16.503 -24.626  0.00  0.00    +0.019 C 
ATOM     26  C   UNL     1      34.933 -16.755 -21.203  0.00  0.00    +0.003 C 
ATOM     27  C   UNL     1      35.270 -18.101 -21.163  0.00  0.00    +0.021 C 
ATOM     28  C   UNL     1      35.036 -18.852 -22.296  0.00  0.00    +0.099 C 
ENDBRANCH  18  20
ENDBRANCH   5  18
TORSDOF 3
ENDMDL
MODEL 6
REMARK VINA RESULT:     -11.9      6.899     13.250
REMARK  Name = 46911863
REMARK  3 active torsions:
REMARK  status: ('A' for Active; 'I' for Inactive)
REMARK    1  A    between atoms: C_5  and  C_18
REMARK    2  A    between atoms: C_7  and  C_12
REMARK    3  A    between atoms: C_18  and  C_20
REMARK                            x       y       z     vdW  Elec       q    Type
REMARK                         _______ _______ _______ _____ _____    ______ ____
ROOT
ATOM      1  N   UNL     1      32.068  -9.482 -22.508  0.00  0.00    -0.190 N 
ATOM      2  N   UNL     1      32.814  -8.680 -23.307  0.00  0.00    -0.162 NA
ATOM      3  N   UNL     1      31.225 -11.274 -21.570  0.00  0.00    -0.126 NA
ATOM      4  N   UNL     1      30.616 -10.169 -21.012  0.00  0.00    -0.127 NA
ATOM      5  C   UNL     1      32.090 -10.845 -22.461  0.00  0.00    +0.228 A 
ATOM      6  C   UNL     1      31.128  -9.098 -21.580  0.00  0.00    +0.187 A 
ATOM      7  C   UNL     1      32.579  -7.408 -23.146  0.00  0.00    +0.104 C 
ATOM      8  C   UNL     1      30.906  -7.717 -21.415  0.00  0.00    +0.042 C 
ATOM      9  C   UNL     1      31.598  -6.847 -22.161  0.00  0.00    +0.024 C 
ENDROOT
BRANCH   7  12
ATOM     10  N   UNL     1      34.524  -5.508 -25.552  0.00  0.00    -0.208 N 
ATOM     11  N   UNL     1      34.282  -4.487 -24.711  0.00  0.00    -0.176 NA
ATOM     12  C   UNL     1      33.331  -6.426 -23.969  0.00  0.00    +0.056 C 
ATOM     13  C   UNL     1      33.977  -6.691 -25.153  0.00  0.00    +0.087 C 
ATOM     14  C   UNL     1      33.553  -5.054 -23.746  0.00  0.00    +0.121 C 
ATOM     15  C   UNL     1      35.302  -5.283 -26.747  0.00  0.00    +0.140 C 
ENDBRANCH   7  12
BRANCH   5  18
ATOM     16  F   UNL     1      34.092 -10.943 -23.742  0.00  0.00    -0.191 F 
ATOM     17  F   UNL     1      32.375 -11.959 -24.543  0.00  0.00    -0.191 F 
ATOM     18  C   UNL     1      33.005 -11.697 -23.341  0.00  0.00    +0.335 C 
BRANCH  18  20
ATOM     19  N   UNL     1      34.604 -16.440 -20.702  0.00  0.00    -0.244 NA
ATOM     20  C   UNL     1      33.427 -12.951 -22.655  0.00  0.00    +0.045 C 
ATOM     21  C   UNL     1      33.724 -14.090 -23.398  0.00  0.00    +0.003 C 
ATOM     22  C   UNL     1      34.123 -15.274 -22.755  0.00  0.00    +0.018 C 
ATOM     23  C   UNL     1      33.526 -12.991 -21.270  0.00  0.00    +0.003 C 
ATOM     24  C   UNL     1      34.226 -15.321 -21.349  0.00  0.00    +0.081 C 
ATOM     25  C   UNL     1      33.922 -14.169 -20.631  0.00  0.00    +0.019 C 
ATOM     26  C   UNL     1      34.428 -16.435 -23.479  0.00  0.00    +0.003 C 
ATOM     27  C   UNL     1      34.819 -17.588 -22.814  0.00  0.00    +0.021 C 
ATOM     28  C   UNL     1      34.891 -17.539 -21.437  0.00  0.00    +0.099 C 
ENDBRANCH  18  20
ENDBRANCH   5  18
TORSDOF 3
ENDMDL
MODEL 7
REMARK VINA RESULT:     -11.8      2.702      9.028
REMARK  Name = 46911863
REMARK  3 active torsions:
REMARK  status: ('A' for Active; 'I' for Inactive)
REMARK    1  A    between atoms: C_5  and  C_18
REMARK    2  A    between atoms: C_7  and  C_12
REMARK    3  A    between atoms: C_18  and  C_20
REMARK                            x       y       z     vdW  Elec       q    Type
REMARK                         _______ _______ _______ _____ _____    ______ ____
ROOT
ATOM      1  N   UNL     1      34.271 -17.438 -23.193  0.00  0.00    -0.190 N 
ATOM      2  N   UNL     1      34.250 -16.171 -22.711  0.00  0.00    -0.162 NA
ATOM      3  N   UNL     1      34.707 -19.577 -23.395  0.00  0.00    -0.126 NA
ATOM      4  N   UNL     1      33.923 -19.194 -24.465  0.00  0.00    -0.127 NA
ATOM      5  C   UNL     1      34.903 -18.515 -22.645  0.00  0.00    +0.228 A 
ATOM      6  C   UNL     1      33.666 -17.910 -24.336  0.00  0.00    +0.187 A 
ATOM      7  C   UNL     1      33.570 -15.338 -23.448  0.00  0.00    +0.104 C 
ATOM      8  C   UNL     1      32.925 -16.991 -25.104  0.00  0.00    +0.042 C 
ATOM      9  C   UNL     1      32.846 -15.715 -24.706  0.00  0.00    +0.024 C 
ENDROOT
BRANCH   7  12
ATOM     10  N   UNL     1      33.118 -11.761 -23.019  0.00  0.00    -0.208 N 
ATOM     11  N   UNL     1      33.583 -12.005 -21.781  0.00  0.00    -0.176 NA
ATOM     12  C   UNL     1      33.476 -13.915 -23.028  0.00  0.00    +0.056 C 
ATOM     13  C   UNL     1      33.035 -12.872 -23.805  0.00  0.00    +0.087 C 
ATOM     14  C   UNL     1      33.801 -13.323 -21.793  0.00  0.00    +0.121 C 
ATOM     15  C   UNL     1      32.761 -10.415 -23.398  0.00  0.00    +0.140 C 
ENDBRANCH   7  12
BRANCH   5  18
ATOM     16  F   UNL     1      35.585 -17.178 -20.800  0.00  0.00    -0.191 F 
ATOM     17  F   UNL     1      37.060 -18.495 -21.644  0.00  0.00    -0.191 F 
ATOM     18  C   UNL     1      35.710 -18.440 -21.349  0.00  0.00    +0.335 C 
BRANCH  18  20
ATOM     19  N   UNL     1      34.241 -22.488 -17.678  0.00  0.00    -0.244 NA
ATOM     20  C   UNL     1      35.313 -19.504 -20.384  0.00  0.00    +0.045 C 
ATOM     21  C   UNL     1      33.968 -19.758 -20.136  0.00  0.00    +0.003 C 
ATOM     22  C   UNL     1      33.589 -20.761 -19.226  0.00  0.00    +0.018 C 
ATOM     23  C   UNL     1      36.284 -20.249 -19.726  0.00  0.00    +0.003 C 
ATOM     24  C   UNL     1      34.569 -21.520 -18.555  0.00  0.00    +0.081 C 
ATOM     25  C   UNL     1      35.907 -21.245 -18.822  0.00  0.00    +0.019 C 
ATOM     26  C   UNL     1      32.241 -21.037 -18.958  0.00  0.00    +0.003 C 
ATOM     27  C   UNL     1      31.901 -22.034 -18.056  0.00  0.00    +0.021 C 
ATOM     28  C   UNL     1      32.929 -22.724 -17.447  0.00  0.00    +0.099 C 
ENDBRANCH  18  20
ENDBRANCH   5  18
TORSDOF 3
ENDMDL
MODEL 8
REMARK VINA RESULT:     -11.8      3.114      5.472
REMARK  Name = 46911863
REMARK  3 active torsions:
REMARK  status: ('A' for Active; 'I' for Inactive)
REMARK    1  A    between atoms: C_5  and  C_18
REMARK    2  A    between atoms: C_7  and  C_12
REMARK    3  A    between atoms: C_18  and  C_20
REMARK                            x       y       z     vdW  Elec       q    Type
REMARK                         _______ _______ _______ _____ _____    ______ ____
ROOT
ATOM      1  N   UNL     1      32.780 -22.626 -16.357  0.00  0.00    -0.190 N 
ATOM      2  N   UNL     1      31.438 -22.666 -16.542  0.00  0.00    -0.162 NA
ATOM      3  N   UNL     1      34.929 -22.472 -16.763  0.00  0.00    -0.126 NA
ATOM      4  N   UNL     1      34.759 -22.669 -15.407  0.00  0.00    -0.127 NA
ATOM      5  C   UNL     1      33.736 -22.447 -17.314  0.00  0.00    +0.228 A 
ATOM      6  C   UNL     1      33.467 -22.761 -15.173  0.00  0.00    +0.187 A 
ATOM      7  C   UNL     1      30.760 -22.859 -15.445  0.00  0.00    +0.104 C 
ATOM      8  C   UNL     1      32.709 -22.952 -14.002  0.00  0.00    +0.042 C 
ATOM      9  C   UNL     1      31.374 -23.004 -14.085  0.00  0.00    +0.024 C 
ENDROOT
BRANCH   7  12
ATOM     10  N   UNL     1      27.160 -22.391 -15.504  0.00  0.00    -0.208 N 
ATOM     11  N   UNL     1      27.146 -23.714 -15.745  0.00  0.00    -0.176 NA
ATOM     12  C   UNL     1      29.277 -22.927 -15.517  0.00  0.00    +0.056 C 
ATOM     13  C   UNL     1      28.412 -21.871 -15.359  0.00  0.00    +0.087 C 
ATOM     14  C   UNL     1      28.442 -24.036 -15.751  0.00  0.00    +0.121 C 
ATOM     15  C   UNL     1      25.916 -21.664 -15.424  0.00  0.00    +0.140 C 
ENDBRANCH   7  12
BRANCH   5  18
ATOM     16  F   UNL     1      32.061 -21.993 -18.940  0.00  0.00    -0.191 F 
ATOM     17  F   UNL     1      33.544 -23.461 -19.457  0.00  0.00    -0.191 F 
ATOM     18  C   UNL     1      33.410 -22.254 -18.795  0.00  0.00    +0.335 C 
BRANCH  18  20
ATOM     19  N   UNL     1      36.622 -18.221 -21.126  0.00  0.00    -0.244 NA
ATOM     20  C   UNL     1      34.249 -21.189 -19.415  0.00  0.00    +0.045 C 
ATOM     21  C   UNL     1      33.732 -20.398 -20.437  0.00  0.00    +0.003 C 
ATOM     22  C   UNL     1      34.519 -19.392 -21.024  0.00  0.00    +0.018 C 
ATOM     23  C   UNL     1      35.551 -20.981 -18.978  0.00  0.00    +0.003 C 
ATOM     24  C   UNL     1      35.841 -19.175 -20.584  0.00  0.00    +0.081 C 
ATOM     25  C   UNL     1      36.332 -19.982 -19.562  0.00  0.00    +0.019 C 
ATOM     26  C   UNL     1      34.023 -18.580 -22.053  0.00  0.00    +0.003 C 
ATOM     27  C   UNL     1      34.826 -17.596 -22.612  0.00  0.00    +0.021 C 
ATOM     28  C   UNL     1      36.106 -17.458 -22.117  0.00  0.00    +0.099 C 
ENDBRANCH  18  20
ENDBRANCH   5  18
TORSDOF 3
ENDMDL
MODEL 9
REMARK VINA RESULT:     -11.7      2.680      8.853
REMARK  Name = 46911863
REMARK  3 active torsions:
REMARK  status: ('A' for Active; 'I' for Inactive)
REMARK    1  A    between atoms: C_5  and  C_18
REMARK    2  A    between atoms: C_7  and  C_12
REMARK    3  A    between atoms: C_18  and  C_20
REMARK                            x       y       z     vdW  Elec       q    Type
REMARK                         _______ _______ _______ _____ _____    ______ ____
ROOT
ATOM      1  N   UNL     1      34.714 -19.717 -20.397  0.00  0.00    -0.190 N 
ATOM      2  N   UNL     1      34.005 -19.105 -21.378  0.00  0.00    -0.162 NA
ATOM      3  N   UNL     1      35.217 -20.967 -18.668  0.00  0.00    -0.126 NA
ATOM      4  N   UNL     1      36.370 -20.344 -19.099  0.00  0.00    -0.127 NA
ATOM      5  C   UNL     1      34.238 -20.581 -19.455  0.00  0.00    +0.228 A 
ATOM      6  C   UNL     1      36.059 -19.596 -20.137  0.00  0.00    +0.187 A 
ATOM      7  C   UNL     1      34.719 -18.321 -22.134  0.00  0.00    +0.104 C 
ATOM      8  C   UNL     1      36.810 -18.754 -20.980  0.00  0.00    +0.042 C 
ATOM      9  C   UNL     1      36.195 -18.107 -21.978  0.00  0.00    +0.024 C 
ENDROOT
BRANCH   7  12
ATOM     10  N   UNL     1      33.366 -16.005 -24.582  0.00  0.00    -0.208 N 
ATOM     11  N   UNL     1      32.819 -17.117 -25.105  0.00  0.00    -0.176 NA
ATOM     12  C   UNL     1      34.055 -17.588 -23.243  0.00  0.00    +0.056 C 
ATOM     13  C   UNL     1      34.115 -16.233 -23.465  0.00  0.00    +0.087 C 
ATOM     14  C   UNL     1      33.243 -18.080 -24.282  0.00  0.00    +0.121 C 
ATOM     15  C   UNL     1      33.131 -14.727 -25.209  0.00  0.00    +0.140 C 
ENDBRANCH   7  12
BRANCH   5  18
ATOM     16  F   UNL     1      32.443 -21.751 -20.490  0.00  0.00    -0.191 F 
ATOM     17  F   UNL     1      31.962 -19.891 -19.524  0.00  0.00    -0.191 F 
ATOM     18  C   UNL     1      32.770 -21.003 -19.374  0.00  0.00    +0.335 C 
BRANCH  18  20
ATOM     19  N   UNL     1      31.672 -23.797 -14.577  0.00  0.00    -0.244 NA
ATOM     20  C   UNL     1      32.471 -21.736 -18.111  0.00  0.00    +0.045 C 
ATOM     21  C   UNL     1      31.172 -21.770 -17.612  0.00  0.00    +0.003 C 
ATOM     22  C   UNL     1      30.885 -22.461 -16.422  0.00  0.00    +0.018 C 
ATOM     23  C   UNL     1      33.487 -22.390 -17.425  0.00  0.00    +0.003 C 
ATOM     24  C   UNL     1      31.912 -23.126 -15.721  0.00  0.00    +0.081 C 
ATOM     25  C   UNL     1      33.201 -23.075 -16.242  0.00  0.00    +0.019 C 
ATOM     26  C   UNL     1      29.587 -22.511 -15.898  0.00  0.00    +0.003 C 
ATOM     27  C   UNL     1      29.336 -23.201 -14.721  0.00  0.00    +0.021 C 
ATOM     28  C   UNL     1      30.404 -23.822 -14.105  0.00  0.00    +0.099 C 
ENDBRANCH  18  20
ENDBRANCH   5  18
TORSDOF 3
ENDMDL
