MODEL 1
REMARK VINA RESULT:     -12.4      0.000      0.000
REMARK  Name = 42627755
REMARK  2 active torsions:
REMARK  status: ('A' for Active; 'I' for Inactive)
REMARK    1  A    between atoms: N_5  and  C_20
REMARK    2  A    between atoms: C_7  and  C_28
REMARK                            x       y       z     vdW  Elec       q    Type
REMARK                         _______ _______ _______ _____ _____    ______ ____
ROOT
ATOM      1  N   UNL     1      34.927 -20.802 -19.301  0.00  0.00    -0.239 N 
ATOM      2  N   UNL     1      34.191 -21.415 -18.359  0.00  0.00    -0.166 NA
ATOM      3  N   UNL     1      31.771 -21.576 -18.075  0.00  0.00    -0.271 N 
ATOM      4  N   UNL     1      32.635 -22.804 -16.227  0.00  0.00    -0.322 NA
ATOM      5  N   UNL     1      33.440 -24.021 -14.395  0.00  0.00    -0.247 N 
ATOM      6  N   UNL     1      31.121 -23.826 -14.655  0.00  0.00    -0.170 NA
ATOM      7  C   UNL     1      34.185 -20.165 -20.253  0.00  0.00    +0.045 C 
ATOM      8  C   UNL     1      32.872 -20.378 -19.909  0.00  0.00    +0.048 C 
ATOM      9  C   UNL     1      32.936 -21.152 -18.735  0.00  0.00    +0.152 C 
ATOM     10  C   UNL     1      31.562 -22.345 -16.905  0.00  0.00    +0.199 C 
ATOM     11  C   UNL     1      30.257 -22.583 -16.525  0.00  0.00    +0.070 C 
ATOM     12  C   UNL     1      32.345 -23.527 -15.127  0.00  0.00    +0.150 C 
ATOM     13  C   UNL     1      30.094 -23.335 -15.381  0.00  0.00    +0.116 C 
ATOM     14  H   UNL     1      35.912 -20.811 -19.304  0.00  0.00    +0.174 HD
ATOM     15  H   UNL     1      30.939 -21.282 -18.510  0.00  0.00    +0.156 HD
ATOM     16  H   UNL     1      33.182 -24.542 -13.601  0.00  0.00    +0.165 HD
ENDROOT
BRANCH   5  20
ATOM     17  N   UNL     1      38.074 -25.736 -14.431  0.00  0.00    -0.315 N 
ATOM     18  N   UNL     1      38.959 -23.797 -15.061  0.00  0.00    -0.315 N 
ATOM     19  C   UNL     1      37.016 -24.874 -14.552  0.00  0.00    +0.060 C 
ATOM     20  C   UNL     1      34.838 -23.915 -14.578  0.00  0.00    +0.059 C 
ATOM     21  C   UNL     1      37.593 -23.670 -14.947  0.00  0.00    +0.059 C 
ATOM     22  C   UNL     1      35.644 -25.037 -14.357  0.00  0.00    +0.031 C 
ATOM     23  C   UNL     1      35.388 -22.695 -14.974  0.00  0.00    +0.017 C 
ATOM     24  C   UNL     1      36.768 -22.553 -15.164  0.00  0.00    +0.017 C 
ATOM     25  C   UNL     1      39.213 -25.047 -14.745  0.00  0.00    +0.182 C 
ATOM     26  H   UNL     1      38.024 -26.683 -14.165  0.00  0.00    +0.148 HD
ATOM     27  H   UNL     1      39.605 -23.102 -15.324  0.00  0.00    +0.148 HD
ENDBRANCH   5  20
BRANCH   7  28
ATOM     28  C   UNL     1      34.714 -19.383 -21.447  0.00  0.00    +0.037 C 
ATOM     29  C   UNL     1      35.986 -18.603 -21.292  0.00  0.00    +0.006 C 
ATOM     30  C   UNL     1      34.674 -17.883 -21.400  0.00  0.00    +0.006 C 
ENDBRANCH   7  28
TORSDOF 2
ENDMDL
MODEL 2
REMARK VINA RESULT:     -12.2      1.326      6.613
REMARK  Name = 42627755
REMARK  2 active torsions:
REMARK  status: ('A' for Active; 'I' for Inactive)
REMARK    1  A    between atoms: N_5  and  C_20
REMARK    2  A    between atoms: C_7  and  C_28
REMARK                            x       y       z     vdW  Elec       q    Type
REMARK                         _______ _______ _______ _____ _____    ______ ____
ROOT
ATOM      1  N   UNL     1      36.958 -23.447 -15.262  0.00  0.00    -0.239 N 
ATOM      2  N   UNL     1      35.627 -23.362 -15.418  0.00  0.00    -0.166 NA
ATOM      3  N   UNL     1      33.799 -24.242 -14.059  0.00  0.00    -0.271 N 
ATOM      4  N   UNL     1      32.684 -23.122 -15.841  0.00  0.00    -0.322 NA
ATOM      5  N   UNL     1      31.545 -22.034 -17.574  0.00  0.00    -0.247 N 
ATOM      6  N   UNL     1      30.275 -23.096 -15.918  0.00  0.00    -0.170 NA
ATOM      7  C   UNL     1      37.340 -24.147 -14.156  0.00  0.00    +0.045 C 
ATOM      8  C   UNL     1      36.176 -24.546 -13.545  0.00  0.00    +0.048 C 
ATOM      9  C   UNL     1      35.154 -24.036 -14.366  0.00  0.00    +0.152 C 
ATOM     10  C   UNL     1      32.602 -23.845 -14.704  0.00  0.00    +0.199 C 
ATOM     11  C   UNL     1      31.411 -24.225 -14.122  0.00  0.00    +0.070 C 
ATOM     12  C   UNL     1      31.499 -22.787 -16.387  0.00  0.00    +0.150 C 
ATOM     13  C   UNL     1      30.268 -23.820 -14.779  0.00  0.00    +0.116 C 
ATOM     14  H   UNL     1      37.600 -23.041 -15.890  0.00  0.00    +0.174 HD
ATOM     15  H   UNL     1      33.653 -24.763 -13.238  0.00  0.00    +0.156 HD
ATOM     16  H   UNL     1      30.658 -21.811 -17.936  0.00  0.00    +0.165 HD
ENDROOT
BRANCH   5  20
ATOM     17  N   UNL     1      33.565 -19.271 -21.139  0.00  0.00    -0.315 N 
ATOM     18  N   UNL     1      35.637 -19.955 -20.718  0.00  0.00    -0.315 N 
ATOM     19  C   UNL     1      33.454 -20.153 -20.096  0.00  0.00    +0.060 C 
ATOM     20  C   UNL     1      32.619 -21.532 -18.346  0.00  0.00    +0.059 C 
ATOM     21  C   UNL     1      34.761 -20.566 -19.852  0.00  0.00    +0.059 C 
ATOM     22  C   UNL     1      32.357 -20.613 -19.367  0.00  0.00    +0.031 C 
ATOM     23  C   UNL     1      33.918 -21.965 -18.077  0.00  0.00    +0.017 C 
ATOM     24  C   UNL     1      35.005 -21.491 -18.822  0.00  0.00    +0.017 C 
ATOM     25  C   UNL     1      34.888 -19.186 -21.476  0.00  0.00    +0.182 C 
ATOM     26  H   UNL     1      32.825 -18.786 -21.570  0.00  0.00    +0.148 HD
ATOM     27  H   UNL     1      36.615 -20.068 -20.760  0.00  0.00    +0.148 HD
ENDBRANCH   5  20
BRANCH   7  28
ATOM     28  C   UNL     1      38.766 -24.423 -13.700  0.00  0.00    +0.037 C 
ATOM     29  C   UNL     1      39.824 -24.653 -14.738  0.00  0.00    +0.006 C 
ATOM     30  C   UNL     1      39.334 -25.798 -13.902  0.00  0.00    +0.006 C 
ENDBRANCH   7  28
TORSDOF 2
ENDMDL
MODEL 3
REMARK VINA RESULT:     -11.8      1.842      7.020
REMARK  Name = 42627755
REMARK  2 active torsions:
REMARK  status: ('A' for Active; 'I' for Inactive)
REMARK    1  A    between atoms: N_5  and  C_20
REMARK    2  A    between atoms: C_7  and  C_28
REMARK                            x       y       z     vdW  Elec       q    Type
REMARK                         _______ _______ _______ _____ _____    ______ ____
ROOT
ATOM      1  N   UNL     1      30.433 -22.382 -16.828  0.00  0.00    -0.239 N 
ATOM      2  N   UNL     1      31.762 -22.390 -16.631  0.00  0.00    -0.166 NA
ATOM      3  N   UNL     1      33.104 -23.315 -14.814  0.00  0.00    -0.271 N 
ATOM      4  N   UNL     1      34.723 -22.362 -16.277  0.00  0.00    -0.322 NA
ATOM      5  N   UNL     1      36.350 -21.440 -17.686  0.00  0.00    -0.247 N 
ATOM      6  N   UNL     1      37.064 -22.495 -15.722  0.00  0.00    -0.170 NA
ATOM      7  C   UNL     1      29.725 -22.997 -15.836  0.00  0.00    +0.045 C 
ATOM      8  C   UNL     1      30.658 -23.438 -14.929  0.00  0.00    +0.048 C 
ATOM      9  C   UNL     1      31.893 -23.036 -15.469  0.00  0.00    +0.152 C 
ATOM     10  C   UNL     1      34.453 -23.028 -15.135  0.00  0.00    +0.199 C 
ATOM     11  C   UNL     1      35.421 -23.455 -14.249  0.00  0.00    +0.070 C 
ATOM     12  C   UNL     1      36.031 -22.133 -16.505  0.00  0.00    +0.150 C 
ATOM     13  C   UNL     1      36.722 -23.157 -14.597  0.00  0.00    +0.116 C 
ATOM     14  H   UNL     1      30.008 -21.971 -17.615  0.00  0.00    +0.174 HD
ATOM     15  H   UNL     1      32.992 -23.803 -13.967  0.00  0.00    +0.156 HD
ATOM     16  H   UNL     1      37.315 -21.295 -17.812  0.00  0.00    +0.165 HD
ENDROOT
BRANCH   5  20
ATOM     17  N   UNL     1      35.506 -18.646 -21.674  0.00  0.00    -0.315 N 
ATOM     18  N   UNL     1      33.376 -19.257 -21.851  0.00  0.00    -0.315 N 
ATOM     19  C   UNL     1      35.290 -19.521 -20.642  0.00  0.00    +0.060 C 
ATOM     20  C   UNL     1      35.554 -20.912 -18.729  0.00  0.00    +0.059 C 
ATOM     21  C   UNL     1      33.954 -19.889 -20.774  0.00  0.00    +0.059 C 
ATOM     22  C   UNL     1      36.123 -20.009 -19.635  0.00  0.00    +0.031 C 
ATOM     23  C   UNL     1      34.217 -21.299 -18.835  0.00  0.00    +0.017 C 
ATOM     24  C   UNL     1      33.399 -20.796 -19.855  0.00  0.00    +0.017 C 
ATOM     25  C   UNL     1      34.334 -18.520 -22.367  0.00  0.00    +0.182 C 
ATOM     26  H   UNL     1      36.353 -18.189 -21.880  0.00  0.00    +0.148 HD
ATOM     27  H   UNL     1      32.447 -19.339 -22.167  0.00  0.00    +0.148 HD
ENDBRANCH   5  20
BRANCH   7  28
ATOM     28  C   UNL     1      28.213 -23.156 -15.760  0.00  0.00    +0.037 C 
ATOM     29  C   UNL     1      27.365 -22.496 -16.807  0.00  0.00    +0.006 C 
ATOM     30  C   UNL     1      27.380 -21.958 -15.405  0.00  0.00    +0.006 C 
ENDBRANCH   7  28
TORSDOF 2
ENDMDL
MODEL 4
REMARK VINA RESULT:     -11.7      1.694      5.419
REMARK  Name = 42627755
REMARK  2 active torsions:
REMARK  status: ('A' for Active; 'I' for Inactive)
REMARK    1  A    between atoms: N_5  and  C_20
REMARK    2  A    between atoms: C_7  and  C_28
REMARK                            x       y       z     vdW  Elec       q    Type
REMARK                         _______ _______ _______ _____ _____    ______ ____
ROOT
ATOM      1  N   UNL     1      33.807 -20.461 -19.799  0.00  0.00    -0.239 N 
ATOM      2  N   UNL     1      34.190 -21.069 -18.664  0.00  0.00    -0.166 NA
ATOM      3  N   UNL     1      36.408 -21.414 -17.705  0.00  0.00    -0.271 N 
ATOM      4  N   UNL     1      34.950 -22.435 -16.124  0.00  0.00    -0.322 NA
ATOM      5  N   UNL     1      33.553 -23.452 -14.543  0.00  0.00    -0.247 N 
ATOM      6  N   UNL     1      35.861 -23.471 -14.148  0.00  0.00    -0.170 NA
ATOM      7  C   UNL     1      34.842 -19.957 -20.531  0.00  0.00    +0.045 C 
ATOM      8  C   UNL     1      35.981 -20.256 -19.823  0.00  0.00    +0.048 C 
ATOM      9  C   UNL     1      35.520 -20.941 -18.684  0.00  0.00    +0.152 C 
ATOM     10  C   UNL     1      36.208 -22.117 -16.492  0.00  0.00    +0.199 C 
ATOM     11  C   UNL     1      37.327 -22.436 -15.751  0.00  0.00    +0.070 C 
ATOM     12  C   UNL     1      34.850 -23.102 -14.957  0.00  0.00    +0.150 C 
ATOM     13  C   UNL     1      37.092 -23.121 -14.576  0.00  0.00    +0.116 C 
ATOM     14  H   UNL     1      32.865 -20.385 -20.077  0.00  0.00    +0.174 HD
ATOM     15  H   UNL     1      37.353 -21.220 -17.900  0.00  0.00    +0.156 HD
ATOM     16  H   UNL     1      33.528 -23.936 -13.686  0.00  0.00    +0.165 HD
ENDROOT
BRANCH   5  20
ATOM     17  N   UNL     1      28.639 -23.915 -14.777  0.00  0.00    -0.315 N 
ATOM     18  N   UNL     1      28.454 -22.729 -16.647  0.00  0.00    -0.315 N 
ATOM     19  C   UNL     1      29.917 -23.545 -15.102  0.00  0.00    +0.060 C 
ATOM     20  C   UNL     1      32.277 -23.241 -15.115  0.00  0.00    +0.059 C 
ATOM     21  C   UNL     1      29.776 -22.805 -16.273  0.00  0.00    +0.059 C 
ATOM     22  C   UNL     1      31.149 -23.785 -14.493  0.00  0.00    +0.031 C 
ATOM     23  C   UNL     1      32.167 -22.495 -16.290  0.00  0.00    +0.017 C 
ATOM     24  C   UNL     1      30.920 -22.266 -16.885  0.00  0.00    +0.017 C 
ATOM     25  C   UNL     1      27.800 -23.405 -15.730  0.00  0.00    +0.182 C 
ATOM     26  H   UNL     1      28.370 -24.453 -13.997  0.00  0.00    +0.148 HD
ATOM     27  H   UNL     1      28.079 -22.268 -17.432  0.00  0.00    +0.148 HD
ENDBRANCH   5  20
BRANCH   7  28
ATOM     28  C   UNL     1      34.745 -19.217 -21.858  0.00  0.00    +0.037 C 
ATOM     29  C   UNL     1      35.854 -18.285 -22.247  0.00  0.00    +0.006 C 
ATOM     30  C   UNL     1      34.519 -17.733 -21.840  0.00  0.00    +0.006 C 
ENDBRANCH   7  28
TORSDOF 2
ENDMDL
MODEL 5
REMARK VINA RESULT:     -11.6      1.872      5.541
REMARK  Name = 42627755
REMARK  2 active torsions:
REMARK  status: ('A' for Active; 'I' for Inactive)
REMARK    1  A    between atoms: N_5  and  C_20
REMARK    2  A    between atoms: C_7  and  C_28
REMARK                            x       y       z     vdW  Elec       q    Type
REMARK                         _______ _______ _______ _____ _____    ______ ____
ROOT
ATOM      1  N   UNL     1      33.741 -21.666 -18.428  0.00  0.00    -0.239 N 
ATOM      2  N   UNL     1      34.020 -22.151 -17.207  0.00  0.00    -0.166 NA
ATOM      3  N   UNL     1      36.133 -22.305 -15.993  0.00  0.00    -0.271 N 
ATOM      4  N   UNL     1      34.550 -23.247 -14.484  0.00  0.00    -0.322 NA
ATOM      5  N   UNL     1      33.028 -24.181 -12.969  0.00  0.00    -0.247 N 
ATOM      6  N   UNL     1      35.279 -24.057 -12.335  0.00  0.00    -0.170 NA
ATOM      7  C   UNL     1      34.830 -21.182 -19.092  0.00  0.00    +0.045 C 
ATOM      8  C   UNL     1      35.896 -21.363 -18.244  0.00  0.00    +0.048 C 
ATOM      9  C   UNL     1      35.339 -21.964 -17.100  0.00  0.00    +0.152 C 
ATOM     10  C   UNL     1      35.829 -22.904 -14.747  0.00  0.00    +0.199 C 
ATOM     11  C   UNL     1      36.871 -23.103 -13.866  0.00  0.00    +0.070 C 
ATOM     12  C   UNL     1      34.349 -23.810 -13.277  0.00  0.00    +0.150 C 
ATOM     13  C   UNL     1      36.535 -23.690 -12.664  0.00  0.00    +0.116 C 
ATOM     14  H   UNL     1      32.833 -21.659 -18.810  0.00  0.00    +0.174 HD
ATOM     15  H   UNL     1      37.085 -22.085 -16.106  0.00  0.00    +0.156 HD
ATOM     16  H   UNL     1      32.928 -24.588 -12.079  0.00  0.00    +0.165 HD
ENDROOT
BRANCH   5  20
ATOM     17  N   UNL     1      30.007 -22.254 -16.372  0.00  0.00    -0.315 N 
ATOM     18  N   UNL     1      28.333 -23.640 -15.905  0.00  0.00    -0.315 N 
ATOM     19  C   UNL     1      30.469 -23.058 -15.364  0.00  0.00    +0.060 C 
ATOM     20  C   UNL     1      31.815 -24.082 -13.690  0.00  0.00    +0.059 C 
ATOM     21  C   UNL     1      29.407 -23.915 -15.089  0.00  0.00    +0.059 C 
ATOM     22  C   UNL     1      31.688 -23.109 -14.687  0.00  0.00    +0.031 C 
ATOM     23  C   UNL     1      30.768 -24.956 -13.392  0.00  0.00    +0.017 C 
ATOM     24  C   UNL     1      29.552 -24.887 -14.084  0.00  0.00    +0.017 C 
ATOM     25  C   UNL     1      28.727 -22.640 -16.661  0.00  0.00    +0.182 C 
ATOM     26  H   UNL     1      30.506 -21.528 -16.811  0.00  0.00    +0.148 HD
ATOM     27  H   UNL     1      27.460 -24.095 -15.920  0.00  0.00    +0.148 HD
ENDBRANCH   5  20
BRANCH   7  28
ATOM     28  C   UNL     1      34.851 -20.570 -20.486  0.00  0.00    +0.037 C 
ATOM     29  C   UNL     1      35.522 -19.243 -20.681  0.00  0.00    +0.006 C 
ATOM     30  C   UNL     1      34.026 -19.343 -20.746  0.00  0.00    +0.006 C 
ENDBRANCH   7  28
TORSDOF 2
ENDMDL
MODEL 6
REMARK VINA RESULT:     -11.0      1.799      6.771
REMARK  Name = 42627755
REMARK  2 active torsions:
REMARK  status: ('A' for Active; 'I' for Inactive)
REMARK    1  A    between atoms: N_5  and  C_20
REMARK    2  A    between atoms: C_7  and  C_28
REMARK                            x       y       z     vdW  Elec       q    Type
REMARK                         _______ _______ _______ _____ _____    ______ ____
ROOT
ATOM      1  N   UNL     1      35.926 -23.575 -14.100  0.00  0.00    -0.239 N 
ATOM      2  N   UNL     1      35.295 -23.053 -15.165  0.00  0.00    -0.166 NA
ATOM      3  N   UNL     1      36.172 -21.966 -17.167  0.00  0.00    -0.271 N 
ATOM      4  N   UNL     1      33.813 -21.920 -17.492  0.00  0.00    -0.322 NA
ATOM      5  N   UNL     1      31.500 -21.852 -17.853  0.00  0.00    -0.247 N 
ATOM      6  N   UNL     1      32.898 -20.929 -19.489  0.00  0.00    -0.170 NA
ATOM      7  C   UNL     1      37.285 -23.472 -14.159  0.00  0.00    +0.045 C 
ATOM      8  C   UNL     1      37.561 -22.840 -15.347  0.00  0.00    +0.048 C 
ATOM      9  C   UNL     1      36.300 -22.605 -15.923  0.00  0.00    +0.152 C 
ATOM     10  C   UNL     1      35.045 -21.616 -17.951  0.00  0.00    +0.199 C 
ATOM     11  C   UNL     1      35.280 -20.980 -19.152  0.00  0.00    +0.070 C 
ATOM     12  C   UNL     1      32.799 -21.553 -18.300  0.00  0.00    +0.150 C 
ATOM     13  C   UNL     1      34.158 -20.656 -19.887  0.00  0.00    +0.116 C 
ATOM     14  H   UNL     1      35.451 -23.993 -13.345  0.00  0.00    +0.174 HD
ATOM     15  H   UNL     1      37.031 -21.712 -17.572  0.00  0.00    +0.156 HD
ATOM     16  H   UNL     1      30.792 -21.567 -18.474  0.00  0.00    +0.165 HD
ENDROOT
BRANCH   5  20
ATOM     17  N   UNL     1      31.937 -24.502 -13.704  0.00  0.00    -0.315 N 
ATOM     18  N   UNL     1      29.769 -24.402 -13.221  0.00  0.00    -0.315 N 
ATOM     19  C   UNL     1      31.370 -23.771 -14.715  0.00  0.00    +0.060 C 
ATOM     20  C   UNL     1      31.013 -22.485 -16.685  0.00  0.00    +0.059 C 
ATOM     21  C   UNL     1      30.017 -23.723 -14.391  0.00  0.00    +0.059 C 
ATOM     22  C   UNL     1      31.907 -23.166 -15.852  0.00  0.00    +0.031 C 
ATOM     23  C   UNL     1      29.651 -22.419 -16.387  0.00  0.00    +0.017 C 
ATOM     24  C   UNL     1      29.133 -23.034 -15.240  0.00  0.00    +0.017 C 
ATOM     25  C   UNL     1      30.941 -24.857 -12.836  0.00  0.00    +0.182 C 
ATOM     26  H   UNL     1      32.890 -24.731 -13.617  0.00  0.00    +0.148 HD
ATOM     27  H   UNL     1      28.903 -24.522 -12.769  0.00  0.00    +0.148 HD
ENDBRANCH   5  20
BRANCH   7  28
ATOM     28  C   UNL     1      38.281 -23.962 -13.117  0.00  0.00    +0.037 C 
ATOM     29  C   UNL     1      39.454 -24.781 -13.569  0.00  0.00    +0.006 C 
ATOM     30  C   UNL     1      38.336 -25.429 -12.806  0.00  0.00    +0.006 C 
ENDBRANCH   7  28
TORSDOF 2
ENDMDL
MODEL 7
REMARK VINA RESULT:     -10.9      1.768      6.783
REMARK  Name = 42627755
REMARK  2 active torsions:
REMARK  status: ('A' for Active; 'I' for Inactive)
REMARK    1  A    between atoms: N_5  and  C_20
REMARK    2  A    between atoms: C_7  and  C_28
REMARK                            x       y       z     vdW  Elec       q    Type
REMARK                         _______ _______ _______ _____ _____    ______ ____
ROOT
ATOM      1  N   UNL     1      30.469 -22.701 -16.305  0.00  0.00    -0.239 N 
ATOM      2  N   UNL     1      31.791 -22.772 -16.079  0.00  0.00    -0.166 NA
ATOM      3  N   UNL     1      33.048 -23.810 -14.261  0.00  0.00    -0.271 N 
ATOM      4  N   UNL     1      34.741 -22.883 -15.655  0.00  0.00    -0.322 NA
ATOM      5  N   UNL     1      36.440 -21.988 -16.996  0.00  0.00    -0.247 N 
ATOM      6  N   UNL     1      37.061 -23.135 -15.052  0.00  0.00    -0.170 NA
ATOM      7  C   UNL     1      29.712 -23.315 -15.350  0.00  0.00    +0.045 C 
ATOM      8  C   UNL     1      30.603 -23.824 -14.437  0.00  0.00    +0.048 C 
ATOM      9  C   UNL     1      31.867 -23.459 -14.935  0.00  0.00    +0.152 C 
ATOM     10  C   UNL     1      34.416 -23.572 -14.542  0.00  0.00    +0.199 C 
ATOM     11  C   UNL     1      35.343 -24.068 -13.649  0.00  0.00    +0.070 C 
ATOM     12  C   UNL     1      36.063 -22.703 -15.846  0.00  0.00    +0.150 C 
ATOM     13  C   UNL     1      36.664 -23.816 -13.956  0.00  0.00    +0.116 C 
ATOM     14  H   UNL     1      30.081 -22.248 -17.088  0.00  0.00    +0.174 HD
ATOM     15  H   UNL     1      32.896 -24.319 -13.433  0.00  0.00    +0.156 HD
ATOM     16  H   UNL     1      37.413 -21.881 -17.095  0.00  0.00    +0.165 HD
ENDROOT
BRANCH   5  20
ATOM     17  N   UNL     1      32.313 -21.036 -19.543  0.00  0.00    -0.315 N 
ATOM     18  N   UNL     1      33.337 -19.740 -21.030  0.00  0.00    -0.315 N 
ATOM     19  C   UNL     1      33.631 -21.022 -19.170  0.00  0.00    +0.060 C 
ATOM     20  C   UNL     1      35.692 -21.394 -18.040  0.00  0.00    +0.059 C 
ATOM     21  C   UNL     1      34.250 -20.206 -20.113  0.00  0.00    +0.059 C 
ATOM     22  C   UNL     1      34.316 -21.634 -18.119  0.00  0.00    +0.031 C 
ATOM     23  C   UNL     1      36.341 -20.581 -18.971  0.00  0.00    +0.017 C 
ATOM     24  C   UNL     1      35.633 -19.976 -20.017  0.00  0.00    +0.017 C 
ATOM     25  C   UNL     1      32.187 -20.256 -20.660  0.00  0.00    +0.182 C 
ATOM     26  H   UNL     1      31.586 -21.520 -19.090  0.00  0.00    +0.148 HD
ATOM     27  H   UNL     1      33.508 -19.147 -21.798  0.00  0.00    +0.148 HD
ENDBRANCH   5  20
BRANCH   7  28
ATOM     28  C   UNL     1      28.193 -23.411 -15.314  0.00  0.00    +0.037 C 
ATOM     29  C   UNL     1      27.416 -23.024 -16.537  0.00  0.00    +0.006 C 
ATOM     30  C   UNL     1      27.391 -22.142 -15.323  0.00  0.00    +0.006 C 
ENDBRANCH   7  28
TORSDOF 2
ENDMDL
MODEL 8
REMARK VINA RESULT:     -10.0      2.091      6.321
REMARK  Name = 42627755
REMARK  2 active torsions:
REMARK  status: ('A' for Active; 'I' for Inactive)
REMARK    1  A    between atoms: N_5  and  C_20
REMARK    2  A    between atoms: C_7  and  C_28
REMARK                            x       y       z     vdW  Elec       q    Type
REMARK                         _______ _______ _______ _____ _____    ______ ____
ROOT
ATOM      1  N   UNL     1      35.734 -23.180 -13.989  0.00  0.00    -0.239 N 
ATOM      2  N   UNL     1      34.451 -23.154 -14.386  0.00  0.00    -0.166 NA
ATOM      3  N   UNL     1      32.420 -23.947 -13.287  0.00  0.00    -0.271 N 
ATOM      4  N   UNL     1      31.629 -23.051 -15.346  0.00  0.00    -0.322 NA
ATOM      5  N   UNL     1      30.806 -22.182 -17.359  0.00  0.00    -0.247 N 
ATOM      6  N   UNL     1      29.273 -23.110 -15.852  0.00  0.00    -0.170 NA
ATOM      7  C   UNL     1      35.920 -23.751 -12.764  0.00  0.00    +0.045 C 
ATOM      8  C   UNL     1      34.671 -24.122 -12.330  0.00  0.00    +0.048 C 
ATOM      9  C   UNL     1      33.806 -23.731 -13.369  0.00  0.00    +0.152 C 
ATOM     10  C   UNL     1      31.354 -23.656 -14.172  0.00  0.00    +0.199 C 
ATOM     11  C   UNL     1      30.082 -24.013 -13.773  0.00  0.00    +0.070 C 
ATOM     12  C   UNL     1      30.557 -22.811 -16.127  0.00  0.00    +0.150 C 
ATOM     13  C   UNL     1      29.071 -23.713 -14.662  0.00  0.00    +0.116 C 
ATOM     14  H   UNL     1      36.473 -22.821 -14.532  0.00  0.00    +0.174 HD
ATOM     15  H   UNL     1      32.136 -24.387 -12.454  0.00  0.00    +0.156 HD
ATOM     16  H   UNL     1      29.995 -22.026 -17.895  0.00  0.00    +0.165 HD
ENDROOT
BRANCH   5  20
ATOM     17  N   UNL     1      35.707 -21.793 -17.855  0.00  0.00    -0.315 N 
ATOM     18  N   UNL     1      35.585 -20.496 -19.656  0.00  0.00    -0.315 N 
ATOM     19  C   UNL     1      34.369 -21.628 -18.096  0.00  0.00    +0.060 C 
ATOM     20  C   UNL     1      31.994 -21.729 -17.979  0.00  0.00    +0.059 C 
ATOM     21  C   UNL     1      34.317 -20.815 -19.225  0.00  0.00    +0.059 C 
ATOM     22  C   UNL     1      33.231 -22.105 -17.444  0.00  0.00    +0.031 C 
ATOM     23  C   UNL     1      31.910 -20.915 -19.109  0.00  0.00    +0.017 C 
ATOM     24  C   UNL     1      33.066 -20.447 -19.748  0.00  0.00    +0.017 C 
ATOM     25  C   UNL     1      36.393 -21.098 -18.813  0.00  0.00    +0.182 C 
ATOM     26  H   UNL     1      36.105 -22.318 -17.124  0.00  0.00    +0.148 HD
ATOM     27  H   UNL     1      35.832 -19.938 -20.429  0.00  0.00    +0.148 HD
ENDBRANCH   5  20
BRANCH   7  28
ATOM     28  C   UNL     1      37.245 -23.934 -12.036  0.00  0.00    +0.037 C 
ATOM     29  C   UNL     1      38.477 -24.219 -12.842  0.00  0.00    +0.006 C 
ATOM     30  C   UNL     1      37.864 -25.300 -12.000  0.00  0.00    +0.006 C 
ENDBRANCH   7  28
TORSDOF 2
ENDMDL
