MODEL 1
REMARK VINA RESULT:     -11.7      0.000      0.000
REMARK  Name = 24892822
REMARK  8 active torsions:
REMARK  status: ('A' for Active; 'I' for Inactive)
REMARK    1  A    between atoms: N_2  and  C_5
REMARK    2  A    between atoms: C_3  and  C_17
REMARK    3  A    between atoms: C_7  and  C_14
REMARK    4  A    between atoms: C_9  and  C_16
REMARK    5  A    between atoms: C_17  and  O_19
REMARK    6  A    between atoms: C_17  and  C_21
REMARK    7  A    between atoms: C_21  and  O_22
REMARK    8  A    between atoms: O_22  and  C_25
REMARK                            x       y       z     vdW  Elec       q    Type
REMARK                         _______ _______ _______ _____ _____    ______ ____
ROOT
ATOM      1  O   UNL     1      34.831 -16.563 -20.335  0.00  0.00    -0.272 OA
ATOM      2  N   UNL     1      34.706 -16.185 -22.642  0.00  0.00    -0.282 N 
ATOM      3  C   UNL     1      35.023 -16.910 -21.499  0.00  0.00    +0.254 C 
ATOM      4  H   UNL     1      34.928 -16.610 -23.501  0.00  0.00    +0.155 HD
ENDROOT
BRANCH   2   5
ATOM      5  C   UNL     1      34.101 -14.907 -22.716  0.00  0.00    +0.050 C 
ATOM      6  C   UNL     1      33.371 -14.416 -21.634  0.00  0.00    +0.019 C 
ATOM      7  C   UNL     1      32.777 -13.156 -21.707  0.00  0.00    +0.082 C 
ATOM      8  C   UNL     1      34.237 -14.138 -23.872  0.00  0.00    +0.015 C 
ATOM      9  C   UNL     1      32.913 -12.387 -22.864  0.00  0.00    +0.072 C 
ATOM     10  C   UNL     1      33.643 -12.878 -23.945  0.00  0.00    +0.011 C 
BRANCH   7  14
ATOM     11  F   UNL     1      32.624 -11.648 -19.856  0.00  0.00    -0.166 F 
ATOM     12  F   UNL     1      30.770 -12.176 -20.852  0.00  0.00    -0.166 F 
ATOM     13  F   UNL     1      31.783 -13.638 -19.602  0.00  0.00    -0.166 F 
ATOM     14  C   UNL     1      32.003 -12.662 -20.528  0.00  0.00    +0.419 C 
ENDBRANCH   7  14
BRANCH   9  16
ATOM     15  N   UNL     1      31.830 -10.040 -23.043  0.00  0.00    -0.191 NA
ATOM     16  C   UNL     1      32.314 -11.092 -22.962  0.00  0.00    +0.100 C 
ENDBRANCH   9  16
ENDBRANCH   2   5
BRANCH   3  17
ATOM     17  C   UNL     1      35.675 -18.269 -21.815  0.00  0.00    +0.197 C 
ATOM     18  C   UNL     1      34.978 -18.949 -22.996  0.00  0.00    +0.043 C 
BRANCH  17  19
ATOM     19  O   UNL     1      37.029 -18.019 -22.194  0.00  0.00    -0.375 OA
ATOM     20  H   UNL     1      37.589 -18.007 -21.403  0.00  0.00    +0.211 HD
ENDBRANCH  17  19
BRANCH  17  21
ATOM     21  C   UNL     1      35.710 -19.202 -20.598  0.00  0.00    +0.241 C 
BRANCH  21  22
ATOM     22  O   UNL     1      34.643 -20.144 -20.647  0.00  0.00    -0.472 OA
BRANCH  22  25
ATOM     23 CL   UNL     1      33.651 -23.272 -15.768  0.00  0.00    -0.080 Cl
ATOM     24  F   UNL     1      36.250 -22.151 -16.648  0.00  0.00    -0.203 F 
ATOM     25  C   UNL     1      34.413 -20.872 -19.510  0.00  0.00    +0.141 C 
ATOM     26  C   UNL     1      35.464 -21.151 -18.637  0.00  0.00    +0.067 C 
ATOM     27  C   UNL     1      33.128 -21.334 -19.225  0.00  0.00    +0.038 C 
ATOM     28  C   UNL     1      35.230 -21.891 -17.478  0.00  0.00    +0.154 C 
ATOM     29  C   UNL     1      32.894 -22.075 -18.067  0.00  0.00    +0.017 C 
ATOM     30  C   UNL     1      33.945 -22.354 -17.194  0.00  0.00    +0.085 C 
ENDBRANCH  22  25
ENDBRANCH  21  22
ENDBRANCH  17  21
ENDBRANCH   3  17
TORSDOF 8
ENDMDL
MODEL 2
REMARK VINA RESULT:     -11.6      3.932      9.438
REMARK  Name = 24892822
REMARK  8 active torsions:
REMARK  status: ('A' for Active; 'I' for Inactive)
REMARK    1  A    between atoms: N_2  and  C_5
REMARK    2  A    between atoms: C_3  and  C_17
REMARK    3  A    between atoms: C_7  and  C_14
REMARK    4  A    between atoms: C_9  and  C_16
REMARK    5  A    between atoms: C_17  and  O_19
REMARK    6  A    between atoms: C_17  and  C_21
REMARK    7  A    between atoms: C_21  and  O_22
REMARK    8  A    between atoms: O_22  and  C_25
REMARK                            x       y       z     vdW  Elec       q    Type
REMARK                         _______ _______ _______ _____ _____    ______ ____
ROOT
ATOM      1  O   UNL     1      33.172 -19.372 -20.913  0.00  0.00    -0.272 OA
ATOM      2  N   UNL     1      35.330 -20.030 -20.289  0.00  0.00    -0.282 N 
ATOM      3  C   UNL     1      34.390 -19.378 -21.078  0.00  0.00    +0.254 C 
ATOM      4  H   UNL     1      36.271 -19.932 -20.562  0.00  0.00    +0.155 HD
ENDROOT
BRANCH   2   5
ATOM      5  C   UNL     1      35.094 -20.820 -19.137  0.00  0.00    +0.050 C 
ATOM      6  C   UNL     1      36.073 -20.925 -18.150  0.00  0.00    +0.019 C 
ATOM      7  C   UNL     1      35.840 -21.703 -17.016  0.00  0.00    +0.082 C 
ATOM      8  C   UNL     1      33.881 -21.493 -18.992  0.00  0.00    +0.015 C 
ATOM      9  C   UNL     1      34.627 -22.377 -16.870  0.00  0.00    +0.072 C 
ATOM     10  C   UNL     1      33.648 -22.272 -17.857  0.00  0.00    +0.011 C 
BRANCH   7  14
ATOM     11  F   UNL     1      36.444 -21.659 -14.701  0.00  0.00    -0.166 F 
ATOM     12  F   UNL     1      37.586 -22.978 -15.992  0.00  0.00    -0.166 F 
ATOM     13  F   UNL     1      37.861 -20.825 -16.125  0.00  0.00    -0.166 F 
ATOM     14  C   UNL     1      36.911 -21.792 -15.977  0.00  0.00    +0.419 C 
ENDBRANCH   7  14
BRANCH   9  16
ATOM     15  N   UNL     1      34.148 -23.832 -14.780  0.00  0.00    -0.191 NA
ATOM     16  C   UNL     1      34.363 -23.180 -15.716  0.00  0.00    +0.100 C 
ENDBRANCH   9  16
ENDBRANCH   2   5
BRANCH   3  17
ATOM     17  C   UNL     1      35.027 -18.611 -22.254  0.00  0.00    +0.197 C 
ATOM     18  C   UNL     1      36.500 -18.304 -21.973  0.00  0.00    +0.043 C 
BRANCH  17  19
ATOM     19  O   UNL     1      34.969 -19.459 -23.401  0.00  0.00    -0.375 OA
ATOM     20  H   UNL     1      35.618 -20.174 -23.308  0.00  0.00    +0.211 HD
ENDBRANCH  17  19
BRANCH  17  21
ATOM     21  C   UNL     1      34.263 -17.327 -22.600  0.00  0.00    +0.241 C 
BRANCH  21  22
ATOM     22  O   UNL     1      34.862 -16.194 -21.977  0.00  0.00    -0.472 OA
BRANCH  22  25
ATOM     23 CL   UNL     1      31.849 -11.150 -22.207  0.00  0.00    -0.080 Cl
ATOM     24  F   UNL     1      32.866 -12.705 -24.517  0.00  0.00    -0.203 F 
ATOM     25  C   UNL     1      34.160 -15.020 -22.032  0.00  0.00    +0.141 C 
ATOM     26  C   UNL     1      33.862 -14.443 -23.267  0.00  0.00    +0.067 C 
ATOM     27  C   UNL     1      33.743 -14.400 -20.854  0.00  0.00    +0.038 C 
ATOM     28  C   UNL     1      33.146 -13.248 -23.323  0.00  0.00    +0.154 C 
ATOM     29  C   UNL     1      33.027 -13.204 -20.910  0.00  0.00    +0.017 C 
ATOM     30  C   UNL     1      32.729 -12.628 -22.144  0.00  0.00    +0.085 C 
ENDBRANCH  22  25
ENDBRANCH  21  22
ENDBRANCH  17  21
ENDBRANCH   3  17
TORSDOF 8
ENDMDL
MODEL 3
REMARK VINA RESULT:     -11.2      5.337      9.975
REMARK  Name = 24892822
REMARK  8 active torsions:
REMARK  status: ('A' for Active; 'I' for Inactive)
REMARK    1  A    between atoms: N_2  and  C_5
REMARK    2  A    between atoms: C_3  and  C_17
REMARK    3  A    between atoms: C_7  and  C_14
REMARK    4  A    between atoms: C_9  and  C_16
REMARK    5  A    between atoms: C_17  and  O_19
REMARK    6  A    between atoms: C_17  and  C_21
REMARK    7  A    between atoms: C_21  and  O_22
REMARK    8  A    between atoms: O_22  and  C_25
REMARK                            x       y       z     vdW  Elec       q    Type
REMARK                         _______ _______ _______ _____ _____    ______ ____
ROOT
ATOM      1  O   UNL     1      32.138 -21.134 -18.645  0.00  0.00    -0.272 OA
ATOM      2  N   UNL     1      33.604 -22.408 -17.340  0.00  0.00    -0.282 N 
ATOM      3  C   UNL     1      33.240 -21.637 -18.438  0.00  0.00    +0.254 C 
ATOM      4  H   UNL     1      34.532 -22.737 -17.329  0.00  0.00    +0.155 HD
ENDROOT
BRANCH   2   5
ATOM      5  C   UNL     1      32.798 -22.779 -16.236  0.00  0.00    +0.050 C 
ATOM      6  C   UNL     1      31.415 -22.613 -16.296  0.00  0.00    +0.019 C 
ATOM      7  C   UNL     1      30.621 -22.979 -15.208  0.00  0.00    +0.082 C 
ATOM      8  C   UNL     1      33.389 -23.309 -15.090  0.00  0.00    +0.015 C 
ATOM      9  C   UNL     1      31.212 -23.509 -14.062  0.00  0.00    +0.072 C 
ATOM     10  C   UNL     1      32.595 -23.675 -14.002  0.00  0.00    +0.011 C 
BRANCH   7  14
ATOM     11  F   UNL     1      28.428 -23.913 -15.008  0.00  0.00    -0.166 F 
ATOM     12  F   UNL     1      28.660 -21.823 -14.473  0.00  0.00    -0.166 F 
ATOM     13  F   UNL     1      28.746 -22.424 -16.561  0.00  0.00    -0.166 F 
ATOM     14  C   UNL     1      29.141 -22.789 -15.308  0.00  0.00    +0.419 C 
ENDBRANCH   7  14
BRANCH   9  16
ATOM     15  N   UNL     1      29.774 -24.204 -12.020  0.00  0.00    -0.191 NA
ATOM     16  C   UNL     1      30.419 -23.893 -12.934  0.00  0.00    +0.100 C 
ENDBRANCH   9  16
ENDBRANCH   2   5
BRANCH   3  17
ATOM     17  C   UNL     1      34.392 -21.446 -19.443  0.00  0.00    +0.197 C 
ATOM     18  C   UNL     1      35.667 -20.984 -18.732  0.00  0.00    +0.043 C 
BRANCH  17  19
ATOM     19  O   UNL     1      34.660 -22.716 -20.036  0.00  0.00    -0.375 OA
ATOM     20  H   UNL     1      33.835 -23.093 -20.380  0.00  0.00    +0.211 HD
ENDBRANCH  17  19
BRANCH  17  21
ATOM     21  C   UNL     1      34.027 -20.481 -20.578  0.00  0.00    +0.241 C 
BRANCH  21  22
ATOM     22  O   UNL     1      34.811 -19.294 -20.510  0.00  0.00    -0.472 OA
BRANCH  22  25
ATOM     23 CL   UNL     1      33.918 -15.293 -24.726  0.00  0.00    -0.080 Cl
ATOM     24  F   UNL     1      33.423 -18.208 -24.926  0.00  0.00    -0.203 F 
ATOM     25  C   UNL     1      34.602 -18.363 -21.492  0.00  0.00    +0.141 C 
ATOM     26  C   UNL     1      34.110 -18.760 -22.736  0.00  0.00    +0.067 C 
ATOM     27  C   UNL     1      34.880 -17.018 -21.250  0.00  0.00    +0.038 C 
ATOM     28  C   UNL     1      33.896 -17.812 -23.736  0.00  0.00    +0.154 C 
ATOM     29  C   UNL     1      34.667 -16.070 -22.251  0.00  0.00    +0.017 C 
ATOM     30  C   UNL     1      34.176 -16.467 -23.494  0.00  0.00    +0.085 C 
ENDBRANCH  22  25
ENDBRANCH  21  22
ENDBRANCH  17  21
ENDBRANCH   3  17
TORSDOF 8
ENDMDL
MODEL 4
REMARK VINA RESULT:     -11.1      1.568      2.121
REMARK  Name = 24892822
REMARK  8 active torsions:
REMARK  status: ('A' for Active; 'I' for Inactive)
REMARK    1  A    between atoms: N_2  and  C_5
REMARK    2  A    between atoms: C_3  and  C_17
REMARK    3  A    between atoms: C_7  and  C_14
REMARK    4  A    between atoms: C_9  and  C_16
REMARK    5  A    between atoms: C_17  and  O_19
REMARK    6  A    between atoms: C_17  and  C_21
REMARK    7  A    between atoms: C_21  and  O_22
REMARK    8  A    between atoms: O_22  and  C_25
REMARK                            x       y       z     vdW  Elec       q    Type
REMARK                         _______ _______ _______ _____ _____    ______ ____
ROOT
ATOM      1  O   UNL     1      34.927 -16.782 -20.071  0.00  0.00    -0.272 OA
ATOM      2  N   UNL     1      34.435 -16.053 -22.241  0.00  0.00    -0.282 N 
ATOM      3  C   UNL     1      34.950 -16.928 -21.292  0.00  0.00    +0.254 C 
ATOM      4  H   UNL     1      34.538 -16.322 -23.182  0.00  0.00    +0.155 HD
ENDROOT
BRANCH   2   5
ATOM      5  C   UNL     1      33.781 -14.817 -22.014  0.00  0.00    +0.050 C 
ATOM      6  C   UNL     1      33.717 -13.864 -23.029  0.00  0.00    +0.019 C 
ATOM      7  C   UNL     1      33.072 -12.647 -22.805  0.00  0.00    +0.082 C 
ATOM      8  C   UNL     1      33.200 -14.555 -20.773  0.00  0.00    +0.015 C 
ATOM      9  C   UNL     1      32.491 -12.385 -21.564  0.00  0.00    +0.072 C 
ATOM     10  C   UNL     1      32.554 -13.338 -20.549  0.00  0.00    +0.011 C 
BRANCH   7  14
ATOM     11  F   UNL     1      31.887 -10.891 -23.917  0.00  0.00    -0.166 F 
ATOM     12  F   UNL     1      34.052 -10.756 -23.892  0.00  0.00    -0.166 F 
ATOM     13  F   UNL     1      33.072 -12.237 -25.146  0.00  0.00    -0.166 F 
ATOM     14  C   UNL     1      33.022 -11.650 -23.917  0.00  0.00    +0.419 C 
ENDBRANCH   7  14
BRANCH   9  16
ATOM     15  N   UNL     1      31.279 -10.141 -21.106  0.00  0.00    -0.191 NA
ATOM     16  C   UNL     1      31.822 -11.146 -21.311  0.00  0.00    +0.100 C 
ENDBRANCH   9  16
ENDBRANCH   2   5
BRANCH   3  17
ATOM     17  C   UNL     1      35.595 -18.178 -21.920  0.00  0.00    +0.197 C 
ATOM     18  C   UNL     1      34.829 -18.619 -23.170  0.00  0.00    +0.043 C 
BRANCH  17  19
ATOM     19  O   UNL     1      36.918 -17.824 -22.322  0.00  0.00    -0.375 OA
ATOM     20  H   UNL     1      37.374 -17.389 -21.584  0.00  0.00    +0.211 HD
ENDBRANCH  17  19
BRANCH  17  21
ATOM     21  C   UNL     1      35.718 -19.339 -20.925  0.00  0.00    +0.241 C 
BRANCH  21  22
ATOM     22  O   UNL     1      34.475 -20.020 -20.779  0.00  0.00    -0.472 OA
BRANCH  22  25
ATOM     23 CL   UNL     1      33.777 -23.230 -15.902  0.00  0.00    -0.080 Cl
ATOM     24  F   UNL     1      36.311 -22.052 -16.892  0.00  0.00    -0.203 F 
ATOM     25  C   UNL     1      34.314 -20.766 -19.643  0.00  0.00    +0.141 C 
ATOM     26  C   UNL     1      35.411 -21.039 -18.826  0.00  0.00    +0.067 C 
ATOM     27  C   UNL     1      33.053 -21.255 -19.302  0.00  0.00    +0.038 C 
ATOM     28  C   UNL     1      35.247 -21.799 -17.667  0.00  0.00    +0.154 C 
ATOM     29  C   UNL     1      32.888 -22.016 -18.144  0.00  0.00    +0.017 C 
ATOM     30  C   UNL     1      33.986 -22.288 -17.328  0.00  0.00    +0.085 C 
ENDBRANCH  22  25
ENDBRANCH  21  22
ENDBRANCH  17  21
ENDBRANCH   3  17
TORSDOF 8
ENDMDL
MODEL 5
REMARK VINA RESULT:     -10.9      4.761      7.308
REMARK  Name = 24892822
REMARK  8 active torsions:
REMARK  status: ('A' for Active; 'I' for Inactive)
REMARK    1  A    between atoms: N_2  and  C_5
REMARK    2  A    between atoms: C_3  and  C_17
REMARK    3  A    between atoms: C_7  and  C_14
REMARK    4  A    between atoms: C_9  and  C_16
REMARK    5  A    between atoms: C_17  and  O_19
REMARK    6  A    between atoms: C_17  and  C_21
REMARK    7  A    between atoms: C_21  and  O_22
REMARK    8  A    between atoms: O_22  and  C_25
REMARK                            x       y       z     vdW  Elec       q    Type
REMARK                         _______ _______ _______ _____ _____    ______ ____
ROOT
ATOM      1  O   UNL     1      33.143 -10.411 -23.472  0.00  0.00    -0.272 OA
ATOM      2  N   UNL     1      31.341  -9.837 -22.092  0.00  0.00    -0.282 N 
ATOM      3  C   UNL     1      32.305 -10.690 -22.616  0.00  0.00    +0.254 C 
ATOM      4  H   UNL     1      30.744 -10.222 -21.410  0.00  0.00    +0.155 HD
ENDROOT
BRANCH   2   5
ATOM      5  C   UNL     1      31.113  -8.479 -22.426  0.00  0.00    +0.050 C 
ATOM      6  C   UNL     1      31.317  -7.483 -21.472  0.00  0.00    +0.019 C 
ATOM      7  C   UNL     1      31.093  -6.145 -21.802  0.00  0.00    +0.082 C 
ATOM      8  C   UNL     1      30.686  -8.140 -23.710  0.00  0.00    +0.015 C 
ATOM      9  C   UNL     1      30.666  -5.806 -23.086  0.00  0.00    +0.072 C 
ATOM     10  C   UNL     1      30.462  -6.803 -24.040  0.00  0.00    +0.011 C 
BRANCH   7  14
ATOM     11  F   UNL     1      32.147  -4.095 -21.163  0.00  0.00    -0.166 F 
ATOM     12  F   UNL     1      30.178  -4.487 -20.341  0.00  0.00    -0.166 F 
ATOM     13  F   UNL     1      31.895  -5.615 -19.628  0.00  0.00    -0.166 F 
ATOM     14  C   UNL     1      31.323  -5.103 -20.755  0.00  0.00    +0.419 C 
ENDBRANCH   7  14
BRANCH   9  16
ATOM     15  N   UNL     1      30.240  -3.336 -23.742  0.00  0.00    -0.191 NA
ATOM     16  C   UNL     1      30.431  -4.442 -23.449  0.00  0.00    +0.100 C 
ENDBRANCH   9  16
ENDBRANCH   2   5
BRANCH   3  17
ATOM     17  C   UNL     1      32.247 -12.104 -22.006  0.00  0.00    +0.197 C 
ATOM     18  C   UNL     1      31.693 -12.061 -20.579  0.00  0.00    +0.043 C 
BRANCH  17  19
ATOM     19  O   UNL     1      31.347 -12.877 -22.800  0.00  0.00    -0.375 OA
ATOM     20  H   UNL     1      30.436 -12.707 -22.514  0.00  0.00    +0.211 HD
ENDBRANCH  17  19
BRANCH  17  21
ATOM     21  C   UNL     1      33.606 -12.814 -22.037  0.00  0.00    +0.241 C 
BRANCH  21  22
ATOM     22  O   UNL     1      33.806 -13.477 -23.281  0.00  0.00    -0.472 OA
BRANCH  22  25
ATOM     23 CL   UNL     1      34.565 -19.305 -23.080  0.00  0.00    -0.080 Cl
ATOM     24  F   UNL     1      35.092 -17.380 -20.889  0.00  0.00    -0.203 F 
ATOM     25  C   UNL     1      33.982 -14.834 -23.233  0.00  0.00    +0.141 C 
ATOM     26  C   UNL     1      34.457 -15.434 -22.067  0.00  0.00    +0.067 C 
ATOM     27  C   UNL     1      33.688 -15.616 -24.350  0.00  0.00    +0.038 C 
ATOM     28  C   UNL     1      34.636 -16.817 -22.016  0.00  0.00    +0.154 C 
ATOM     29  C   UNL     1      33.868 -16.999 -24.300  0.00  0.00    +0.017 C 
ATOM     30  C   UNL     1      34.342 -17.599 -23.134  0.00  0.00    +0.085 C 
ENDBRANCH  22  25
ENDBRANCH  21  22
ENDBRANCH  17  21
ENDBRANCH   3  17
TORSDOF 8
ENDMDL
MODEL 6
REMARK VINA RESULT:     -10.8      4.866     10.774
REMARK  Name = 24892822
REMARK  8 active torsions:
REMARK  status: ('A' for Active; 'I' for Inactive)
REMARK    1  A    between atoms: N_2  and  C_5
REMARK    2  A    between atoms: C_3  and  C_17
REMARK    3  A    between atoms: C_7  and  C_14
REMARK    4  A    between atoms: C_9  and  C_16
REMARK    5  A    between atoms: C_17  and  O_19
REMARK    6  A    between atoms: C_17  and  C_21
REMARK    7  A    between atoms: C_21  and  O_22
REMARK    8  A    between atoms: O_22  and  C_25
REMARK                            x       y       z     vdW  Elec       q    Type
REMARK                         _______ _______ _______ _____ _____    ______ ____
ROOT
ATOM      1  O   UNL     1      35.991 -21.288 -17.383  0.00  0.00    -0.272 OA
ATOM      2  N   UNL     1      34.088 -22.558 -16.888  0.00  0.00    -0.282 N 
ATOM      3  C   UNL     1      34.903 -21.771 -17.692  0.00  0.00    +0.254 C 
ATOM      4  H   UNL     1      33.244 -22.865 -17.292  0.00  0.00    +0.155 HD
ENDROOT
BRANCH   2   5
ATOM      5  C   UNL     1      34.326 -22.971 -15.554  0.00  0.00    +0.050 C 
ATOM      6  C   UNL     1      35.609 -23.348 -15.159  0.00  0.00    +0.019 C 
ATOM      7  C   UNL     1      35.844 -23.754 -13.845  0.00  0.00    +0.082 C 
ATOM      8  C   UNL     1      33.277 -22.998 -14.635  0.00  0.00    +0.015 C 
ATOM      9  C   UNL     1      34.794 -23.781 -12.926  0.00  0.00    +0.072 C 
ATOM     10  C   UNL     1      33.511 -23.403 -13.321  0.00  0.00    +0.011 C 
BRANCH   7  14
ATOM     11  F   UNL     1      37.735 -23.421 -12.418  0.00  0.00    -0.166 F 
ATOM     12  F   UNL     1      37.335 -25.453 -13.064  0.00  0.00    -0.166 F 
ATOM     13  F   UNL     1      38.121 -24.000 -14.478  0.00  0.00    -0.166 F 
ATOM     14  C   UNL     1      37.232 -24.150 -13.456  0.00  0.00    +0.419 C 
ENDBRANCH   7  14
BRANCH   9  16
ATOM     15  N   UNL     1      35.184 -24.522 -10.474  0.00  0.00    -0.191 NA
ATOM     16  C   UNL     1      35.010 -24.191 -11.572  0.00  0.00    +0.100 C 
ENDBRANCH   9  16
ENDBRANCH   2   5
BRANCH   3  17
ATOM     17  C   UNL     1      34.308 -21.531 -19.093  0.00  0.00    +0.197 C 
ATOM     18  C   UNL     1      33.795 -22.838 -19.701  0.00  0.00    +0.043 C 
BRANCH  17  19
ATOM     19  O   UNL     1      33.192 -20.654 -18.941  0.00  0.00    -0.375 OA
ATOM     20  H   UNL     1      32.465 -20.953 -19.509  0.00  0.00    +0.211 HD
ENDBRANCH  17  19
BRANCH  17  21
ATOM     21  C   UNL     1      35.298 -20.845 -20.043  0.00  0.00    +0.241 C 
BRANCH  21  22
ATOM     22  O   UNL     1      35.240 -19.429 -19.905  0.00  0.00    -0.472 OA
BRANCH  22  25
ATOM     23 CL   UNL     1      33.786 -16.371 -24.713  0.00  0.00    -0.080 Cl
ATOM     24  F   UNL     1      34.818 -15.266 -22.164  0.00  0.00    -0.203 F 
ATOM     25  C   UNL     1      34.902 -18.716 -21.024  0.00  0.00    +0.141 C 
ATOM     26  C   UNL     1      35.031 -17.327 -21.031  0.00  0.00    +0.067 C 
ATOM     27  C   UNL     1      34.430 -19.378 -22.157  0.00  0.00    +0.038 C 
ATOM     28  C   UNL     1      34.689 -16.600 -22.171  0.00  0.00    +0.154 C 
ATOM     29  C   UNL     1      34.086 -18.651 -23.297  0.00  0.00    +0.017 C 
ATOM     30  C   UNL     1      34.215 -17.263 -23.304  0.00  0.00    +0.085 C 
ENDBRANCH  22  25
ENDBRANCH  21  22
ENDBRANCH  17  21
ENDBRANCH   3  17
TORSDOF 8
ENDMDL
MODEL 7
REMARK VINA RESULT:     -10.6      3.863      9.176
REMARK  Name = 24892822
REMARK  8 active torsions:
REMARK  status: ('A' for Active; 'I' for Inactive)
REMARK    1  A    between atoms: N_2  and  C_5
REMARK    2  A    between atoms: C_3  and  C_17
REMARK    3  A    between atoms: C_7  and  C_14
REMARK    4  A    between atoms: C_9  and  C_16
REMARK    5  A    between atoms: C_17  and  O_19
REMARK    6  A    between atoms: C_17  and  C_21
REMARK    7  A    between atoms: C_21  and  O_22
REMARK    8  A    between atoms: O_22  and  C_25
REMARK                            x       y       z     vdW  Elec       q    Type
REMARK                         _______ _______ _______ _____ _____    ______ ____
ROOT
ATOM      1  O   UNL     1      36.017 -18.308 -20.590  0.00  0.00    -0.272 OA
ATOM      2  N   UNL     1      34.417 -20.015 -20.666  0.00  0.00    -0.282 N 
ATOM      3  C   UNL     1      35.092 -18.898 -21.145  0.00  0.00    +0.254 C 
ATOM      4  H   UNL     1      33.696 -20.365 -21.238  0.00  0.00    +0.155 HD
ENDROOT
BRANCH   2   5
ATOM      5  C   UNL     1      34.642 -20.708 -19.452  0.00  0.00    +0.050 C 
ATOM      6  C   UNL     1      33.580 -21.325 -18.792  0.00  0.00    +0.019 C 
ATOM      7  C   UNL     1      33.803 -22.008 -17.596  0.00  0.00    +0.082 C 
ATOM      8  C   UNL     1      35.929 -20.773 -18.916  0.00  0.00    +0.015 C 
ATOM      9  C   UNL     1      35.090 -22.073 -17.061  0.00  0.00    +0.072 C 
ATOM     10  C   UNL     1      36.152 -21.456 -17.720  0.00  0.00    +0.011 C 
BRANCH   7  14
ATOM     11  F   UNL     1      32.669 -24.022 -16.981  0.00  0.00    -0.166 F 
ATOM     12  F   UNL     1      32.552 -22.362 -15.589  0.00  0.00    -0.166 F 
ATOM     13  F   UNL     1      31.447 -22.288 -17.461  0.00  0.00    -0.166 F 
ATOM     14  C   UNL     1      32.641 -22.659 -16.918  0.00  0.00    +0.419 C 
ENDBRANCH   7  14
BRANCH   9  16
ATOM     15  N   UNL     1      35.551 -23.332 -14.844  0.00  0.00    -0.191 NA
ATOM     16  C   UNL     1      35.345 -22.769 -15.837  0.00  0.00    +0.100 C 
ENDBRANCH   9  16
ENDBRANCH   2   5
BRANCH   3  17
ATOM     17  C   UNL     1      34.562 -18.420 -22.511  0.00  0.00    +0.197 C 
ATOM     18  C   UNL     1      35.106 -19.294 -23.644  0.00  0.00    +0.043 C 
BRANCH  17  19
ATOM     19  O   UNL     1      33.142 -18.561 -22.495  0.00  0.00    -0.375 OA
ATOM     20  H   UNL     1      32.743 -17.876 -23.053  0.00  0.00    +0.211 HD
ENDBRANCH  17  19
BRANCH  17  21
ATOM     21  C   UNL     1      34.870 -16.941 -22.775  0.00  0.00    +0.241 C 
BRANCH  21  22
ATOM     22  O   UNL     1      34.567 -16.145 -21.634  0.00  0.00    -0.472 OA
BRANCH  22  25
ATOM     23 CL   UNL     1      32.097 -10.907 -22.654  0.00  0.00    -0.080 Cl
ATOM     24  F   UNL     1      32.221 -12.323 -20.053  0.00  0.00    -0.203 F 
ATOM     25  C   UNL     1      33.993 -14.925 -21.870  0.00  0.00    +0.141 C 
ATOM     26  C   UNL     1      33.385 -14.226 -20.826  0.00  0.00    +0.067 C 
ATOM     27  C   UNL     1      34.014 -14.380 -23.153  0.00  0.00    +0.038 C 
ATOM     28  C   UNL     1      32.800 -12.983 -21.066  0.00  0.00    +0.154 C 
ATOM     29  C   UNL     1      33.428 -13.137 -23.394  0.00  0.00    +0.017 C 
ATOM     30  C   UNL     1      32.821 -12.439 -22.350  0.00  0.00    +0.085 C 
ENDBRANCH  22  25
ENDBRANCH  21  22
ENDBRANCH  17  21
ENDBRANCH   3  17
TORSDOF 8
ENDMDL
MODEL 8
REMARK VINA RESULT:     -10.5      4.534      6.823
REMARK  Name = 24892822
REMARK  8 active torsions:
REMARK  status: ('A' for Active; 'I' for Inactive)
REMARK    1  A    between atoms: N_2  and  C_5
REMARK    2  A    between atoms: C_3  and  C_17
REMARK    3  A    between atoms: C_7  and  C_14
REMARK    4  A    between atoms: C_9  and  C_16
REMARK    5  A    between atoms: C_17  and  O_19
REMARK    6  A    between atoms: C_17  and  C_21
REMARK    7  A    between atoms: C_21  and  O_22
REMARK    8  A    between atoms: O_22  and  C_25
REMARK                            x       y       z     vdW  Elec       q    Type
REMARK                         _______ _______ _______ _____ _____    ______ ____
ROOT
ATOM      1  O   UNL     1      33.653 -10.743 -23.639  0.00  0.00    -0.272 OA
ATOM      2  N   UNL     1      31.768 -10.498 -22.272  0.00  0.00    -0.282 N 
ATOM      3  C   UNL     1      32.752 -11.212 -22.946  0.00  0.00    +0.254 C 
ATOM      4  H   UNL     1      31.118 -11.031 -21.759  0.00  0.00    +0.155 HD
ENDROOT
BRANCH   2   5
ATOM      5  C   UNL     1      31.590  -9.093 -22.236  0.00  0.00    +0.050 C 
ATOM      6  C   UNL     1      31.425  -8.380 -23.423  0.00  0.00    +0.019 C 
ATOM      7  C   UNL     1      31.249  -6.997 -23.388  0.00  0.00    +0.082 C 
ATOM      8  C   UNL     1      31.579  -8.423 -21.013  0.00  0.00    +0.015 C 
ATOM      9  C   UNL     1      31.238  -6.327 -22.164  0.00  0.00    +0.072 C 
ATOM     10  C   UNL     1      31.403  -7.039 -20.977  0.00  0.00    +0.011 C 
BRANCH   7  14
ATOM     11  F   UNL     1      32.171  -5.542 -25.048  0.00  0.00    -0.166 F 
ATOM     12  F   UNL     1      30.813  -7.087 -25.738  0.00  0.00    -0.166 F 
ATOM     13  F   UNL     1      30.042  -5.376 -24.640  0.00  0.00    -0.166 F 
ATOM     14  C   UNL     1      31.074  -6.266 -24.680  0.00  0.00    +0.419 C 
ENDBRANCH   7  14
BRANCH   9  16
ATOM     15  N   UNL     1      30.909  -3.759 -22.051  0.00  0.00    -0.191 NA
ATOM     16  C   UNL     1      31.057  -4.909 -22.102  0.00  0.00    +0.100 C 
ENDBRANCH   9  16
ENDBRANCH   2   5
BRANCH   3  17
ATOM     17  C   UNL     1      32.624 -12.735 -22.749  0.00  0.00    +0.197 C 
ATOM     18  C   UNL     1      31.843 -13.058 -21.473  0.00  0.00    +0.043 C 
BRANCH  17  19
ATOM     19  O   UNL     1      31.884 -13.251 -23.856  0.00  0.00    -0.375 OA
ATOM     20  H   UNL     1      32.035 -12.692 -24.634  0.00  0.00    +0.211 HD
ENDBRANCH  17  19
BRANCH  17  21
ATOM     21  C   UNL     1      33.985 -13.443 -22.743  0.00  0.00    +0.241 C 
BRANCH  21  22
ATOM     22  O   UNL     1      33.958 -14.607 -23.565  0.00  0.00    -0.472 OA
BRANCH  22  25
ATOM     23 CL   UNL     1      34.959 -19.745 -20.886  0.00  0.00    -0.080 Cl
ATOM     24  F   UNL     1      34.207 -19.352 -23.726  0.00  0.00    -0.203 F 
ATOM     25  C   UNL     1      34.192 -15.803 -22.942  0.00  0.00    +0.141 C 
ATOM     26  C   UNL     1      34.080 -16.995 -23.659  0.00  0.00    +0.067 C 
ATOM     27  C   UNL     1      34.542 -15.832 -21.593  0.00  0.00    +0.038 C 
ATOM     28  C   UNL     1      34.319 -18.215 -23.025  0.00  0.00    +0.154 C 
ATOM     29  C   UNL     1      34.780 -17.051 -20.959  0.00  0.00    +0.017 C 
ATOM     30  C   UNL     1      34.668 -18.242 -21.675  0.00  0.00    +0.085 C 
ENDBRANCH  22  25
ENDBRANCH  21  22
ENDBRANCH  17  21
ENDBRANCH   3  17
TORSDOF 8
ENDMDL
MODEL 9
REMARK VINA RESULT:     -10.3      4.354      9.740
REMARK  Name = 24892822
REMARK  8 active torsions:
REMARK  status: ('A' for Active; 'I' for Inactive)
REMARK    1  A    between atoms: N_2  and  C_5
REMARK    2  A    between atoms: C_3  and  C_17
REMARK    3  A    between atoms: C_7  and  C_14
REMARK    4  A    between atoms: C_9  and  C_16
REMARK    5  A    between atoms: C_17  and  O_19
REMARK    6  A    between atoms: C_17  and  C_21
REMARK    7  A    between atoms: C_21  and  O_22
REMARK    8  A    between atoms: O_22  and  C_25
REMARK                            x       y       z     vdW  Elec       q    Type
REMARK                         _______ _______ _______ _____ _____    ______ ____
ROOT
ATOM      1  O   UNL     1      34.405 -21.385 -20.269  0.00  0.00    -0.272 OA
ATOM      2  N   UNL     1      35.829 -20.165 -18.867  0.00  0.00    -0.282 N 
ATOM      3  C   UNL     1      35.098 -20.399 -20.026  0.00  0.00    +0.254 C 
ATOM      4  H   UNL     1      36.333 -19.320 -18.834  0.00  0.00    +0.155 HD
ENDROOT
BRANCH   2   5
ATOM      5  C   UNL     1      35.937 -21.001 -17.728  0.00  0.00    +0.050 C 
ATOM      6  C   UNL     1      34.829 -21.722 -17.285  0.00  0.00    +0.019 C 
ATOM      7  C   UNL     1      34.935 -22.545 -16.163  0.00  0.00    +0.082 C 
ATOM      8  C   UNL     1      37.152 -21.101 -17.051  0.00  0.00    +0.015 C 
ATOM      9  C   UNL     1      36.151 -22.646 -15.486  0.00  0.00    +0.072 C 
ATOM     10  C   UNL     1      37.258 -21.925 -15.929  0.00  0.00    +0.011 C 
BRANCH   7  14
ATOM     11  F   UNL     1      33.981 -24.617 -15.444  0.00  0.00    -0.166 F 
ATOM     12  F   UNL     1      33.160 -22.804 -14.582  0.00  0.00    -0.166 F 
ATOM     13  F   UNL     1      32.738 -23.307 -16.655  0.00  0.00    -0.166 F 
ATOM     14  C   UNL     1      33.727 -23.304 -15.717  0.00  0.00    +0.419 C 
ENDBRANCH   7  14
BRANCH   9  16
ATOM     15  N   UNL     1      36.396 -24.165 -13.402  0.00  0.00    -0.191 NA
ATOM     16  C   UNL     1      36.285 -23.484 -14.334  0.00  0.00    +0.100 C 
ENDBRANCH   9  16
ENDBRANCH   2   5
BRANCH   3  17
ATOM     17  C   UNL     1      35.225 -19.257 -21.053  0.00  0.00    +0.197 C 
ATOM     18  C   UNL     1      36.649 -18.696 -21.073  0.00  0.00    +0.043 C 
BRANCH  17  19
ATOM     19  O   UNL     1      34.955 -19.807 -22.342  0.00  0.00    -0.375 OA
ATOM     20  H   UNL     1      35.617 -19.487 -22.975  0.00  0.00    +0.211 HD
ENDBRANCH  17  19
BRANCH  17  21
ATOM     21  C   UNL     1      34.206 -18.135 -20.814  0.00  0.00    +0.241 C 
BRANCH  21  22
ATOM     22  O   UNL     1      34.858 -16.877 -20.668  0.00  0.00    -0.472 OA
BRANCH  22  25
ATOM     23 CL   UNL     1      32.985 -12.511 -24.132  0.00  0.00    -0.080 Cl
ATOM     24  F   UNL     1      33.960 -15.168 -25.012  0.00  0.00    -0.203 F 
ATOM     25  C   UNL     1      34.421 -15.862 -21.475  0.00  0.00    +0.141 C 
ATOM     26  C   UNL     1      34.411 -16.028 -22.860  0.00  0.00    +0.067 C 
ATOM     27  C   UNL     1      33.987 -14.661 -20.914  0.00  0.00    +0.038 C 
ATOM     28  C   UNL     1      33.965 -14.994 -23.684  0.00  0.00    +0.154 C 
ATOM     29  C   UNL     1      33.541 -13.626 -21.737  0.00  0.00    +0.017 C 
ATOM     30  C   UNL     1      33.531 -13.793 -23.121  0.00  0.00    +0.085 C 
ENDBRANCH  22  25
ENDBRANCH  21  22
ENDBRANCH  17  21
ENDBRANCH   3  17
TORSDOF 8
ENDMDL
