MODEL 1
REMARK VINA RESULT:     -11.8      0.000      0.000
REMARK  Name = 24894158
REMARK  7 active torsions:
REMARK  status: ('A' for Active; 'I' for Inactive)
REMARK    1  A    between atoms: C_5  and  N_22
REMARK    2  A    between atoms: C_12  and  C_15
REMARK    3  A    between atoms: C_23  and  C_25
REMARK    4  A    between atoms: C_25  and  C_27
REMARK    5  A    between atoms: C_25  and  C_33
REMARK    6  A    between atoms: C_33  and  C_34
REMARK    7  A    between atoms: C_34  and  N_35
REMARK                            x       y       z     vdW  Elec       q    Type
REMARK                         _______ _______ _______ _____ _____    ______ ____
ROOT
ATOM      1  O   UNL     1      31.216 -23.695 -14.671  0.00  0.00    -0.270 OA
ATOM      2  N   UNL     1      35.130 -22.891 -16.091  0.00  0.00    -0.275 N 
ATOM      3  N   UNL     1      33.864 -23.124 -15.706  0.00  0.00    -0.157 NA
ATOM      4  N   UNL     1      31.758 -22.429 -16.580  0.00  0.00    -0.264 N 
ATOM      5  C   UNL     1      34.811 -20.513 -19.414  0.00  0.00    +0.050 C 
ATOM      6  C   UNL     1      33.936 -21.797 -17.570  0.00  0.00    +0.052 A 
ATOM      7  C   UNL     1      35.242 -22.102 -17.204  0.00  0.00    +0.077 A 
ATOM      8  C   UNL     1      33.707 -20.987 -18.694  0.00  0.00    +0.019 C 
ATOM      9  C   UNL     1      36.113 -20.835 -19.024  0.00  0.00    +0.016 C 
ATOM     10  C   UNL     1      33.140 -22.456 -16.607  0.00  0.00    +0.155 A 
ATOM     11  C   UNL     1      36.357 -21.640 -17.907  0.00  0.00    +0.020 C 
ATOM     12  C   UNL     1      30.890 -23.028 -15.647  0.00  0.00    +0.251 C 
ATOM     13  H   UNL     1      35.910 -23.257 -15.614  0.00  0.00    +0.189 HD
ATOM     14  H   UNL     1      31.326 -21.925 -17.306  0.00  0.00    +0.157 HD
ENDROOT
BRANCH  12  15
ATOM     15  C   UNL     1      29.439 -22.795 -15.871  0.00  0.00    +0.054 C 
ATOM     16  C   UNL     1      28.733 -21.933 -15.031  0.00  0.00    +0.005 C 
ATOM     17  C   UNL     1      28.784 -23.437 -16.923  0.00  0.00    +0.005 C 
ATOM     18  C   UNL     1      27.371 -21.715 -15.243  0.00  0.00    +0.000 C 
ATOM     19  C   UNL     1      27.422 -23.218 -17.133  0.00  0.00    +0.000 C 
ATOM     20  C   UNL     1      26.716 -22.356 -16.293  0.00  0.00    +0.000 C 
ENDBRANCH  12  15
BRANCH   5  22
ATOM     21  O   UNL     1      36.478 -18.283 -20.526  0.00  0.00    -0.274 OA
ATOM     22  N   UNL     1      34.603 -19.696 -20.549  0.00  0.00    -0.284 N 
ATOM     23  C   UNL     1      35.423 -18.673 -21.020  0.00  0.00    +0.230 C 
ATOM     24  H   UNL     1      33.785 -19.871 -21.066  0.00  0.00    +0.155 HD
BRANCH  23  25
ATOM     25  C   UNL     1      34.840 -18.027 -22.286  0.00  0.00    +0.097 C 
BRANCH  25  27
ATOM     26 CL   UNL     1      33.595 -13.295 -24.117  0.00  0.00    -0.082 Cl
ATOM     27  C   UNL     1      34.443 -16.586 -22.008  0.00  0.00    -0.013 C 
ATOM     28  C   UNL     1      34.225 -15.706 -23.067  0.00  0.00    +0.008 C 
ATOM     29  C   UNL     1      34.299 -16.145 -20.692  0.00  0.00    -0.004 C 
ATOM     30  C   UNL     1      33.863 -14.383 -22.811  0.00  0.00    +0.057 C 
ATOM     31  C   UNL     1      33.936 -14.823 -20.436  0.00  0.00    +0.001 C 
ATOM     32  C   UNL     1      33.718 -13.942 -21.495  0.00  0.00    +0.011 C 
ENDBRANCH  25  27
BRANCH  25  33
ATOM     33  C   UNL     1      33.671 -18.875 -22.835  0.00  0.00    -0.010 C 
BRANCH  33  34
ATOM     34  C   UNL     1      33.574 -18.829 -24.363  0.00  0.00    -0.085 C 
BRANCH  34  35
ATOM     35  N   UNL     1      32.284 -18.284 -24.770  0.00  0.00    +0.380 N 
ATOM     36  H   UNL     1      31.738 -18.048 -23.941  0.00  0.00    -0.089 HD
ATOM     37  H   UNL     1      31.780 -18.979 -25.322  0.00  0.00    -0.089 HD
ATOM     38  H   UNL     1      32.431 -17.445 -25.331  0.00  0.00    -0.089 HD
ENDBRANCH  34  35
ENDBRANCH  33  34
ENDBRANCH  25  33
ENDBRANCH  23  25
ENDBRANCH   5  22
TORSDOF 7
ENDMDL
MODEL 2
REMARK VINA RESULT:     -10.7      7.467     13.425
REMARK  Name = 24894158
REMARK  7 active torsions:
REMARK  status: ('A' for Active; 'I' for Inactive)
REMARK    1  A    between atoms: C_5  and  N_22
REMARK    2  A    between atoms: C_12  and  C_15
REMARK    3  A    between atoms: C_23  and  C_25
REMARK    4  A    between atoms: C_25  and  C_27
REMARK    5  A    between atoms: C_25  and  C_33
REMARK    6  A    between atoms: C_33  and  C_34
REMARK    7  A    between atoms: C_34  and  N_35
REMARK                            x       y       z     vdW  Elec       q    Type
REMARK                         _______ _______ _______ _____ _____    ______ ____
ROOT
ATOM      1  O   UNL     1      32.404  -4.742 -22.761  0.00  0.00    -0.270 OA
ATOM      2  N   UNL     1      31.246  -7.830 -20.095  0.00  0.00    -0.275 N 
ATOM      3  N   UNL     1      31.608  -6.900 -20.995  0.00  0.00    -0.157 NA
ATOM      4  N   UNL     1      32.397  -7.048 -23.239  0.00  0.00    -0.264 N 
ATOM      5  C   UNL     1      31.752 -11.417 -22.011  0.00  0.00    +0.050 C 
ATOM      6  C   UNL     1      31.812  -9.012 -21.853  0.00  0.00    +0.052 A 
ATOM      7  C   UNL     1      31.344  -9.118 -20.548  0.00  0.00    +0.077 A 
ATOM      8  C   UNL     1      32.024 -10.179 -22.606  0.00  0.00    +0.019 C 
ATOM      9  C   UNL     1      31.283 -11.495 -20.698  0.00  0.00    +0.016 C 
ATOM     10  C   UNL     1      31.954  -7.623 -22.063  0.00  0.00    +0.155 A 
ATOM     11  C   UNL     1      31.068 -10.343 -19.935  0.00  0.00    +0.020 C 
ATOM     12  C   UNL     1      32.596  -5.683 -23.525  0.00  0.00    +0.251 C 
ATOM     13  H   UNL     1      30.935  -7.604 -19.188  0.00  0.00    +0.189 HD
ATOM     14  H   UNL     1      32.602  -7.674 -23.970  0.00  0.00    +0.157 HD
ENDROOT
BRANCH  12  15
ATOM     15  C   UNL     1      33.113  -5.376 -24.884  0.00  0.00    +0.054 C 
ATOM     16  C   UNL     1      32.432  -5.839 -26.011  0.00  0.00    +0.005 C 
ATOM     17  C   UNL     1      34.280  -4.625 -25.033  0.00  0.00    +0.005 C 
ATOM     18  C   UNL     1      32.919  -5.550 -27.286  0.00  0.00    +0.000 C 
ATOM     19  C   UNL     1      34.765  -4.337 -26.309  0.00  0.00    +0.000 C 
ATOM     20  C   UNL     1      34.084  -4.800 -27.436  0.00  0.00    +0.000 C 
ENDBRANCH  12  15
BRANCH   5  22
ATOM     21  O   UNL     1      34.278 -12.924 -22.593  0.00  0.00    -0.274 OA
ATOM     22  N   UNL     1      31.958 -12.606 -22.750  0.00  0.00    -0.284 N 
ATOM     23  C   UNL     1      33.164 -13.264 -22.981  0.00  0.00    +0.230 C 
ATOM     24  H   UNL     1      31.156 -13.015 -23.147  0.00  0.00    +0.155 HD
BRANCH  23  25
ATOM     25  C   UNL     1      32.958 -14.524 -23.836  0.00  0.00    +0.097 C 
BRANCH  25  27
ATOM     26 CL   UNL     1      34.362 -19.550 -24.087  0.00  0.00    -0.082 Cl
ATOM     27  C   UNL     1      33.669 -15.710 -23.204  0.00  0.00    -0.013 C 
ATOM     28  C   UNL     1      33.689 -16.941 -23.860  0.00  0.00    +0.008 C 
ATOM     29  C   UNL     1      34.298 -15.568 -21.968  0.00  0.00    -0.004 C 
ATOM     30  C   UNL     1      34.339 -18.031 -23.279  0.00  0.00    +0.057 C 
ATOM     31  C   UNL     1      34.949 -16.657 -21.387  0.00  0.00    +0.001 C 
ATOM     32  C   UNL     1      34.969 -17.888 -22.043  0.00  0.00    +0.011 C 
ENDBRANCH  25  27
BRANCH  25  33
ATOM     33  C   UNL     1      33.403 -14.266 -25.293  0.00  0.00    -0.010 C 
BRANCH  33  34
ATOM     34  C   UNL     1      32.633 -13.118 -25.951  0.00  0.00    -0.085 C 
BRANCH  34  35
ATOM     35  N   UNL     1      33.309 -12.693 -27.172  0.00  0.00    +0.380 N 
ATOM     36  H   UNL     1      34.300 -12.550 -26.980  0.00  0.00    -0.089 HD
ATOM     37  H   UNL     1      32.897 -11.820 -27.502  0.00  0.00    -0.089 HD
ATOM     38  H   UNL     1      33.202 -13.412 -27.888  0.00  0.00    -0.089 HD
ENDBRANCH  34  35
ENDBRANCH  33  34
ENDBRANCH  25  33
ENDBRANCH  23  25
ENDBRANCH   5  22
TORSDOF 7
ENDMDL
MODEL 3
REMARK VINA RESULT:     -10.7      1.737      2.222
REMARK  Name = 24894158
REMARK  7 active torsions:
REMARK  status: ('A' for Active; 'I' for Inactive)
REMARK    1  A    between atoms: C_5  and  N_22
REMARK    2  A    between atoms: C_12  and  C_15
REMARK    3  A    between atoms: C_23  and  C_25
REMARK    4  A    between atoms: C_25  and  C_27
REMARK    5  A    between atoms: C_25  and  C_33
REMARK    6  A    between atoms: C_33  and  C_34
REMARK    7  A    between atoms: C_34  and  N_35
REMARK                            x       y       z     vdW  Elec       q    Type
REMARK                         _______ _______ _______ _____ _____    ______ ____
ROOT
ATOM      1  O   UNL     1      32.624 -24.165 -13.005  0.00  0.00    -0.270 OA
ATOM      2  N   UNL     1      36.244 -22.570 -14.534  0.00  0.00    -0.275 N 
ATOM      3  N   UNL     1      35.070 -23.075 -14.118  0.00  0.00    -0.157 NA
ATOM      4  N   UNL     1      32.912 -23.179 -15.123  0.00  0.00    -0.264 N 
ATOM      5  C   UNL     1      35.484 -21.047 -18.262  0.00  0.00    +0.050 C 
ATOM      6  C   UNL     1      34.887 -22.156 -16.206  0.00  0.00    +0.052 A 
ATOM      7  C   UNL     1      36.202 -22.005 -15.780  0.00  0.00    +0.077 A 
ATOM      8  C   UNL     1      34.512 -21.669 -17.469  0.00  0.00    +0.019 C 
ATOM      9  C   UNL     1      36.798 -20.909 -17.809  0.00  0.00    +0.016 C 
ATOM     10  C   UNL     1      34.246 -22.819 -15.137  0.00  0.00    +0.155 A 
ATOM     11  C   UNL     1      37.186 -21.387 -16.554  0.00  0.00    +0.020 C 
ATOM     12  C   UNL     1      32.187 -23.813 -14.095  0.00  0.00    +0.251 C 
ATOM     13  H   UNL     1      37.063 -22.605 -13.990  0.00  0.00    +0.189 HD
ATOM     14  H   UNL     1      32.402 -22.963 -15.937  0.00  0.00    +0.157 HD
ENDROOT
BRANCH  12  15
ATOM     15  C   UNL     1      30.744 -24.045 -14.370  0.00  0.00    +0.054 C 
ATOM     16  C   UNL     1      30.045 -25.017 -13.653  0.00  0.00    +0.005 C 
ATOM     17  C   UNL     1      30.089 -23.291 -15.344  0.00  0.00    +0.005 C 
ATOM     18  C   UNL     1      28.692 -25.234 -13.911  0.00  0.00    +0.000 C 
ATOM     19  C   UNL     1      28.735 -23.509 -15.601  0.00  0.00    +0.000 C 
ATOM     20  C   UNL     1      28.037 -24.481 -14.884  0.00  0.00    +0.000 C 
ENDBRANCH  12  15
BRANCH   5  22
ATOM     21  O   UNL     1      36.551 -18.699 -19.793  0.00  0.00    -0.274 OA
ATOM     22  N   UNL     1      35.129 -20.549 -19.537  0.00  0.00    -0.284 N 
ATOM     23  C   UNL     1      35.670 -19.450 -20.201  0.00  0.00    +0.230 C 
ATOM     24  H   UNL     1      34.417 -21.036 -20.011  0.00  0.00    +0.155 HD
BRANCH  23  25
ATOM     25  C   UNL     1      35.006 -19.242 -21.571  0.00  0.00    +0.097 C 
BRANCH  25  27
ATOM     26 CL   UNL     1      34.122 -15.323 -24.911  0.00  0.00    -0.082 Cl
ATOM     27  C   UNL     1      34.724 -17.766 -21.801  0.00  0.00    -0.013 C 
ATOM     28  C   UNL     1      34.568 -17.280 -23.099  0.00  0.00    +0.008 C 
ATOM     29  C   UNL     1      34.623 -16.898 -20.714  0.00  0.00    -0.004 C 
ATOM     30  C   UNL     1      34.312 -15.925 -23.310  0.00  0.00    +0.057 C 
ATOM     31  C   UNL     1      34.365 -15.544 -20.924  0.00  0.00    +0.001 C 
ATOM     32  C   UNL     1      34.210 -15.057 -22.222  0.00  0.00    +0.011 C 
ENDBRANCH  25  27
BRANCH  25  33
ATOM     33  C   UNL     1      33.741 -20.120 -21.697  0.00  0.00    -0.010 C 
BRANCH  33  34
ATOM     34  C   UNL     1      32.620 -19.681 -20.750  0.00  0.00    -0.085 C 
BRANCH  34  35
ATOM     35  N   UNL     1      31.936 -20.847 -20.204  0.00  0.00    +0.380 N 
ATOM     36  H   UNL     1      31.220 -21.160 -20.860  0.00  0.00    -0.089 HD
ATOM     37  H   UNL     1      31.499 -20.600 -19.316  0.00  0.00    -0.089 HD
ATOM     38  H   UNL     1      32.610 -21.598 -20.055  0.00  0.00    -0.089 HD
ENDBRANCH  34  35
ENDBRANCH  33  34
ENDBRANCH  25  33
ENDBRANCH  23  25
ENDBRANCH   5  22
TORSDOF 7
ENDMDL
MODEL 4
REMARK VINA RESULT:     -10.2      9.109     13.582
REMARK  Name = 24894158
REMARK  7 active torsions:
REMARK  status: ('A' for Active; 'I' for Inactive)
REMARK    1  A    between atoms: C_5  and  N_22
REMARK    2  A    between atoms: C_12  and  C_15
REMARK    3  A    between atoms: C_23  and  C_25
REMARK    4  A    between atoms: C_25  and  C_27
REMARK    5  A    between atoms: C_25  and  C_33
REMARK    6  A    between atoms: C_33  and  C_34
REMARK    7  A    between atoms: C_34  and  N_35
REMARK                            x       y       z     vdW  Elec       q    Type
REMARK                         _______ _______ _______ _____ _____    ______ ____
ROOT
ATOM      1  O   UNL     1      32.028 -13.124 -20.947  0.00  0.00    -0.270 OA
ATOM      2  N   UNL     1      31.268  -9.458 -18.954  0.00  0.00    -0.275 N 
ATOM      3  N   UNL     1      31.539 -10.582 -19.641  0.00  0.00    -0.157 NA
ATOM      4  N   UNL     1      32.104 -10.982 -21.921  0.00  0.00    -0.264 N 
ATOM      5  C   UNL     1      31.601  -6.431 -21.696  0.00  0.00    +0.050 C 
ATOM      6  C   UNL     1      31.665  -8.734 -20.985  0.00  0.00    +0.052 A 
ATOM      7  C   UNL     1      31.328  -8.315 -19.703  0.00  0.00    +0.077 A 
ATOM      8  C   UNL     1      31.805  -7.780 -22.007  0.00  0.00    +0.019 C 
ATOM      9  C   UNL     1      31.263  -6.037 -20.399  0.00  0.00    +0.016 C 
ATOM     10  C   UNL     1      31.778 -10.137 -20.877  0.00  0.00    +0.155 A 
ATOM     11  C   UNL     1      31.119  -6.974 -19.371  0.00  0.00    +0.020 C 
ATOM     12  C   UNL     1      32.210 -12.386 -21.910  0.00  0.00    +0.251 C 
ATOM     13  H   UNL     1      31.046  -9.459 -17.995  0.00  0.00    +0.189 HD
ATOM     14  H   UNL     1      32.284 -10.545 -22.785  0.00  0.00    +0.157 HD
ENDROOT
BRANCH  12  15
ATOM     15  C   UNL     1      32.553 -13.019 -23.211  0.00  0.00    +0.054 C 
ATOM     16  C   UNL     1      33.092 -14.305 -23.241  0.00  0.00    +0.005 C 
ATOM     17  C   UNL     1      32.335 -12.326 -24.403  0.00  0.00    +0.005 C 
ATOM     18  C   UNL     1      33.413 -14.898 -24.462  0.00  0.00    +0.000 C 
ATOM     19  C   UNL     1      32.656 -12.920 -25.623  0.00  0.00    +0.000 C 
ATOM     20  C   UNL     1      33.196 -14.206 -25.653  0.00  0.00    +0.000 C 
ENDBRANCH  12  15
BRANCH   5  22
ATOM     21  O   UNL     1      30.348  -6.271 -24.416  0.00  0.00    -0.274 OA
ATOM     22  N   UNL     1      31.737  -5.453 -22.709  0.00  0.00    -0.284 N 
ATOM     23  C   UNL     1      31.120  -5.433 -23.958  0.00  0.00    +0.230 C 
ATOM     24  H   UNL     1      32.338  -4.700 -22.508  0.00  0.00    +0.155 HD
BRANCH  23  25
ATOM     25  C   UNL     1      31.534  -4.194 -24.766  0.00  0.00    +0.097 C 
BRANCH  25  27
ATOM     26 CL   UNL     1      33.425  -5.716 -29.392  0.00  0.00    -0.082 Cl
ATOM     27  C   UNL     1      32.736  -4.512 -25.640  0.00  0.00    -0.013 C 
ATOM     28  C   UNL     1      32.550  -4.918 -26.961  0.00  0.00    +0.008 C 
ATOM     29  C   UNL     1      34.025  -4.401 -25.119  0.00  0.00    -0.004 C 
ATOM     30  C   UNL     1      33.654  -5.213 -27.763  0.00  0.00    +0.057 C 
ATOM     31  C   UNL     1      35.129  -4.695 -25.920  0.00  0.00    +0.001 C 
ATOM     32  C   UNL     1      34.943  -5.101 -27.241  0.00  0.00    +0.011 C 
ENDBRANCH  25  27
BRANCH  25  33
ATOM     33  C   UNL     1      31.779  -2.993 -23.826  0.00  0.00    -0.010 C 
BRANCH  33  34
ATOM     34  C   UNL     1      30.509  -2.176 -23.568  0.00  0.00    -0.085 C 
BRANCH  34  35
ATOM     35  N   UNL     1      30.059  -2.366 -22.193  0.00  0.00    +0.380 N 
ATOM     36  H   UNL     1      30.661  -3.046 -21.729  0.00  0.00    -0.089 HD
ATOM     37  H   UNL     1      29.097  -2.707 -22.195  0.00  0.00    -0.089 HD
ATOM     38  H   UNL     1      30.103  -1.477 -21.695  0.00  0.00    -0.089 HD
ENDBRANCH  34  35
ENDBRANCH  33  34
ENDBRANCH  25  33
ENDBRANCH  23  25
ENDBRANCH   5  22
TORSDOF 7
ENDMDL
MODEL 5
REMARK VINA RESULT:     -10.0      2.908      8.960
REMARK  Name = 24894158
REMARK  7 active torsions:
REMARK  status: ('A' for Active; 'I' for Inactive)
REMARK    1  A    between atoms: C_5  and  N_22
REMARK    2  A    between atoms: C_12  and  C_15
REMARK    3  A    between atoms: C_23  and  C_25
REMARK    4  A    between atoms: C_25  and  C_27
REMARK    5  A    between atoms: C_25  and  C_33
REMARK    6  A    between atoms: C_33  and  C_34
REMARK    7  A    between atoms: C_34  and  N_35
REMARK                            x       y       z     vdW  Elec       q    Type
REMARK                         _______ _______ _______ _____ _____    ______ ____
ROOT
ATOM      1  O   UNL     1      36.989 -18.899 -20.225  0.00  0.00    -0.270 OA
ATOM      2  N   UNL     1      36.824 -21.365 -16.778  0.00  0.00    -0.275 N 
ATOM      3  N   UNL     1      36.803 -20.585 -17.872  0.00  0.00    -0.157 NA
ATOM      4  N   UNL     1      35.108 -20.099 -19.475  0.00  0.00    -0.264 N 
ATOM      5  C   UNL     1      33.071 -22.996 -16.564  0.00  0.00    +0.050 C 
ATOM      6  C   UNL     1      34.785 -21.615 -17.546  0.00  0.00    +0.052 A 
ATOM      7  C   UNL     1      35.644 -22.011 -16.527  0.00  0.00    +0.077 A 
ATOM      8  C   UNL     1      33.472 -22.113 -17.573  0.00  0.00    +0.019 C 
ATOM      9  C   UNL     1      33.954 -23.377 -15.551  0.00  0.00    +0.016 C 
ATOM     10  C   UNL     1      35.561 -20.740 -18.338  0.00  0.00    +0.155 A 
ATOM     11  C   UNL     1      35.264 -22.891 -15.511  0.00  0.00    +0.020 C 
ATOM     12  C   UNL     1      35.816 -19.239 -20.336  0.00  0.00    +0.251 C 
ATOM     13  H   UNL     1      37.620 -21.464 -16.207  0.00  0.00    +0.189 HD
ATOM     14  H   UNL     1      34.168 -20.267 -19.714  0.00  0.00    +0.157 HD
ENDROOT
BRANCH  12  15
ATOM     15  C   UNL     1      35.054 -18.723 -21.504  0.00  0.00    +0.054 C 
ATOM     16  C   UNL     1      35.243 -17.409 -21.935  0.00  0.00    +0.005 C 
ATOM     17  C   UNL     1      34.151 -19.553 -22.170  0.00  0.00    +0.005 C 
ATOM     18  C   UNL     1      34.528 -16.926 -23.031  0.00  0.00    +0.000 C 
ATOM     19  C   UNL     1      33.437 -19.068 -23.267  0.00  0.00    +0.000 C 
ATOM     20  C   UNL     1      33.626 -17.754 -23.697  0.00  0.00    +0.000 C 
ENDBRANCH  12  15
BRANCH   5  22
ATOM     21  O   UNL     1      30.658 -22.168 -14.987  0.00  0.00    -0.274 OA
ATOM     22  N   UNL     1      31.753 -23.510 -16.571  0.00  0.00    -0.284 N 
ATOM     23  C   UNL     1      30.668 -23.075 -15.814  0.00  0.00    +0.230 C 
ATOM     24  H   UNL     1      31.584 -24.262 -17.182  0.00  0.00    +0.155 HD
BRANCH  23  25
ATOM     25  C   UNL     1      29.407 -23.900 -16.117  0.00  0.00    +0.097 C 
BRANCH  25  27
ATOM     26 CL   UNL     1      25.569 -21.522 -18.744  0.00  0.00    -0.082 Cl
ATOM     27  C   UNL     1      28.177 -23.009 -16.100  0.00  0.00    -0.013 C 
ATOM     28  C   UNL     1      27.514 -22.712 -17.290  0.00  0.00    +0.008 C 
ATOM     29  C   UNL     1      27.711 -22.486 -14.893  0.00  0.00    -0.004 C 
ATOM     30  C   UNL     1      26.386 -21.891 -17.275  0.00  0.00    +0.057 C 
ATOM     31  C   UNL     1      26.583 -21.667 -14.877  0.00  0.00    +0.001 C 
ATOM     32  C   UNL     1      25.920 -21.369 -16.067  0.00  0.00    +0.011 C 
ENDBRANCH  25  27
BRANCH  25  33
ATOM     33  C   UNL     1      29.296 -25.093 -15.141  0.00  0.00    -0.010 C 
BRANCH  33  34
ATOM     34  C   UNL     1      30.333 -25.034 -14.015  0.00  0.00    -0.085 C 
BRANCH  34  35
ATOM     35  N   UNL     1      29.700 -24.618 -12.769  0.00  0.00    +0.380 N 
ATOM     36  H   UNL     1      29.168 -23.763 -12.926  0.00  0.00    -0.089 HD
ATOM     37  H   UNL     1      30.418 -24.448 -12.063  0.00  0.00    -0.089 HD
ATOM     38  H   UNL     1      29.072 -25.354 -12.444  0.00  0.00    -0.089 HD
ENDBRANCH  34  35
ENDBRANCH  33  34
ENDBRANCH  25  33
ENDBRANCH  23  25
ENDBRANCH   5  22
TORSDOF 7
ENDMDL
MODEL 6
REMARK VINA RESULT:      -9.6      2.789      5.305
REMARK  Name = 24894158
REMARK  7 active torsions:
REMARK  status: ('A' for Active; 'I' for Inactive)
REMARK    1  A    between atoms: C_5  and  N_22
REMARK    2  A    between atoms: C_12  and  C_15
REMARK    3  A    between atoms: C_23  and  C_25
REMARK    4  A    between atoms: C_25  and  C_27
REMARK    5  A    between atoms: C_25  and  C_33
REMARK    6  A    between atoms: C_33  and  C_34
REMARK    7  A    between atoms: C_34  and  N_35
REMARK                            x       y       z     vdW  Elec       q    Type
REMARK                         _______ _______ _______ _____ _____    ______ ____
ROOT
ATOM      1  O   UNL     1      34.970 -25.041 -13.868  0.00  0.00    -0.270 OA
ATOM      2  N   UNL     1      31.937 -23.199 -16.191  0.00  0.00    -0.275 N 
ATOM      3  N   UNL     1      32.945 -23.733 -15.481  0.00  0.00    -0.157 NA
ATOM      4  N   UNL     1      35.313 -23.507 -15.621  0.00  0.00    -0.264 N 
ATOM      5  C   UNL     1      33.751 -20.818 -18.990  0.00  0.00    +0.050 C 
ATOM      6  C   UNL     1      33.728 -22.348 -17.126  0.00  0.00    +0.052 A 
ATOM      7  C   UNL     1      32.339 -22.358 -17.193  0.00  0.00    +0.077 A 
ATOM      8  C   UNL     1      34.456 -21.566 -18.039  0.00  0.00    +0.019 C 
ATOM      9  C   UNL     1      32.356 -20.847 -19.035  0.00  0.00    +0.016 C 
ATOM     10  C   UNL     1      34.034 -23.214 -16.054  0.00  0.00    +0.155 A 
ATOM     11  C   UNL     1      31.617 -21.620 -18.133  0.00  0.00    +0.020 C 
ATOM     12  C   UNL     1      35.710 -24.376 -14.586  0.00  0.00    +0.251 C 
ATOM     13  H   UNL     1      30.990 -23.396 -16.006  0.00  0.00    +0.189 HD
ATOM     14  H   UNL     1      36.042 -23.050 -16.100  0.00  0.00    +0.157 HD
ENDROOT
BRANCH  12  15
ATOM     15  C   UNL     1      37.176 -24.505 -14.376  0.00  0.00    +0.054 C 
ATOM     16  C   UNL     1      37.666 -25.340 -13.371  0.00  0.00    +0.005 C 
ATOM     17  C   UNL     1      38.062 -23.791 -15.184  0.00  0.00    +0.005 C 
ATOM     18  C   UNL     1      39.042 -25.460 -13.175  0.00  0.00    +0.000 C 
ATOM     19  C   UNL     1      39.438 -23.913 -14.987  0.00  0.00    +0.000 C 
ATOM     20  C   UNL     1      39.928 -24.747 -13.982  0.00  0.00    +0.000 C 
ENDBRANCH  12  15
BRANCH   5  22
ATOM     21  O   UNL     1      32.797 -19.378 -21.441  0.00  0.00    -0.274 OA
ATOM     22  N   UNL     1      34.463 -20.024 -19.919  0.00  0.00    -0.284 N 
ATOM     23  C   UNL     1      33.959 -19.373 -21.042  0.00  0.00    +0.230 C 
ATOM     24  H   UNL     1      35.428 -19.920 -19.752  0.00  0.00    +0.155 HD
BRANCH  23  25
ATOM     25  C   UNL     1      35.064 -18.613 -21.791  0.00  0.00    +0.097 C 
BRANCH  25  27
ATOM     26 CL   UNL     1      33.563 -14.931 -25.181  0.00  0.00    -0.082 Cl
ATOM     27  C   UNL     1      34.635 -17.177 -22.049  0.00  0.00    -0.013 C 
ATOM     28  C   UNL     1      34.329 -16.763 -23.345  0.00  0.00    +0.008 C 
ATOM     29  C   UNL     1      34.549 -16.275 -20.989  0.00  0.00    -0.004 C 
ATOM     30  C   UNL     1      33.938 -15.444 -23.581  0.00  0.00    +0.057 C 
ATOM     31  C   UNL     1      34.157 -14.957 -21.225  0.00  0.00    +0.001 C 
ATOM     32  C   UNL     1      33.852 -14.542 -22.520  0.00  0.00    +0.011 C 
ENDBRANCH  25  27
BRANCH  25  33
ATOM     33  C   UNL     1      35.452 -19.363 -23.085  0.00  0.00    -0.010 C 
BRANCH  33  34
ATOM     34  C   UNL     1      34.293 -19.458 -24.083  0.00  0.00    -0.085 C 
BRANCH  34  35
ATOM     35  N   UNL     1      34.509 -20.571 -25.000  0.00  0.00    +0.380 N 
ATOM     36  H   UNL     1      34.073 -20.362 -25.898  0.00  0.00    -0.089 HD
ATOM     37  H   UNL     1      34.095 -21.418 -24.610  0.00  0.00    -0.089 HD
ATOM     38  H   UNL     1      35.510 -20.713 -25.134  0.00  0.00    -0.089 HD
ENDBRANCH  34  35
ENDBRANCH  33  34
ENDBRANCH  25  33
ENDBRANCH  23  25
ENDBRANCH   5  22
TORSDOF 7
ENDMDL
MODEL 7
REMARK VINA RESULT:      -9.5      4.402      9.057
REMARK  Name = 24894158
REMARK  7 active torsions:
REMARK  status: ('A' for Active; 'I' for Inactive)
REMARK    1  A    between atoms: C_5  and  N_22
REMARK    2  A    between atoms: C_12  and  C_15
REMARK    3  A    between atoms: C_23  and  C_25
REMARK    4  A    between atoms: C_25  and  C_27
REMARK    5  A    between atoms: C_25  and  C_33
REMARK    6  A    between atoms: C_33  and  C_34
REMARK    7  A    between atoms: C_34  and  N_35
REMARK                            x       y       z     vdW  Elec       q    Type
REMARK                         _______ _______ _______ _____ _____    ______ ____
ROOT
ATOM      1  O   UNL     1      38.474 -22.204 -15.834  0.00  0.00    -0.270 OA
ATOM      2  N   UNL     1      35.585 -20.781 -18.595  0.00  0.00    -0.275 N 
ATOM      3  N   UNL     1      36.453 -21.284 -17.701  0.00  0.00    -0.157 NA
ATOM      4  N   UNL     1      36.192 -22.781 -15.865  0.00  0.00    -0.264 N 
ATOM      5  C   UNL     1      31.959 -22.402 -17.585  0.00  0.00    +0.050 C 
ATOM      6  C   UNL     1      34.332 -22.060 -17.329  0.00  0.00    +0.052 A 
ATOM      7  C   UNL     1      34.296 -21.208 -18.427  0.00  0.00    +0.077 A 
ATOM      8  C   UNL     1      33.145 -22.672 -16.892  0.00  0.00    +0.019 C 
ATOM      9  C   UNL     1      31.951 -21.542 -18.685  0.00  0.00    +0.016 C 
ATOM     10  C   UNL     1      35.686 -22.061 -16.931  0.00  0.00    +0.155 A 
ATOM     11  C   UNL     1      33.123 -20.924 -19.132  0.00  0.00    +0.020 C 
ATOM     12  C   UNL     1      37.514 -22.819 -15.382  0.00  0.00    +0.251 C 
ATOM     13  H   UNL     1      35.854 -20.159 -19.309  0.00  0.00    +0.189 HD
ATOM     14  H   UNL     1      35.542 -23.340 -15.380  0.00  0.00    +0.157 HD
ENDROOT
BRANCH  12  15
ATOM     15  C   UNL     1      37.742 -23.676 -14.189  0.00  0.00    +0.054 C 
ATOM     16  C   UNL     1      38.597 -24.776 -14.273  0.00  0.00    +0.005 C 
ATOM     17  C   UNL     1      37.101 -23.381 -12.985  0.00  0.00    +0.005 C 
ATOM     18  C   UNL     1      38.811 -25.579 -13.153  0.00  0.00    +0.000 C 
ATOM     19  C   UNL     1      37.316 -24.186 -11.865  0.00  0.00    +0.000 C 
ATOM     20  C   UNL     1      38.171 -25.285 -11.950  0.00  0.00    +0.000 C 
ENDBRANCH  12  15
BRANCH   5  22
ATOM     21  O   UNL     1      30.679 -22.490 -14.875  0.00  0.00    -0.274 OA
ATOM     22  N   UNL     1      30.752 -23.008 -17.163  0.00  0.00    -0.284 N 
ATOM     23  C   UNL     1      30.205 -23.008 -15.882  0.00  0.00    +0.230 C 
ATOM     24  H   UNL     1      30.240 -23.484 -17.855  0.00  0.00    +0.155 HD
BRANCH  23  25
ATOM     25  C   UNL     1      28.878 -23.781 -15.841  0.00  0.00    +0.097 C 
BRANCH  25  27
ATOM     26 CL   UNL     1      25.569 -21.483 -19.167  0.00  0.00    -0.082 Cl
ATOM     27  C   UNL     1      27.710 -22.836 -16.070  0.00  0.00    -0.013 C 
ATOM     28  C   UNL     1      27.231 -22.621 -17.362  0.00  0.00    +0.008 C 
ATOM     29  C   UNL     1      27.119 -22.183 -14.989  0.00  0.00    -0.004 C 
ATOM     30  C   UNL     1      26.160 -21.751 -17.573  0.00  0.00    +0.057 C 
ATOM     31  C   UNL     1      26.048 -21.315 -15.199  0.00  0.00    +0.001 C 
ATOM     32  C   UNL     1      25.569 -21.098 -16.490  0.00  0.00    +0.011 C 
ENDBRANCH  25  27
BRANCH  25  33
ATOM     33  C   UNL     1      28.757 -24.574 -14.520  0.00  0.00    -0.010 C 
BRANCH  33  34
ATOM     34  C   UNL     1      30.105 -25.101 -14.021  0.00  0.00    -0.085 C 
BRANCH  34  35
ATOM     35  N   UNL     1      30.356 -24.636 -12.662  0.00  0.00    +0.380 N 
ATOM     36  H   UNL     1      30.119 -23.647 -12.592  0.00  0.00    -0.089 HD
ATOM     37  H   UNL     1      31.342 -24.767 -12.435  0.00  0.00    -0.089 HD
ATOM     38  H   UNL     1      29.783 -25.170 -12.008  0.00  0.00    -0.089 HD
ENDBRANCH  34  35
ENDBRANCH  33  34
ENDBRANCH  25  33
ENDBRANCH  23  25
ENDBRANCH   5  22
TORSDOF 7
ENDMDL
MODEL 8
REMARK VINA RESULT:      -9.5      8.894     13.573
REMARK  Name = 24894158
REMARK  7 active torsions:
REMARK  status: ('A' for Active; 'I' for Inactive)
REMARK    1  A    between atoms: C_5  and  N_22
REMARK    2  A    between atoms: C_12  and  C_15
REMARK    3  A    between atoms: C_23  and  C_25
REMARK    4  A    between atoms: C_25  and  C_27
REMARK    5  A    between atoms: C_25  and  C_33
REMARK    6  A    between atoms: C_33  and  C_34
REMARK    7  A    between atoms: C_34  and  N_35
REMARK                            x       y       z     vdW  Elec       q    Type
REMARK                         _______ _______ _______ _____ _____    ______ ____
ROOT
ATOM      1  O   UNL     1      32.051 -12.829 -20.540  0.00  0.00    -0.270 OA
ATOM      2  N   UNL     1      31.080  -8.785 -19.708  0.00  0.00    -0.275 N 
ATOM      3  N   UNL     1      31.426 -10.044 -20.029  0.00  0.00    -0.157 NA
ATOM      4  N   UNL     1      32.296 -11.018 -22.023  0.00  0.00    -0.264 N 
ATOM      5  C   UNL     1      31.840  -6.579 -23.076  0.00  0.00    +0.050 C 
ATOM      6  C   UNL     1      31.768  -8.612 -21.783  0.00  0.00    +0.052 A 
ATOM      7  C   UNL     1      31.262  -7.878 -20.716  0.00  0.00    +0.077 A 
ATOM      8  C   UNL     1      32.064  -7.959 -22.990  0.00  0.00    +0.019 C 
ATOM      9  C   UNL     1      31.331  -5.866 -21.989  0.00  0.00    +0.016 C 
ATOM     10  C   UNL     1      31.842  -9.935 -21.293  0.00  0.00    +0.155 A 
ATOM     11  C   UNL     1      31.030  -6.502 -20.781  0.00  0.00    +0.020 C 
ATOM     12  C   UNL     1      32.377 -12.367 -21.628  0.00  0.00    +0.251 C 
ATOM     13  H   UNL     1      30.727  -8.538 -18.822  0.00  0.00    +0.189 HD
ATOM     14  H   UNL     1      32.601 -10.820 -22.938  0.00  0.00    +0.157 HD
ENDROOT
BRANCH  12  15
ATOM     15  C   UNL     1      32.887 -13.312 -22.656  0.00  0.00    +0.054 C 
ATOM     16  C   UNL     1      32.557 -13.127 -23.999  0.00  0.00    +0.005 C 
ATOM     17  C   UNL     1      33.695 -14.385 -22.277  0.00  0.00    +0.005 C 
ATOM     18  C   UNL     1      33.036 -14.014 -24.963  0.00  0.00    +0.000 C 
ATOM     19  C   UNL     1      34.173 -15.272 -23.242  0.00  0.00    +0.000 C 
ATOM     20  C   UNL     1      33.844 -15.086 -24.585  0.00  0.00    +0.000 C 
ENDBRANCH  12  15
BRANCH   5  22
ATOM     21  O   UNL     1      34.289  -6.665 -24.805  0.00  0.00    -0.274 OA
ATOM     22  N   UNL     1      32.132  -5.900 -24.282  0.00  0.00    -0.284 N 
ATOM     23  C   UNL     1      33.293  -5.987 -25.046  0.00  0.00    +0.230 C 
ATOM     24  H   UNL     1      31.433  -5.296 -24.621  0.00  0.00    +0.155 HD
BRANCH  23  25
ATOM     25  C   UNL     1      33.215  -5.087 -26.289  0.00  0.00    +0.097 C 
BRANCH  25  27
ATOM     26 CL   UNL     1      36.782  -5.979 -30.000  0.00  0.00    -0.082 Cl
ATOM     27  C   UNL     1      34.607  -4.833 -26.844  0.00  0.00    -0.013 C 
ATOM     28  C   UNL     1      35.007  -5.449 -28.030  0.00  0.00    +0.008 C 
ATOM     29  C   UNL     1      35.484  -3.985 -26.167  0.00  0.00    -0.004 C 
ATOM     30  C   UNL     1      36.286  -5.218 -28.539  0.00  0.00    +0.057 C 
ATOM     31  C   UNL     1      36.761  -3.753 -26.676  0.00  0.00    +0.001 C 
ATOM     32  C   UNL     1      37.162  -4.369 -27.861  0.00  0.00    +0.011 C 
ENDBRANCH  25  27
BRANCH  25  33
ATOM     33  C   UNL     1      32.454  -3.782 -25.962  0.00  0.00    -0.010 C 
BRANCH  33  34
ATOM     34  C   UNL     1      32.224  -2.907 -27.197  0.00  0.00    -0.085 C 
BRANCH  34  35
ATOM     35  N   UNL     1      30.956  -2.194 -27.081  0.00  0.00    +0.380 N 
ATOM     36  H   UNL     1      30.998  -1.553 -26.289  0.00  0.00    -0.089 HD
ATOM     37  H   UNL     1      30.202  -2.866 -26.936  0.00  0.00    -0.089 HD
ATOM     38  H   UNL     1      30.783  -1.667 -27.936  0.00  0.00    -0.089 HD
ENDBRANCH  34  35
ENDBRANCH  33  34
ENDBRANCH  25  33
ENDBRANCH  23  25
ENDBRANCH   5  22
TORSDOF 7
ENDMDL
MODEL 9
REMARK VINA RESULT:      -9.5      9.017     13.781
REMARK  Name = 24894158
REMARK  7 active torsions:
REMARK  status: ('A' for Active; 'I' for Inactive)
REMARK    1  A    between atoms: C_5  and  N_22
REMARK    2  A    between atoms: C_12  and  C_15
REMARK    3  A    between atoms: C_23  and  C_25
REMARK    4  A    between atoms: C_25  and  C_27
REMARK    5  A    between atoms: C_25  and  C_33
REMARK    6  A    between atoms: C_33  and  C_34
REMARK    7  A    between atoms: C_34  and  N_35
REMARK                            x       y       z     vdW  Elec       q    Type
REMARK                         _______ _______ _______ _____ _____    ______ ____
ROOT
ATOM      1  O   UNL     1      31.802 -12.461 -20.847  0.00  0.00    -0.270 OA
ATOM      2  N   UNL     1      30.953  -8.318 -20.518  0.00  0.00    -0.275 N 
ATOM      3  N   UNL     1      31.268  -9.615 -20.678  0.00  0.00    -0.157 NA
ATOM      4  N   UNL     1      32.307 -10.816 -22.455  0.00  0.00    -0.264 N 
ATOM      5  C   UNL     1      32.204  -6.489 -23.966  0.00  0.00    +0.050 C 
ATOM      6  C   UNL     1      31.880  -8.380 -22.505  0.00  0.00    +0.052 A 
ATOM      7  C   UNL     1      31.295  -7.523 -21.579  0.00  0.00    +0.077 A 
ATOM      8  C   UNL     1      32.345  -7.861 -23.725  0.00  0.00    +0.019 C 
ATOM      9  C   UNL     1      31.612  -5.651 -23.018  0.00  0.00    +0.016 C 
ATOM     10  C   UNL     1      31.830  -9.649 -21.889  0.00  0.00    +0.155 A 
ATOM     11  C   UNL     1      31.143  -6.152 -21.799  0.00  0.00    +0.020 C 
ATOM     12  C   UNL     1      32.273 -12.122 -21.928  0.00  0.00    +0.251 C 
ATOM     13  H   UNL     1      30.515  -7.971 -19.708  0.00  0.00    +0.189 HD
ATOM     14  H   UNL     1      32.724 -10.722 -23.341  0.00  0.00    +0.157 HD
ENDROOT
BRANCH  12  15
ATOM     15  C   UNL     1      32.848 -13.184 -22.795  0.00  0.00    +0.054 C 
ATOM     16  C   UNL     1      32.522 -13.229 -24.151  0.00  0.00    +0.005 C 
ATOM     17  C   UNL     1      33.712 -14.136 -22.253  0.00  0.00    +0.005 C 
ATOM     18  C   UNL     1      33.061 -14.226 -24.965  0.00  0.00    +0.000 C 
ATOM     19  C   UNL     1      34.251 -15.132 -23.068  0.00  0.00    +0.000 C 
ATOM     20  C   UNL     1      33.925 -15.178 -24.424  0.00  0.00    +0.000 C 
ENDBRANCH  12  15
BRANCH   5  22
ATOM     21  O   UNL     1      34.877  -6.722 -25.304  0.00  0.00    -0.274 OA
ATOM     22  N   UNL     1      32.665  -5.945 -25.187  0.00  0.00    -0.284 N 
ATOM     23  C   UNL     1      33.925  -6.096 -25.761  0.00  0.00    +0.230 C 
ATOM     24  H   UNL     1      32.021  -5.397 -25.690  0.00  0.00    +0.155 HD
BRANCH  23  25
ATOM     25  C   UNL     1      34.025  -5.343 -27.097  0.00  0.00    +0.097 C 
BRANCH  25  27
ATOM     26 CL   UNL     1      38.483  -5.421 -29.821  0.00  0.00    -0.082 Cl
ATOM     27  C   UNL     1      35.436  -4.815 -27.300  0.00  0.00    -0.013 C 
ATOM     28  C   UNL     1      36.218  -5.302 -28.347  0.00  0.00    +0.008 C 
ATOM     29  C   UNL     1      35.948  -3.844 -26.439  0.00  0.00    -0.004 C 
ATOM     30  C   UNL     1      37.515  -4.819 -28.532  0.00  0.00    +0.057 C 
ATOM     31  C   UNL     1      37.243  -3.361 -26.624  0.00  0.00    +0.001 C 
ATOM     32  C   UNL     1      38.026  -3.848 -27.670  0.00  0.00    +0.011 C 
ENDBRANCH  25  27
BRANCH  25  33
ATOM     33  C   UNL     1      32.954  -4.232 -27.171  0.00  0.00    -0.010 C 
BRANCH  33  34
ATOM     34  C   UNL     1      32.960  -3.493 -28.513  0.00  0.00    -0.085 C 
BRANCH  34  35
ATOM     35  N   UNL     1      32.978  -4.449 -29.614  0.00  0.00    +0.380 N 
ATOM     36  H   UNL     1      33.547  -4.080 -30.376  0.00  0.00    -0.089 HD
ATOM     37  H   UNL     1      32.025  -4.603 -29.945  0.00  0.00    -0.089 HD
ATOM     38  H   UNL     1      33.373  -5.332 -29.292  0.00  0.00    -0.089 HD
ENDBRANCH  34  35
ENDBRANCH  33  34
ENDBRANCH  25  33
ENDBRANCH  23  25
ENDBRANCH   5  22
TORSDOF 7
ENDMDL
