MODEL 1
REMARK VINA RESULT:     -12.9      0.000      0.000
REMARK  Name = 100472
REMARK  3 active torsions:
REMARK  status: ('A' for Active; 'I' for Inactive)
REMARK    1  A    between atoms: C_1  and  C_13
REMARK    2  A    between atoms: C_2  and  C_7
REMARK    3  A    between atoms: C_13  and  C_16
REMARK                            x       y       z     vdW  Elec       q    Type
REMARK                         _______ _______ _______ _____ _____    ______ ____
ROOT
ATOM      1  C   UNL     1      34.597 -16.282 -22.429  0.00  0.00    -0.013 C 
ATOM      2  C   UNL     1      33.324 -13.804 -22.273  0.00  0.00    -0.000 C 
ATOM      3  C   UNL     1      34.366 -15.693 -21.185  0.00  0.00    -0.004 C 
ATOM      4  C   UNL     1      34.191 -15.631 -23.594  0.00  0.00    -0.004 C 
ATOM      5  C   UNL     1      33.729 -14.454 -21.107  0.00  0.00    -0.000 C 
ATOM      6  C   UNL     1      33.555 -14.393 -23.516  0.00  0.00    -0.000 C 
ENDROOT
BRANCH   2   7
ATOM      7  C   UNL     1      32.664 -12.518 -22.193  0.00  0.00    -0.000 C 
ATOM      8  C   UNL     1      32.928 -11.538 -23.148  0.00  0.00    -0.000 C 
ATOM      9  C   UNL     1      31.765 -12.261 -21.158  0.00  0.00    -0.000 C 
ATOM     10  C   UNL     1      32.291 -10.299 -23.071  0.00  0.00    +0.000 C 
ATOM     11  C   UNL     1      31.127 -11.022 -21.081  0.00  0.00    +0.000 C 
ATOM     12  C   UNL     1      31.391 -10.042 -22.038  0.00  0.00    +0.000 C 
ENDBRANCH   2   7
BRANCH   1  13
ATOM     13  C   UNL     1      35.277 -17.606 -22.512  0.00  0.00    +0.112 C 
BRANCH  13  16
ATOM     14  O   UNL     1      33.454 -19.111 -22.037  0.00  0.00    -0.274 OA
ATOM     15  N   UNL     1      35.372 -19.167 -20.683  0.00  0.00    -0.269 N 
ATOM     16  C   UNL     1      34.574 -18.714 -21.731  0.00  0.00    +0.232 C 
ATOM     17  H   UNL     1      36.250 -18.731 -20.584  0.00  0.00    +0.156 HD
ATOM     18  N   UNL     1      35.988 -20.465 -18.804  0.00  0.00    -0.229 NA
ATOM     19  C   UNL     1      35.068 -20.181 -19.743  0.00  0.00    +0.134 C 
ATOM     20  C   UNL     1      33.844 -20.801 -19.870  0.00  0.00    +0.034 C 
ATOM     21  C   UNL     1      33.536 -21.799 -18.953  0.00  0.00    +0.004 C 
ATOM     22  C   UNL     1      34.453 -22.131 -17.961  0.00  0.00    +0.021 C 
ATOM     23  C   UNL     1      35.654 -21.441 -17.931  0.00  0.00    +0.100 C 
ENDBRANCH  13  16
ENDBRANCH   1  13
TORSDOF 3
ENDMDL
MODEL 2
REMARK VINA RESULT:     -12.9      0.030      1.457
REMARK  Name = 100472
REMARK  3 active torsions:
REMARK  status: ('A' for Active; 'I' for Inactive)
REMARK    1  A    between atoms: C_1  and  C_13
REMARK    2  A    between atoms: C_2  and  C_7
REMARK    3  A    between atoms: C_13  and  C_16
REMARK                            x       y       z     vdW  Elec       q    Type
REMARK                         _______ _______ _______ _____ _____    ______ ____
ROOT
ATOM      1  C   UNL     1      34.589 -16.269 -22.420  0.00  0.00    -0.013 C 
ATOM      2  C   UNL     1      33.315 -13.792 -22.252  0.00  0.00    -0.000 C 
ATOM      3  C   UNL     1      34.183 -15.612 -23.583  0.00  0.00    -0.004 C 
ATOM      4  C   UNL     1      34.357 -15.687 -21.174  0.00  0.00    -0.004 C 
ATOM      5  C   UNL     1      33.547 -14.374 -23.499  0.00  0.00    -0.000 C 
ATOM      6  C   UNL     1      33.721 -14.448 -21.090  0.00  0.00    -0.000 C 
ENDROOT
BRANCH   2   7
ATOM      7  C   UNL     1      32.654 -12.507 -22.165  0.00  0.00    -0.000 C 
ATOM      8  C   UNL     1      31.773 -12.246 -21.116  0.00  0.00    -0.000 C 
ATOM      9  C   UNL     1      32.899 -11.531 -23.130  0.00  0.00    -0.000 C 
ATOM     10  C   UNL     1      31.137 -11.008 -21.031  0.00  0.00    +0.000 C 
ATOM     11  C   UNL     1      32.263 -10.292 -23.046  0.00  0.00    +0.000 C 
ATOM     12  C   UNL     1      31.382 -10.031 -21.996  0.00  0.00    +0.000 C 
ENDBRANCH   2   7
BRANCH   1  13
ATOM     13  C   UNL     1      35.269 -17.593 -22.510  0.00  0.00    +0.112 C 
BRANCH  13  16
ATOM     14  O   UNL     1      33.454 -19.103 -22.025  0.00  0.00    -0.274 OA
ATOM     15  N   UNL     1      35.379 -19.150 -20.680  0.00  0.00    -0.269 N 
ATOM     16  C   UNL     1      34.575 -18.701 -21.725  0.00  0.00    +0.232 C 
ATOM     17  H   UNL     1      36.256 -18.711 -20.586  0.00  0.00    +0.156 HD
ATOM     18  N   UNL     1      36.009 -20.442 -18.802  0.00  0.00    -0.229 NA
ATOM     19  C   UNL     1      35.084 -20.163 -19.737  0.00  0.00    +0.134 C 
ATOM     20  C   UNL     1      33.861 -20.788 -19.857  0.00  0.00    +0.034 C 
ATOM     21  C   UNL     1      33.561 -21.785 -18.936  0.00  0.00    +0.004 C 
ATOM     22  C   UNL     1      34.484 -22.113 -17.949  0.00  0.00    +0.021 C 
ATOM     23  C   UNL     1      35.683 -21.418 -17.926  0.00  0.00    +0.100 C 
ENDBRANCH  13  16
ENDBRANCH   1  13
TORSDOF 3
ENDMDL
MODEL 3
REMARK VINA RESULT:     -12.9      2.274      8.964
REMARK  Name = 100472
REMARK  3 active torsions:
REMARK  status: ('A' for Active; 'I' for Inactive)
REMARK    1  A    between atoms: C_1  and  C_13
REMARK    2  A    between atoms: C_2  and  C_7
REMARK    3  A    between atoms: C_13  and  C_16
REMARK                            x       y       z     vdW  Elec       q    Type
REMARK                         _______ _______ _______ _____ _____    ______ ____
ROOT
ATOM      1  C   UNL     1      34.666 -19.931 -20.555  0.00  0.00    -0.013 C 
ATOM      2  C   UNL     1      33.718 -21.419 -18.393  0.00  0.00    -0.000 C 
ATOM      3  C   UNL     1      35.565 -20.551 -19.687  0.00  0.00    -0.004 C 
ATOM      4  C   UNL     1      33.293 -20.055 -20.341  0.00  0.00    -0.004 C 
ATOM      5  C   UNL     1      35.091 -21.295 -18.606  0.00  0.00    -0.000 C 
ATOM      6  C   UNL     1      32.819 -20.799 -19.261  0.00  0.00    -0.000 C 
ENDROOT
BRANCH   2   7
ATOM      7  C   UNL     1      33.227 -22.190 -17.271  0.00  0.00    -0.000 C 
ATOM      8  C   UNL     1      31.856 -22.381 -17.103  0.00  0.00    -0.000 C 
ATOM      9  C   UNL     1      34.125 -22.742 -16.358  0.00  0.00    -0.000 C 
ATOM     10  C   UNL     1      31.382 -23.125 -16.023  0.00  0.00    +0.000 C 
ATOM     11  C   UNL     1      33.652 -23.487 -15.277  0.00  0.00    +0.000 C 
ATOM     12  C   UNL     1      32.280 -23.677 -15.110  0.00  0.00    +0.000 C 
ENDBRANCH   2   7
BRANCH   1  13
ATOM     13  C   UNL     1      35.172 -19.136 -21.711  0.00  0.00    +0.112 C 
BRANCH  13  16
ATOM     14  O   UNL     1      35.129 -17.014 -20.569  0.00  0.00    -0.274 OA
ATOM     15  N   UNL     1      34.381 -17.138 -22.791  0.00  0.00    -0.269 N 
ATOM     16  C   UNL     1      34.899 -17.639 -21.600  0.00  0.00    +0.232 C 
ATOM     17  H   UNL     1      34.262 -17.788 -23.521  0.00  0.00    +0.156 HD
ATOM     18  N   UNL     1      33.524 -15.532 -24.301  0.00  0.00    -0.229 NA
ATOM     19  C   UNL     1      34.006 -15.803 -23.076  0.00  0.00    +0.134 C 
ATOM     20  C   UNL     1      34.171 -14.881 -22.064  0.00  0.00    +0.034 C 
ATOM     21  C   UNL     1      33.806 -13.567 -22.333  0.00  0.00    +0.004 C 
ATOM     22  C   UNL     1      33.302 -13.234 -23.586  0.00  0.00    +0.021 C 
ATOM     23  C   UNL     1      33.182 -14.244 -24.526  0.00  0.00    +0.100 C 
ENDBRANCH  13  16
ENDBRANCH   1  13
TORSDOF 3
ENDMDL
MODEL 4
REMARK VINA RESULT:     -12.9      2.423      8.937
REMARK  Name = 100472
REMARK  3 active torsions:
REMARK  status: ('A' for Active; 'I' for Inactive)
REMARK    1  A    between atoms: C_1  and  C_13
REMARK    2  A    between atoms: C_2  and  C_7
REMARK    3  A    between atoms: C_13  and  C_16
REMARK                            x       y       z     vdW  Elec       q    Type
REMARK                         _______ _______ _______ _____ _____    ______ ____
ROOT
ATOM      1  C   UNL     1      34.831 -20.125 -20.406  0.00  0.00    -0.013 C 
ATOM      2  C   UNL     1      33.695 -21.509 -18.266  0.00  0.00    -0.000 C 
ATOM      3  C   UNL     1      35.650 -20.763 -19.474  0.00  0.00    -0.004 C 
ATOM      4  C   UNL     1      33.444 -20.179 -20.268  0.00  0.00    -0.004 C 
ATOM      5  C   UNL     1      35.082 -21.455 -18.404  0.00  0.00    -0.000 C 
ATOM      6  C   UNL     1      32.876 -20.871 -19.199  0.00  0.00    -0.000 C 
ENDROOT
BRANCH   2   7
ATOM      7  C   UNL     1      33.105 -22.226 -17.156  0.00  0.00    -0.000 C 
ATOM      8  C   UNL     1      33.920 -22.764 -16.161  0.00  0.00    -0.000 C 
ATOM      9  C   UNL     1      31.721 -22.379 -17.082  0.00  0.00    -0.000 C 
ATOM     10  C   UNL     1      33.352 -23.455 -15.091  0.00  0.00    +0.000 C 
ATOM     11  C   UNL     1      31.151 -23.069 -16.012  0.00  0.00    +0.000 C 
ATOM     12  C   UNL     1      31.968 -23.607 -15.017  0.00  0.00    +0.000 C 
ENDBRANCH   2   7
BRANCH   1  13
ATOM     13  C   UNL     1      35.438 -19.386 -21.550  0.00  0.00    +0.112 C 
BRANCH  13  16
ATOM     14  O   UNL     1      35.246 -17.174 -20.609  0.00  0.00    -0.274 OA
ATOM     15  N   UNL     1      34.587 -17.538 -22.834  0.00  0.00    -0.269 N 
ATOM     16  C   UNL     1      35.086 -17.901 -21.585  0.00  0.00    +0.232 C 
ATOM     17  H   UNL     1      34.526 -18.256 -23.504  0.00  0.00    +0.156 HD
ATOM     18  N   UNL     1      33.704 -16.123 -24.511  0.00  0.00    -0.229 NA
ATOM     19  C   UNL     1      34.155 -16.256 -23.251  0.00  0.00    +0.134 C 
ATOM     20  C   UNL     1      34.235 -15.239 -22.323  0.00  0.00    +0.034 C 
ATOM     21  C   UNL     1      33.814 -13.977 -22.723  0.00  0.00    +0.004 C 
ATOM     22  C   UNL     1      33.339 -13.785 -24.016  0.00  0.00    +0.021 C 
ATOM     23  C   UNL     1      33.305 -14.880 -24.863  0.00  0.00    +0.100 C 
ENDBRANCH  13  16
ENDBRANCH   1  13
TORSDOF 3
ENDMDL
MODEL 5
REMARK VINA RESULT:     -12.5      2.611      7.895
REMARK  Name = 100472
REMARK  3 active torsions:
REMARK  status: ('A' for Active; 'I' for Inactive)
REMARK    1  A    between atoms: C_1  and  C_13
REMARK    2  A    between atoms: C_2  and  C_7
REMARK    3  A    between atoms: C_13  and  C_16
REMARK                            x       y       z     vdW  Elec       q    Type
REMARK                         _______ _______ _______ _____ _____    ______ ____
ROOT
ATOM      1  C   UNL     1      34.289 -16.800 -23.502  0.00  0.00    -0.013 C 
ATOM      2  C   UNL     1      34.318 -18.762 -21.517  0.00  0.00    -0.000 C 
ATOM      3  C   UNL     1      34.870 -16.531 -22.262  0.00  0.00    -0.004 C 
ATOM      4  C   UNL     1      33.722 -18.051 -23.748  0.00  0.00    -0.004 C 
ATOM      5  C   UNL     1      34.885 -17.512 -21.270  0.00  0.00    -0.000 C 
ATOM      6  C   UNL     1      33.737 -19.032 -22.757  0.00  0.00    -0.000 C 
ENDROOT
BRANCH   2   7
ATOM      7  C   UNL     1      34.332 -19.780 -20.489  0.00  0.00    -0.000 C 
ATOM      8  C   UNL     1      35.543 -20.197 -19.938  0.00  0.00    -0.000 C 
ATOM      9  C   UNL     1      33.135 -20.342 -20.049  0.00  0.00    -0.000 C 
ATOM     10  C   UNL     1      35.557 -21.178 -18.945  0.00  0.00    +0.000 C 
ATOM     11  C   UNL     1      33.148 -21.323 -19.056  0.00  0.00    +0.000 C 
ATOM     12  C   UNL     1      34.360 -21.739 -18.505  0.00  0.00    +0.000 C 
ENDBRANCH   2   7
BRANCH   1  13
ATOM     13  C   UNL     1      34.273 -15.752 -24.562  0.00  0.00    +0.112 C 
BRANCH  13  16
ATOM     14  O   UNL     1      32.942 -13.806 -25.063  0.00  0.00    -0.274 OA
ATOM     15  N   UNL     1      33.376 -14.355 -22.821  0.00  0.00    -0.269 N 
ATOM     16  C   UNL     1      33.449 -14.519 -24.202  0.00  0.00    +0.232 C 
ATOM     17  H   UNL     1      33.847 -15.028 -22.277  0.00  0.00    +0.156 HD
ATOM     18  N   UNL     1      32.759 -13.364 -20.764  0.00  0.00    -0.229 NA
ATOM     19  C   UNL     1      32.703 -13.335 -22.107  0.00  0.00    +0.134 C 
ATOM     20  C   UNL     1      32.037 -12.387 -22.855  0.00  0.00    +0.034 C 
ATOM     21  C   UNL     1      31.373 -11.381 -22.164  0.00  0.00    +0.004 C 
ATOM     22  C   UNL     1      31.399 -11.365 -20.773  0.00  0.00    +0.021 C 
ATOM     23  C   UNL     1      32.100 -12.370 -20.127  0.00  0.00    +0.100 C 
ENDBRANCH  13  16
ENDBRANCH   1  13
TORSDOF 3
ENDMDL
MODEL 6
REMARK VINA RESULT:     -12.2      1.596      2.717
REMARK  Name = 100472
REMARK  3 active torsions:
REMARK  status: ('A' for Active; 'I' for Inactive)
REMARK    1  A    between atoms: C_1  and  C_13
REMARK    2  A    between atoms: C_2  and  C_7
REMARK    3  A    between atoms: C_13  and  C_16
REMARK                            x       y       z     vdW  Elec       q    Type
REMARK                         _______ _______ _______ _____ _____    ______ ____
ROOT
ATOM      1  C   UNL     1      34.943 -18.168 -21.701  0.00  0.00    -0.013 C 
ATOM      2  C   UNL     1      34.118 -15.758 -22.840  0.00  0.00    -0.000 C 
ATOM      3  C   UNL     1      34.616 -18.112 -23.056  0.00  0.00    -0.004 C 
ATOM      4  C   UNL     1      34.857 -17.018 -20.915  0.00  0.00    -0.004 C 
ATOM      5  C   UNL     1      34.204 -16.907 -23.625  0.00  0.00    -0.000 C 
ATOM      6  C   UNL     1      34.445 -15.814 -21.484  0.00  0.00    -0.000 C 
ENDROOT
BRANCH   2   7
ATOM      7  C   UNL     1      33.690 -14.508 -23.430  0.00  0.00    -0.000 C 
ATOM      8  C   UNL     1      33.177 -14.488 -24.726  0.00  0.00    -0.000 C 
ATOM      9  C   UNL     1      33.792 -13.323 -22.701  0.00  0.00    -0.000 C 
ATOM     10  C   UNL     1      32.764 -13.283 -25.294  0.00  0.00    +0.000 C 
ATOM     11  C   UNL     1      33.379 -12.117 -23.269  0.00  0.00    +0.000 C 
ATOM     12  C   UNL     1      32.865 -12.098 -24.566  0.00  0.00    +0.000 C 
ENDBRANCH   2   7
BRANCH   1  13
ATOM     13  C   UNL     1      35.383 -19.456 -21.092  0.00  0.00    +0.112 C 
BRANCH  13  16
ATOM     14  O   UNL     1      33.117 -20.094 -20.572  0.00  0.00    -0.274 OA
ATOM     15  N   UNL     1      34.864 -20.823 -19.182  0.00  0.00    -0.269 N 
ATOM     16  C   UNL     1      34.304 -20.153 -20.267  0.00  0.00    +0.232 C 
ATOM     17  H   UNL     1      35.842 -20.763 -19.090  0.00  0.00    +0.156 HD
ATOM     18  N   UNL     1      34.927 -22.150 -17.225  0.00  0.00    -0.229 NA
ATOM     19  C   UNL     1      34.189 -21.581 -18.195  0.00  0.00    +0.134 C 
ATOM     20  C   UNL     1      32.819 -21.677 -18.312  0.00  0.00    +0.034 C 
ATOM     21  C   UNL     1      32.147 -22.419 -17.348  0.00  0.00    +0.004 C 
ATOM     22  C   UNL     1      32.863 -23.029 -16.323  0.00  0.00    +0.021 C 
ATOM     23  C   UNL     1      34.239 -22.865 -16.307  0.00  0.00    +0.100 C 
ENDBRANCH  13  16
ENDBRANCH   1  13
TORSDOF 3
ENDMDL
MODEL 7
REMARK VINA RESULT:     -12.0      5.054      7.682
REMARK  Name = 100472
REMARK  3 active torsions:
REMARK  status: ('A' for Active; 'I' for Inactive)
REMARK    1  A    between atoms: C_1  and  C_13
REMARK    2  A    between atoms: C_2  and  C_7
REMARK    3  A    between atoms: C_13  and  C_16
REMARK                            x       y       z     vdW  Elec       q    Type
REMARK                         _______ _______ _______ _____ _____    ______ ____
ROOT
ATOM      1  C   UNL     1      33.538 -22.196 -17.704  0.00  0.00    -0.013 C 
ATOM      2  C   UNL     1      34.305 -20.441 -19.733  0.00  0.00    -0.000 C 
ATOM      3  C   UNL     1      32.569 -21.588 -18.504  0.00  0.00    -0.004 C 
ATOM      4  C   UNL     1      34.889 -21.926 -17.919  0.00  0.00    -0.004 C 
ATOM      5  C   UNL     1      32.953 -20.711 -19.518  0.00  0.00    -0.000 C 
ATOM      6  C   UNL     1      35.273 -21.049 -18.933  0.00  0.00    -0.000 C 
ENDROOT
BRANCH   2   7
ATOM      7  C   UNL     1      34.703 -19.531 -20.785  0.00  0.00    -0.000 C 
ATOM      8  C   UNL     1      35.963 -18.936 -20.753  0.00  0.00    -0.000 C 
ATOM      9  C   UNL     1      33.825 -19.249 -21.831  0.00  0.00    -0.000 C 
ATOM     10  C   UNL     1      36.347 -18.059 -21.767  0.00  0.00    +0.000 C 
ATOM     11  C   UNL     1      34.208 -18.372 -22.847  0.00  0.00    +0.000 C 
ATOM     12  C   UNL     1      35.470 -17.777 -22.814  0.00  0.00    +0.000 C 
ENDBRANCH   2   7
BRANCH   1  13
ATOM     13  C   UNL     1      33.128 -23.133 -16.619  0.00  0.00    +0.112 C 
BRANCH  13  16
ATOM     14  O   UNL     1      34.167 -22.190 -14.660  0.00  0.00    -0.274 OA
ATOM     15  N   UNL     1      34.764 -24.355 -15.347  0.00  0.00    -0.269 N 
ATOM     16  C   UNL     1      34.074 -23.148 -15.421  0.00  0.00    +0.232 C 
ATOM     17  H   UNL     1      34.562 -25.016 -16.048  0.00  0.00    +0.156 HD
ATOM     18  N   UNL     1      36.273 -25.964 -14.494  0.00  0.00    -0.229 NA
ATOM     19  C   UNL     1      35.722 -24.742 -14.380  0.00  0.00    +0.134 C 
ATOM     20  C   UNL     1      36.014 -23.828 -13.390  0.00  0.00    +0.034 C 
ATOM     21  C   UNL     1      36.953 -24.200 -12.436  0.00  0.00    +0.004 C 
ATOM     22  C   UNL     1      37.553 -25.452 -12.508  0.00  0.00    +0.021 C 
ATOM     23  C   UNL     1      37.181 -26.290 -13.547  0.00  0.00    +0.100 C 
ENDBRANCH  13  16
ENDBRANCH   1  13
TORSDOF 3
ENDMDL
MODEL 8
REMARK VINA RESULT:     -11.8      3.917      6.628
REMARK  Name = 100472
REMARK  3 active torsions:
REMARK  status: ('A' for Active; 'I' for Inactive)
REMARK    1  A    between atoms: C_1  and  C_13
REMARK    2  A    between atoms: C_2  and  C_7
REMARK    3  A    between atoms: C_13  and  C_16
REMARK                            x       y       z     vdW  Elec       q    Type
REMARK                         _______ _______ _______ _____ _____    ______ ____
ROOT
ATOM      1  C   UNL     1      33.907 -21.786 -18.963  0.00  0.00    -0.013 C 
ATOM      2  C   UNL     1      34.124 -19.584 -20.663  0.00  0.00    -0.000 C 
ATOM      3  C   UNL     1      35.166 -21.303 -19.322  0.00  0.00    -0.004 C 
ATOM      4  C   UNL     1      32.757 -21.168 -19.454  0.00  0.00    -0.004 C 
ATOM      5  C   UNL     1      35.274 -20.202 -20.172  0.00  0.00    -0.000 C 
ATOM      6  C   UNL     1      32.866 -20.067 -20.304  0.00  0.00    -0.000 C 
ENDROOT
BRANCH   2   7
ATOM      7  C   UNL     1      34.236 -18.443 -21.546  0.00  0.00    -0.000 C 
ATOM      8  C   UNL     1      33.943 -18.578 -22.902  0.00  0.00    -0.000 C 
ATOM      9  C   UNL     1      34.638 -17.207 -21.039  0.00  0.00    -0.000 C 
ATOM     10  C   UNL     1      34.051 -17.478 -23.753  0.00  0.00    +0.000 C 
ATOM     11  C   UNL     1      34.745 -16.106 -21.888  0.00  0.00    +0.000 C 
ATOM     12  C   UNL     1      34.451 -16.242 -23.246  0.00  0.00    +0.000 C 
ENDBRANCH   2   7
BRANCH   1  13
ATOM     13  C   UNL     1      33.792 -22.963 -18.054  0.00  0.00    +0.112 C 
BRANCH  13  16
ATOM     14  O   UNL     1      33.395 -22.599 -15.704  0.00  0.00    -0.274 OA
ATOM     15  N   UNL     1      31.571 -22.646 -17.183  0.00  0.00    -0.269 N 
ATOM     16  C   UNL     1      32.916 -22.715 -16.828  0.00  0.00    +0.232 C 
ATOM     17  H   UNL     1      31.367 -22.763 -18.140  0.00  0.00    +0.156 HD
ATOM     18  N   UNL     1      29.238 -22.399 -16.883  0.00  0.00    -0.229 NA
ATOM     19  C   UNL     1      30.464 -22.429 -16.330  0.00  0.00    +0.134 C 
ATOM     20  C   UNL     1      30.734 -22.262 -14.988  0.00  0.00    +0.034 C 
ATOM     21  C   UNL     1      29.653 -22.047 -14.142  0.00  0.00    +0.004 C 
ATOM     22  C   UNL     1      28.365 -22.006 -14.664  0.00  0.00    +0.021 C 
ATOM     23  C   UNL     1      28.213 -22.186 -16.029  0.00  0.00    +0.100 C 
ENDBRANCH  13  16
ENDBRANCH   1  13
TORSDOF 3
ENDMDL
MODEL 9
REMARK VINA RESULT:     -11.8      3.712      6.288
REMARK  Name = 100472
REMARK  3 active torsions:
REMARK  status: ('A' for Active; 'I' for Inactive)
REMARK    1  A    between atoms: C_1  and  C_13
REMARK    2  A    between atoms: C_2  and  C_7
REMARK    3  A    between atoms: C_13  and  C_16
REMARK                            x       y       z     vdW  Elec       q    Type
REMARK                         _______ _______ _______ _____ _____    ______ ____
ROOT
ATOM      1  C   UNL     1      34.136 -21.276 -19.132  0.00  0.00    -0.013 C 
ATOM      2  C   UNL     1      34.199 -19.235 -21.034  0.00  0.00    -0.000 C 
ATOM      3  C   UNL     1      35.359 -20.760 -19.562  0.00  0.00    -0.004 C 
ATOM      4  C   UNL     1      32.945 -20.771 -19.654  0.00  0.00    -0.004 C 
ATOM      5  C   UNL     1      35.390 -19.740 -20.512  0.00  0.00    -0.000 C 
ATOM      6  C   UNL     1      32.976 -19.751 -20.604  0.00  0.00    -0.000 C 
ENDROOT
BRANCH   2   7
ATOM      7  C   UNL     1      34.231 -18.177 -22.020  0.00  0.00    -0.000 C 
ATOM      8  C   UNL     1      33.819 -18.429 -23.328  0.00  0.00    -0.000 C 
ATOM      9  C   UNL     1      34.676 -16.904 -21.662  0.00  0.00    -0.000 C 
ATOM     10  C   UNL     1      33.850 -17.409 -24.279  0.00  0.00    +0.000 C 
ATOM     11  C   UNL     1      34.706 -15.883 -22.613  0.00  0.00    +0.000 C 
ATOM     12  C   UNL     1      34.293 -16.137 -23.921  0.00  0.00    +0.000 C 
ENDBRANCH   2   7
BRANCH   1  13
ATOM     13  C   UNL     1      34.102 -22.367 -18.116  0.00  0.00    +0.112 C 
BRANCH  13  16
ATOM     14  O   UNL     1      31.736 -22.017 -17.815  0.00  0.00    -0.274 OA
ATOM     15  N   UNL     1      32.958 -23.111 -16.135  0.00  0.00    -0.269 N 
ATOM     16  C   UNL     1      32.782 -22.465 -17.356  0.00  0.00    +0.232 C 
ATOM     17  H   UNL     1      33.874 -23.408 -15.927  0.00  0.00    +0.156 HD
ATOM     18  N   UNL     1      32.361 -24.030 -14.039  0.00  0.00    -0.229 NA
ATOM     19  C   UNL     1      31.974 -23.391 -15.157  0.00  0.00    +0.134 C 
ATOM     20  C   UNL     1      30.686 -22.984 -15.435  0.00  0.00    +0.034 C 
ATOM     21  C   UNL     1      29.712 -23.255 -14.482  0.00  0.00    +0.004 C 
ATOM     22  C   UNL     1      30.060 -23.914 -13.307  0.00  0.00    +0.021 C 
ATOM     23  C   UNL     1      31.386 -24.277 -13.136  0.00  0.00    +0.100 C 
ENDBRANCH  13  16
ENDBRANCH   1  13
TORSDOF 3
ENDMDL
