MODEL 1
REMARK VINA RESULT:     -10.9      0.000      0.000
REMARK  Name = 17756743
REMARK  5 active torsions:
REMARK  status: ('A' for Active; 'I' for Inactive)
REMARK    1  A    between atoms: C_6  and  C_10
REMARK    2  A    between atoms: C_7  and  C_16
REMARK    3  A    between atoms: N_22  and  C_24
REMARK    4  A    between atoms: C_24  and  C_25
REMARK    5  A    between atoms: C_25  and  N_26
REMARK                            x       y       z     vdW  Elec       q    Type
REMARK                         _______ _______ _______ _____ _____    ______ ____
ROOT
ATOM      1  O   UNL     1      31.728 -22.587 -16.800  0.00  0.00    -0.440 OA
ATOM      2  N   UNL     1      32.021 -24.246 -13.127  0.00  0.00    -0.233 NA
ATOM      3  N   UNL     1      30.581 -23.658 -15.001  0.00  0.00    -0.214 NA
ATOM      4  C   UNL     1      32.975 -23.172 -15.014  0.00  0.00    +0.155 C 
ATOM      5  C   UNL     1      33.110 -23.737 -13.748  0.00  0.00    +0.115 C 
ATOM      6  C   UNL     1      33.820 -22.557 -15.969  0.00  0.00    +0.028 C 
ATOM      7  C   UNL     1      33.015 -22.221 -17.033  0.00  0.00    +0.144 C 
ATOM      8  C   UNL     1      31.698 -23.170 -15.567  0.00  0.00    +0.214 C 
ATOM      9  C   UNL     1      30.841 -24.176 -13.782  0.00  0.00    +0.254 C 
ATOM     10  N   UNL     1      34.342 -23.786 -13.114  0.00  0.00    -0.323 N 
ATOM     11  H   UNL     1      35.122 -23.412 -13.585  0.00  0.00    +0.148 HD
ENDROOT
BRANCH   6  12
ATOM     12  C   UNL     1      35.230 -22.293 -15.932  0.00  0.00    -0.000 C 
ATOM     13  C   UNL     1      35.714 -21.032 -16.281  0.00  0.00    -0.000 C 
ATOM     14  C   UNL     1      36.118 -23.297 -15.545  0.00  0.00    -0.000 C 
ATOM     15  C   UNL     1      37.084 -20.776 -16.245  0.00  0.00    -0.000 C 
ATOM     16  C   UNL     1      37.488 -23.042 -15.508  0.00  0.00    -0.000 C 
ATOM     17  C   UNL     1      37.972 -21.781 -15.858  0.00  0.00    -0.000 C 
ENDBRANCH   6  12
BRANCH   7  18
ATOM     18  C   UNL     1      33.236 -21.582 -18.303  0.00  0.00    +0.034 C 
ATOM     19  C   UNL     1      34.499 -21.627 -18.895  0.00  0.00    +0.003 C 
ATOM     20  C   UNL     1      32.189 -20.919 -18.942  0.00  0.00    +0.003 C 
ATOM     21  C   UNL     1      34.714 -21.007 -20.127  0.00  0.00    +0.000 C 
ATOM     22  C   UNL     1      32.405 -20.299 -20.174  0.00  0.00    +0.000 C 
ATOM     23  C   UNL     1      33.667 -20.343 -20.765  0.00  0.00    +0.000 C 
ENDBRANCH   7  18
BRANCH  10  24
ATOM     24  C   UNL     1      34.547 -24.358 -11.805  0.00  0.00    +0.065 C 
BRANCH  24  25
ATOM     25  C   UNL     1      36.011 -24.216 -11.408  0.00  0.00    -0.056 C 
BRANCH  25  26
ATOM     26  N   UNL     1      36.878 -24.591 -12.522  0.00  0.00    +0.385 N 
ATOM     27  N   UNL     1      39.043 -26.103 -13.718  0.00  0.00    +0.381 N 
ATOM     28  C   UNL     1      36.723 -26.014 -12.847  0.00  0.00    -0.101 C 
ATOM     29  C   UNL     1      38.282 -24.280 -12.220  0.00  0.00    -0.101 C 
ATOM     30  C   UNL     1      37.641 -26.409 -14.008  0.00  0.00    -0.105 C 
ATOM     31  C   UNL     1      39.189 -24.684 -13.383  0.00  0.00    -0.105 C 
ATOM     32  H   UNL     1      36.599 -24.045 -13.338  0.00  0.00    -0.080 HD
ATOM     33  H   UNL     1      39.612 -26.317 -14.536  0.00  0.00    -0.085 HD
ATOM     34  H   UNL     1      39.351 -26.665 -12.924  0.00  0.00    -0.085 HD
ENDBRANCH  25  26
ENDBRANCH  24  25
ENDBRANCH  10  24
TORSDOF 5
ENDMDL
MODEL 2
REMARK VINA RESULT:     -10.1     13.943     17.401
REMARK  Name = 17756743
REMARK  5 active torsions:
REMARK  status: ('A' for Active; 'I' for Inactive)
REMARK    1  A    between atoms: C_6  and  C_10
REMARK    2  A    between atoms: C_7  and  C_16
REMARK    3  A    between atoms: N_22  and  C_24
REMARK    4  A    between atoms: C_24  and  C_25
REMARK    5  A    between atoms: C_25  and  N_26
REMARK                            x       y       z     vdW  Elec       q    Type
REMARK                         _______ _______ _______ _____ _____    ______ ____
ROOT
ATOM      1  O   UNL     1      30.839  -6.470 -21.023  0.00  0.00    -0.440 OA
ATOM      2  N   UNL     1      32.045 -10.301 -21.465  0.00  0.00    -0.233 NA
ATOM      3  N   UNL     1      30.903  -8.659 -20.074  0.00  0.00    -0.214 NA
ATOM      4  C   UNL     1      31.875  -8.064 -22.235  0.00  0.00    +0.155 C 
ATOM      5  C   UNL     1      32.304  -9.377 -22.418  0.00  0.00    +0.115 C 
ATOM      6  C   UNL     1      31.936  -6.845 -22.953  0.00  0.00    +0.028 C 
ATOM      7  C   UNL     1      31.294  -5.911 -22.175  0.00  0.00    +0.144 C 
ATOM      8  C   UNL     1      31.191  -7.787 -21.055  0.00  0.00    +0.214 C 
ATOM      9  C   UNL     1      31.370  -9.891 -20.367  0.00  0.00    +0.254 C 
ATOM     10  N   UNL     1      32.994  -9.751 -23.561  0.00  0.00    -0.323 N 
ATOM     11  H   UNL     1      33.171  -9.064 -24.243  0.00  0.00    +0.148 HD
ENDROOT
BRANCH   6  12
ATOM     12  C   UNL     1      32.521  -6.544 -24.228  0.00  0.00    -0.000 C 
ATOM     13  C   UNL     1      33.902  -6.390 -24.344  0.00  0.00    -0.000 C 
ATOM     14  C   UNL     1      31.707  -6.406 -25.353  0.00  0.00    -0.000 C 
ATOM     15  C   UNL     1      34.470  -6.096 -25.583  0.00  0.00    -0.000 C 
ATOM     16  C   UNL     1      32.275  -6.113 -26.593  0.00  0.00    -0.000 C 
ATOM     17  C   UNL     1      33.656  -5.958 -26.708  0.00  0.00    -0.000 C 
ENDBRANCH   6  12
BRANCH   7  18
ATOM     18  C   UNL     1      31.007  -4.507 -22.313  0.00  0.00    +0.034 C 
ATOM     19  C   UNL     1      31.795  -3.715 -23.150  0.00  0.00    +0.003 C 
ATOM     20  C   UNL     1      29.946  -3.939 -21.611  0.00  0.00    +0.003 C 
ATOM     21  C   UNL     1      31.519  -2.354 -23.284  0.00  0.00    +0.000 C 
ATOM     22  C   UNL     1      29.670  -2.577 -21.745  0.00  0.00    +0.000 C 
ATOM     23  C   UNL     1      30.457  -1.786 -22.581  0.00  0.00    +0.000 C 
ENDBRANCH   7  18
BRANCH  10  24
ATOM     24  C   UNL     1      33.464 -11.093 -23.809  0.00  0.00    +0.065 C 
BRANCH  24  25
ATOM     25  C   UNL     1      32.275 -12.024 -24.009  0.00  0.00    -0.056 C 
BRANCH  25  26
ATOM     26  N   UNL     1      32.659 -13.406 -23.731  0.00  0.00    +0.385 N 
ATOM     27  N   UNL     1      34.540 -15.611 -23.700  0.00  0.00    +0.381 N 
ATOM     28  C   UNL     1      33.755 -13.457 -22.756  0.00  0.00    -0.101 C 
ATOM     29  C   UNL     1      33.035 -14.103 -24.968  0.00  0.00    -0.101 C 
ATOM     30  C   UNL     1      34.163 -14.906 -22.474  0.00  0.00    -0.105 C 
ATOM     31  C   UNL     1      33.446 -15.547 -24.673  0.00  0.00    -0.105 C 
ATOM     32  H   UNL     1      31.851 -13.883 -23.329  0.00  0.00    -0.080 HD
ATOM     33  H   UNL     1      34.740 -16.586 -23.481  0.00  0.00    -0.085 HD
ATOM     34  H   UNL     1      35.367 -15.168 -24.100  0.00  0.00    -0.085 HD
ENDBRANCH  25  26
ENDBRANCH  24  25
ENDBRANCH  10  24
TORSDOF 5
ENDMDL
MODEL 3
REMARK VINA RESULT:      -9.9      2.283      4.760
REMARK  Name = 17756743
REMARK  5 active torsions:
REMARK  status: ('A' for Active; 'I' for Inactive)
REMARK    1  A    between atoms: C_6  and  C_10
REMARK    2  A    between atoms: C_7  and  C_16
REMARK    3  A    between atoms: N_22  and  C_24
REMARK    4  A    between atoms: C_24  and  C_25
REMARK    5  A    between atoms: C_25  and  N_26
REMARK                            x       y       z     vdW  Elec       q    Type
REMARK                         _______ _______ _______ _____ _____    ______ ____
ROOT
ATOM      1  O   UNL     1      31.785 -22.243 -17.954  0.00  0.00    -0.440 OA
ATOM      2  N   UNL     1      35.766 -21.592 -18.183  0.00  0.00    -0.233 NA
ATOM      3  N   UNL     1      33.618 -21.574 -19.330  0.00  0.00    -0.214 NA
ATOM      4  C   UNL     1      33.821 -22.226 -16.985  0.00  0.00    +0.155 C 
ATOM      5  C   UNL     1      35.196 -22.011 -17.030  0.00  0.00    +0.115 C 
ATOM      6  C   UNL     1      32.869 -22.645 -16.023  0.00  0.00    +0.028 C 
ATOM      7  C   UNL     1      31.651 -22.638 -16.661  0.00  0.00    +0.144 C 
ATOM      8  C   UNL     1      33.110 -21.990 -18.157  0.00  0.00    +0.214 C 
ATOM      9  C   UNL     1      34.953 -21.402 -19.247  0.00  0.00    +0.254 C 
ATOM     10  N   UNL     1      35.991 -22.219 -15.913  0.00  0.00    -0.323 N 
ATOM     11  H   UNL     1      35.555 -22.523 -15.084  0.00  0.00    +0.148 HD
ENDROOT
BRANCH   6  12
ATOM     12  C   UNL     1      33.038 -23.019 -14.648  0.00  0.00    -0.000 C 
ATOM     13  C   UNL     1      32.225 -22.454 -13.666  0.00  0.00    -0.000 C 
ATOM     14  C   UNL     1      34.017 -23.949 -14.293  0.00  0.00    -0.000 C 
ATOM     15  C   UNL     1      32.390 -22.817 -12.329  0.00  0.00    -0.000 C 
ATOM     16  C   UNL     1      34.182 -24.312 -12.957  0.00  0.00    -0.000 C 
ATOM     17  C   UNL     1      33.368 -23.747 -11.975  0.00  0.00    -0.000 C 
ENDBRANCH   6  12
BRANCH   7  18
ATOM     18  C   UNL     1      30.304 -22.951 -16.267  0.00  0.00    +0.034 C 
ATOM     19  C   UNL     1      29.290 -22.008 -16.443  0.00  0.00    +0.003 C 
ATOM     20  C   UNL     1      30.010 -24.194 -15.709  0.00  0.00    +0.003 C 
ATOM     21  C   UNL     1      27.982 -22.309 -16.060  0.00  0.00    +0.000 C 
ATOM     22  C   UNL     1      28.702 -24.496 -15.326  0.00  0.00    +0.000 C 
ATOM     23  C   UNL     1      27.689 -23.553 -15.501  0.00  0.00    +0.000 C 
ENDBRANCH   7  18
BRANCH  10  24
ATOM     24  C   UNL     1      37.419 -22.014 -15.897  0.00  0.00    +0.065 C 
BRANCH  24  25
ATOM     25  C   UNL     1      38.125 -23.347 -15.683  0.00  0.00    -0.056 C 
BRANCH  25  26
ATOM     26  N   UNL     1      37.515 -24.072 -14.571  0.00  0.00    +0.385 N 
ATOM     27  N   UNL     1      37.583 -25.935 -12.351  0.00  0.00    +0.381 N 
ATOM     28  C   UNL     1      38.160 -23.718 -13.301  0.00  0.00    -0.101 C 
ATOM     29  C   UNL     1      37.577 -25.523 -14.796  0.00  0.00    -0.101 C 
ATOM     30  C   UNL     1      37.527 -24.487 -12.137  0.00  0.00    -0.105 C 
ATOM     31  C   UNL     1      36.947 -26.280 -13.625  0.00  0.00    -0.105 C 
ATOM     32  H   UNL     1      36.533 -23.800 -14.517  0.00  0.00    -0.080 HD
ATOM     33  H   UNL     1      37.095 -26.408 -11.591  0.00  0.00    -0.085 HD
ATOM     34  H   UNL     1      38.559 -26.232 -12.374  0.00  0.00    -0.085 HD
ENDBRANCH  25  26
ENDBRANCH  24  25
ENDBRANCH  10  24
TORSDOF 5
ENDMDL
MODEL 4
REMARK VINA RESULT:      -9.8      2.791      6.955
REMARK  Name = 17756743
REMARK  5 active torsions:
REMARK  status: ('A' for Active; 'I' for Inactive)
REMARK    1  A    between atoms: C_6  and  C_10
REMARK    2  A    between atoms: C_7  and  C_16
REMARK    3  A    between atoms: N_22  and  C_24
REMARK    4  A    between atoms: C_24  and  C_25
REMARK    5  A    between atoms: C_25  and  N_26
REMARK                            x       y       z     vdW  Elec       q    Type
REMARK                         _______ _______ _______ _____ _____    ______ ____
ROOT
ATOM      1  O   UNL     1      32.670 -23.906 -13.630  0.00  0.00    -0.440 OA
ATOM      2  N   UNL     1      31.030 -22.500 -17.045  0.00  0.00    -0.233 NA
ATOM      3  N   UNL     1      30.677 -23.628 -14.915  0.00  0.00    -0.214 NA
ATOM      4  C   UNL     1      32.890 -22.871 -15.621  0.00  0.00    +0.155 C 
ATOM      5  C   UNL     1      32.356 -22.375 -16.809  0.00  0.00    +0.115 C 
ATOM      6  C   UNL     1      34.165 -22.942 -15.010  0.00  0.00    +0.028 C 
ATOM      7  C   UNL     1      33.977 -23.579 -13.806  0.00  0.00    +0.144 C 
ATOM      8  C   UNL     1      32.001 -23.474 -14.738  0.00  0.00    +0.214 C 
ATOM      9  C   UNL     1      30.283 -23.110 -16.097  0.00  0.00    +0.254 C 
ATOM     10  N   UNL     1      33.161 -21.756 -17.752  0.00  0.00    -0.323 N 
ATOM     11  H   UNL     1      34.123 -21.675 -17.560  0.00  0.00    +0.148 HD
ENDROOT
BRANCH   6  12
ATOM     12  C   UNL     1      35.444 -22.479 -15.467  0.00  0.00    -0.000 C 
ATOM     13  C   UNL     1      36.582 -23.261 -15.268  0.00  0.00    -0.000 C 
ATOM     14  C   UNL     1      35.550 -21.246 -16.111  0.00  0.00    -0.000 C 
ATOM     15  C   UNL     1      37.825 -22.810 -15.712  0.00  0.00    -0.000 C 
ATOM     16  C   UNL     1      36.792 -20.795 -16.555  0.00  0.00    -0.000 C 
ATOM     17  C   UNL     1      37.930 -21.577 -16.356  0.00  0.00    -0.000 C 
ENDBRANCH   6  12
BRANCH   7  18
ATOM     18  C   UNL     1      34.841 -23.963 -12.721  0.00  0.00    +0.034 C 
ATOM     19  C   UNL     1      34.751 -23.306 -11.493  0.00  0.00    +0.003 C 
ATOM     20  C   UNL     1      35.767 -24.989 -12.896  0.00  0.00    +0.003 C 
ATOM     21  C   UNL     1      35.589 -23.676 -10.441  0.00  0.00    +0.000 C 
ATOM     22  C   UNL     1      36.605 -25.360 -11.844  0.00  0.00    +0.000 C 
ATOM     23  C   UNL     1      36.516 -24.703 -10.617  0.00  0.00    +0.000 C 
ENDBRANCH   7  18
BRANCH  10  24
ATOM     24  C   UNL     1      32.669 -21.223 -19.000  0.00  0.00    +0.065 C 
BRANCH  24  25
ATOM     25  C   UNL     1      33.766 -21.291 -20.054  0.00  0.00    -0.056 C 
BRANCH  25  26
ATOM     26  N   UNL     1      34.362 -19.971 -20.253  0.00  0.00    +0.385 N 
ATOM     27  N   UNL     1      36.005 -18.066 -21.693  0.00  0.00    +0.381 N 
ATOM     28  C   UNL     1      33.908 -19.378 -21.516  0.00  0.00    -0.101 C 
ATOM     29  C   UNL     1      35.829 -20.050 -20.216  0.00  0.00    -0.101 C 
ATOM     30  C   UNL     1      34.542 -18.000 -21.727  0.00  0.00    -0.105 C 
ATOM     31  C   UNL     1      36.451 -18.669 -20.434  0.00  0.00    -0.105 C 
ATOM     32  H   UNL     1      34.056 -19.368 -19.488  0.00  0.00    -0.080 HD
ATOM     33  H   UNL     1      36.387 -17.124 -21.770  0.00  0.00    -0.085 HD
ATOM     34  H   UNL     1      36.332 -18.638 -22.471  0.00  0.00    -0.085 HD
ENDBRANCH  25  26
ENDBRANCH  24  25
ENDBRANCH  10  24
TORSDOF 5
ENDMDL
MODEL 5
REMARK VINA RESULT:      -9.6      1.930      4.225
REMARK  Name = 17756743
REMARK  5 active torsions:
REMARK  status: ('A' for Active; 'I' for Inactive)
REMARK    1  A    between atoms: C_6  and  C_10
REMARK    2  A    between atoms: C_7  and  C_16
REMARK    3  A    between atoms: N_22  and  C_24
REMARK    4  A    between atoms: C_24  and  C_25
REMARK    5  A    between atoms: C_25  and  N_26
REMARK                            x       y       z     vdW  Elec       q    Type
REMARK                         _______ _______ _______ _____ _____    ______ ____
ROOT
ATOM      1  O   UNL     1      31.474 -23.643 -13.617  0.00  0.00    -0.440 OA
ATOM      2  N   UNL     1      35.434 -23.233 -12.920  0.00  0.00    -0.233 NA
ATOM      3  N   UNL     1      33.258 -23.894 -12.049  0.00  0.00    -0.214 NA
ATOM      4  C   UNL     1      33.532 -23.057 -14.327  0.00  0.00    +0.155 C 
ATOM      5  C   UNL     1      34.902 -22.904 -14.120  0.00  0.00    +0.115 C 
ATOM      6  C   UNL     1      32.615 -22.841 -15.384  0.00  0.00    +0.028 C 
ATOM      7  C   UNL     1      31.382 -23.212 -14.902  0.00  0.00    +0.144 C 
ATOM      8  C   UNL     1      32.788 -23.550 -13.261  0.00  0.00    +0.214 C 
ATOM      9  C   UNL     1      34.591 -23.701 -11.973  0.00  0.00    +0.254 C 
ATOM     10  N   UNL     1      35.728 -22.419 -15.123  0.00  0.00    -0.323 N 
ATOM     11  H   UNL     1      35.320 -22.187 -15.988  0.00  0.00    +0.148 HD
ENDROOT
BRANCH   6  12
ATOM     12  C   UNL     1      32.826 -22.345 -16.714  0.00  0.00    -0.000 C 
ATOM     13  C   UNL     1      31.763 -21.800 -17.433  0.00  0.00    -0.000 C 
ATOM     14  C   UNL     1      34.096 -22.409 -17.288  0.00  0.00    -0.000 C 
ATOM     15  C   UNL     1      31.968 -21.318 -18.725  0.00  0.00    -0.000 C 
ATOM     16  C   UNL     1      34.302 -21.927 -18.581  0.00  0.00    -0.000 C 
ATOM     17  C   UNL     1      33.238 -21.382 -19.300  0.00  0.00    -0.000 C 
ENDBRANCH   6  12
BRANCH   7  18
ATOM     18  C   UNL     1      30.051 -23.241 -15.448  0.00  0.00    +0.034 C 
ATOM     19  C   UNL     1      29.316 -22.060 -15.556  0.00  0.00    +0.003 C 
ATOM     20  C   UNL     1      29.495 -24.449 -15.869  0.00  0.00    +0.003 C 
ATOM     21  C   UNL     1      28.025 -22.087 -16.085  0.00  0.00    +0.000 C 
ATOM     22  C   UNL     1      28.204 -24.476 -16.398  0.00  0.00    +0.000 C 
ATOM     23  C   UNL     1      27.470 -23.295 -16.505  0.00  0.00    +0.000 C 
ENDBRANCH   7  18
BRANCH  10  24
ATOM     24  C   UNL     1      37.151 -22.238 -14.969  0.00  0.00    +0.065 C 
BRANCH  24  25
ATOM     25  C   UNL     1      37.890 -23.361 -15.686  0.00  0.00    -0.056 C 
BRANCH  25  26
ATOM     26  N   UNL     1      38.017 -24.525 -14.812  0.00  0.00    +0.385 N 
ATOM     27  N   UNL     1      37.169 -26.212 -12.613  0.00  0.00    +0.381 N 
ATOM     28  C   UNL     1      36.845 -25.399 -14.933  0.00  0.00    -0.101 C 
ATOM     29  C   UNL     1      38.212 -24.111 -13.416  0.00  0.00    -0.101 C 
ATOM     30  C   UNL     1      36.975 -26.613 -14.008  0.00  0.00    -0.105 C 
ATOM     31  C   UNL     1      38.335 -25.331 -12.501  0.00  0.00    -0.105 C 
ATOM     32  H   UNL     1      38.840 -25.052 -15.106  0.00  0.00    -0.080 HD
ATOM     33  H   UNL     1      37.318 -27.042 -12.040  0.00  0.00    -0.085 HD
ATOM     34  H   UNL     1      36.341 -25.712 -12.290  0.00  0.00    -0.085 HD
ENDBRANCH  25  26
ENDBRANCH  24  25
ENDBRANCH  10  24
TORSDOF 5
ENDMDL
MODEL 6
REMARK VINA RESULT:      -8.9      3.601      7.359
REMARK  Name = 17756743
REMARK  5 active torsions:
REMARK  status: ('A' for Active; 'I' for Inactive)
REMARK    1  A    between atoms: C_6  and  C_10
REMARK    2  A    between atoms: C_7  and  C_16
REMARK    3  A    between atoms: N_22  and  C_24
REMARK    4  A    between atoms: C_24  and  C_25
REMARK    5  A    between atoms: C_25  and  N_26
REMARK                            x       y       z     vdW  Elec       q    Type
REMARK                         _______ _______ _______ _____ _____    ______ ____
ROOT
ATOM      1  O   UNL     1      31.091 -22.032 -17.232  0.00  0.00    -0.440 OA
ATOM      2  N   UNL     1      33.475 -20.577 -20.153  0.00  0.00    -0.233 NA
ATOM      3  N   UNL     1      31.204 -20.920 -19.342  0.00  0.00    -0.214 NA
ATOM      4  C   UNL     1      33.152 -21.666 -18.071  0.00  0.00    +0.155 C 
ATOM      5  C   UNL     1      34.002 -21.175 -19.060  0.00  0.00    +0.115 C 
ATOM      6  C   UNL     1      33.286 -22.328 -16.827  0.00  0.00    +0.028 C 
ATOM      7  C   UNL     1      32.008 -22.526 -16.360  0.00  0.00    +0.144 C 
ATOM      8  C   UNL     1      31.787 -21.504 -18.281  0.00  0.00    +0.214 C 
ATOM      9  C   UNL     1      32.127 -20.488 -20.226  0.00  0.00    +0.254 C 
ATOM     10  N   UNL     1      35.378 -21.289 -18.942  0.00  0.00    -0.323 N 
ATOM     11  H   UNL     1      35.741 -21.726 -18.138  0.00  0.00    +0.148 HD
ENDROOT
BRANCH   6  12
ATOM     12  C   UNL     1      34.460 -22.746 -16.116  0.00  0.00    -0.000 C 
ATOM     13  C   UNL     1      35.527 -21.863 -15.948  0.00  0.00    -0.000 C 
ATOM     14  C   UNL     1      34.535 -24.038 -15.592  0.00  0.00    -0.000 C 
ATOM     15  C   UNL     1      36.668 -22.271 -15.258  0.00  0.00    -0.000 C 
ATOM     16  C   UNL     1      35.676 -24.445 -14.902  0.00  0.00    -0.000 C 
ATOM     17  C   UNL     1      36.743 -23.562 -14.735  0.00  0.00    -0.000 C 
ENDBRANCH   6  12
BRANCH   7  18
ATOM     18  C   UNL     1      31.446 -23.129 -15.180  0.00  0.00    +0.034 C 
ATOM     19  C   UNL     1      30.591 -24.225 -15.298  0.00  0.00    +0.003 C 
ATOM     20  C   UNL     1      31.755 -22.618 -13.920  0.00  0.00    +0.003 C 
ATOM     21  C   UNL     1      30.045 -24.810 -14.154  0.00  0.00    +0.000 C 
ATOM     22  C   UNL     1      31.209 -23.203 -12.777  0.00  0.00    +0.000 C 
ATOM     23  C   UNL     1      30.354 -24.298 -12.895  0.00  0.00    +0.000 C 
ENDBRANCH   7  18
BRANCH  10  24
ATOM     24  C   UNL     1      36.310 -20.801 -19.931  0.00  0.00    +0.065 C 
BRANCH  24  25
ATOM     25  C   UNL     1      36.310 -19.278 -19.926  0.00  0.00    -0.056 C 
BRANCH  25  26
ATOM     26  N   UNL     1      35.321 -18.766 -20.872  0.00  0.00    +0.385 N 
ATOM     27  N   UNL     1      34.534 -17.370 -23.287  0.00  0.00    +0.381 N 
ATOM     28  C   UNL     1      35.502 -19.375 -22.195  0.00  0.00    -0.101 C 
ATOM     29  C   UNL     1      35.393 -17.302 -20.963  0.00  0.00    -0.101 C 
ATOM     30  C   UNL     1      34.471 -18.830 -23.189  0.00  0.00    -0.105 C 
ATOM     31  C   UNL     1      34.364 -16.769 -21.962  0.00  0.00    -0.105 C 
ATOM     32  H   UNL     1      34.395 -19.019 -20.528  0.00  0.00    -0.080 HD
ATOM     33  H   UNL     1      33.792 -17.041 -23.905  0.00  0.00    -0.085 HD
ATOM     34  H   UNL     1      35.443 -17.099 -23.662  0.00  0.00    -0.085 HD
ENDBRANCH  25  26
ENDBRANCH  24  25
ENDBRANCH  10  24
TORSDOF 5
ENDMDL
MODEL 7
REMARK VINA RESULT:      -8.7      2.764      7.319
REMARK  Name = 17756743
REMARK  5 active torsions:
REMARK  status: ('A' for Active; 'I' for Inactive)
REMARK    1  A    between atoms: C_6  and  C_10
REMARK    2  A    between atoms: C_7  and  C_16
REMARK    3  A    between atoms: N_22  and  C_24
REMARK    4  A    between atoms: C_24  and  C_25
REMARK    5  A    between atoms: C_25  and  N_26
REMARK                            x       y       z     vdW  Elec       q    Type
REMARK                         _______ _______ _______ _____ _____    ______ ____
ROOT
ATOM      1  O   UNL     1      34.141 -24.562 -12.933  0.00  0.00    -0.440 OA
ATOM      2  N   UNL     1      30.401 -23.582 -14.109  0.00  0.00    -0.233 NA
ATOM      3  N   UNL     1      31.805 -24.689 -12.455  0.00  0.00    -0.214 NA
ATOM      4  C   UNL     1      32.754 -23.566 -14.406  0.00  0.00    +0.155 C 
ATOM      5  C   UNL     1      31.477 -23.212 -14.839  0.00  0.00    +0.115 C 
ATOM      6  C   UNL     1      34.085 -23.386 -14.853  0.00  0.00    +0.028 C 
ATOM      7  C   UNL     1      34.887 -24.009 -13.925  0.00  0.00    +0.144 C 
ATOM      8  C   UNL     1      32.835 -24.293 -13.223  0.00  0.00    +0.214 C 
ATOM      9  C   UNL     1      30.628 -24.288 -12.978  0.00  0.00    +0.254 C 
ATOM     10  N   UNL     1      31.293 -22.487 -16.007  0.00  0.00    -0.323 N 
ATOM     11  H   UNL     1      32.091 -22.227 -16.522  0.00  0.00    +0.148 HD
ENDROOT
BRANCH   6  12
ATOM     12  C   UNL     1      34.596 -22.713 -16.013  0.00  0.00    -0.000 C 
ATOM     13  C   UNL     1      35.804 -22.020 -15.943  0.00  0.00    -0.000 C 
ATOM     14  C   UNL     1      33.883 -22.752 -17.212  0.00  0.00    -0.000 C 
ATOM     15  C   UNL     1      36.299 -21.366 -17.070  0.00  0.00    -0.000 C 
ATOM     16  C   UNL     1      34.378 -22.098 -18.339  0.00  0.00    -0.000 C 
ATOM     17  C   UNL     1      35.586 -21.405 -18.269  0.00  0.00    -0.000 C 
ENDBRANCH   6  12
BRANCH   7  18
ATOM     18  C   UNL     1      36.306 -24.196 -13.781  0.00  0.00    +0.034 C 
ATOM     19  C   UNL     1      36.997 -23.531 -12.766  0.00  0.00    +0.003 C 
ATOM     20  C   UNL     1      36.992 -25.039 -14.654  0.00  0.00    +0.003 C 
ATOM     21  C   UNL     1      38.374 -23.711 -12.626  0.00  0.00    +0.000 C 
ATOM     22  C   UNL     1      38.368 -25.219 -14.514  0.00  0.00    +0.000 C 
ATOM     23  C   UNL     1      39.059 -24.555 -13.500  0.00  0.00    +0.000 C 
ENDBRANCH   7  18
BRANCH  10  24
ATOM     24  C   UNL     1      29.999 -22.091 -16.508  0.00  0.00    +0.065 C 
BRANCH  24  25
ATOM     25  C   UNL     1      29.088 -23.309 -16.590  0.00  0.00    -0.056 C 
BRANCH  25  26
ATOM     26  N   UNL     1      27.686 -22.899 -16.536  0.00  0.00    +0.385 N 
ATOM     27  N   UNL     1      25.571 -20.917 -16.502  0.00  0.00    +0.381 N 
ATOM     28  C   UNL     1      27.309 -22.168 -17.752  0.00  0.00    -0.101 C 
ATOM     29  C   UNL     1      27.425 -22.084 -15.341  0.00  0.00    -0.101 C 
ATOM     30  C   UNL     1      25.842 -21.731 -17.689  0.00  0.00    -0.105 C 
ATOM     31  C   UNL     1      25.960 -21.648 -15.292  0.00  0.00    -0.105 C 
ATOM     32  H   UNL     1      27.113 -23.741 -16.479  0.00  0.00    -0.080 HD
ATOM     33  H   UNL     1      24.575 -20.702 -16.460  0.00  0.00    -0.085 HD
ATOM     34  H   UNL     1      26.110 -20.054 -16.557  0.00  0.00    -0.085 HD
ENDBRANCH  25  26
ENDBRANCH  24  25
ENDBRANCH  10  24
TORSDOF 5
ENDMDL
MODEL 8
REMARK VINA RESULT:      -8.6      2.811      5.238
REMARK  Name = 17756743
REMARK  5 active torsions:
REMARK  status: ('A' for Active; 'I' for Inactive)
REMARK    1  A    between atoms: C_6  and  C_10
REMARK    2  A    between atoms: C_7  and  C_16
REMARK    3  A    between atoms: N_22  and  C_24
REMARK    4  A    between atoms: C_24  and  C_25
REMARK    5  A    between atoms: C_25  and  N_26
REMARK                            x       y       z     vdW  Elec       q    Type
REMARK                         _______ _______ _______ _____ _____    ______ ____
ROOT
ATOM      1  O   UNL     1      30.300 -21.709 -17.733  0.00  0.00    -0.440 OA
ATOM      2  N   UNL     1      34.239 -22.565 -17.459  0.00  0.00    -0.233 NA
ATOM      3  N   UNL     1      32.439 -21.602 -18.787  0.00  0.00    -0.214 NA
ATOM      4  C   UNL     1      32.035 -22.575 -16.583  0.00  0.00    +0.155 C 
ATOM      5  C   UNL     1      33.388 -22.884 -16.457  0.00  0.00    +0.115 C 
ATOM      6  C   UNL     1      30.861 -22.728 -15.806  0.00  0.00    +0.028 C 
ATOM      7  C   UNL     1      29.838 -22.186 -16.548  0.00  0.00    +0.144 C 
ATOM      8  C   UNL     1      31.643 -21.944 -17.759  0.00  0.00    +0.214 C 
ATOM      9  C   UNL     1      33.720 -21.952 -18.546  0.00  0.00    +0.254 C 
ATOM     10  N   UNL     1      33.875 -23.514 -15.322  0.00  0.00    -0.323 N 
ATOM     11  H   UNL     1      33.238 -23.736 -14.605  0.00  0.00    +0.148 HD
ENDROOT
BRANCH   6  12
ATOM     12  C   UNL     1      30.673 -23.310 -14.508  0.00  0.00    -0.000 C 
ATOM     13  C   UNL     1      31.019 -22.590 -13.363  0.00  0.00    -0.000 C 
ATOM     14  C   UNL     1      30.145 -24.596 -14.389  0.00  0.00    -0.000 C 
ATOM     15  C   UNL     1      30.836 -23.156 -12.102  0.00  0.00    -0.000 C 
ATOM     16  C   UNL     1      29.962 -25.162 -13.128  0.00  0.00    -0.000 C 
ATOM     17  C   UNL     1      30.308 -24.442 -11.984  0.00  0.00    -0.000 C 
ENDBRANCH   6  12
BRANCH   7  18
ATOM     18  C   UNL     1      28.423 -22.021 -16.347  0.00  0.00    +0.034 C 
ATOM     19  C   UNL     1      27.922 -21.807 -15.062  0.00  0.00    +0.003 C 
ATOM     20  C   UNL     1      27.552 -22.077 -17.434  0.00  0.00    +0.003 C 
ATOM     21  C   UNL     1      26.550 -21.648 -14.865  0.00  0.00    +0.000 C 
ATOM     22  C   UNL     1      26.179 -21.918 -17.237  0.00  0.00    +0.000 C 
ATOM     23  C   UNL     1      25.679 -21.704 -15.952  0.00  0.00    +0.000 C 
ENDBRANCH   7  18
BRANCH  10  24
ATOM     24  C   UNL     1      35.263 -23.860 -15.132  0.00  0.00    +0.065 C 
BRANCH  24  25
ATOM     25  C   UNL     1      35.865 -22.981 -14.043  0.00  0.00    -0.056 C 
BRANCH  25  26
ATOM     26  N   UNL     1      37.050 -23.618 -13.473  0.00  0.00    +0.385 N 
ATOM     27  N   UNL     1      38.867 -25.848 -13.112  0.00  0.00    +0.381 N 
ATOM     28  C   UNL     1      37.991 -24.010 -14.529  0.00  0.00    -0.101 C 
ATOM     29  C   UNL     1      36.676 -24.780 -12.655  0.00  0.00    -0.101 C 
ATOM     30  C   UNL     1      39.227 -24.687 -13.930  0.00  0.00    -0.105 C 
ATOM     31  C   UNL     1      37.919 -25.451 -12.068  0.00  0.00    -0.105 C 
ATOM     32  H   UNL     1      37.514 -22.938 -12.869  0.00  0.00    -0.080 HD
ATOM     33  H   UNL     1      39.707 -26.230 -12.680  0.00  0.00    -0.085 HD
ATOM     34  H   UNL     1      38.431 -26.553 -13.707  0.00  0.00    -0.085 HD
ENDBRANCH  25  26
ENDBRANCH  24  25
ENDBRANCH  10  24
TORSDOF 5
ENDMDL
MODEL 9
REMARK VINA RESULT:      -8.4      3.211      7.897
REMARK  Name = 17756743
REMARK  5 active torsions:
REMARK  status: ('A' for Active; 'I' for Inactive)
REMARK    1  A    between atoms: C_6  and  C_10
REMARK    2  A    between atoms: C_7  and  C_16
REMARK    3  A    between atoms: N_22  and  C_24
REMARK    4  A    between atoms: C_24  and  C_25
REMARK    5  A    between atoms: C_25  and  N_26
REMARK                            x       y       z     vdW  Elec       q    Type
REMARK                         _______ _______ _______ _____ _____    ______ ____
ROOT
ATOM      1  O   UNL     1      36.479 -22.411 -14.605  0.00  0.00    -0.440 OA
ATOM      2  N   UNL     1      35.359 -21.599 -18.402  0.00  0.00    -0.233 NA
ATOM      3  N   UNL     1      37.171 -21.699 -16.776  0.00  0.00    -0.214 NA
ATOM      4  C   UNL     1      34.874 -22.286 -16.184  0.00  0.00    +0.155 C 
ATOM      5  C   UNL     1      34.455 -22.014 -17.485  0.00  0.00    +0.115 C 
ATOM      6  C   UNL     1      34.280 -22.722 -14.975  0.00  0.00    +0.028 C 
ATOM      7  C   UNL     1      35.296 -22.782 -14.050  0.00  0.00    +0.144 C 
ATOM      8  C   UNL     1      36.227 -22.107 -15.911  0.00  0.00    +0.214 C 
ATOM      9  C   UNL     1      36.643 -21.469 -17.996  0.00  0.00    +0.254 C 
ATOM     10  N   UNL     1      33.128 -22.162 -17.855  0.00  0.00    -0.323 N 
ATOM     11  H   UNL     1      32.487 -22.467 -17.172  0.00  0.00    +0.148 HD
ENDROOT
BRANCH   6  12
ATOM     12  C   UNL     1      32.918 -23.058 -14.675  0.00  0.00    -0.000 C 
ATOM     13  C   UNL     1      31.959 -22.051 -14.566  0.00  0.00    -0.000 C 
ATOM     14  C   UNL     1      32.552 -24.392 -14.492  0.00  0.00    -0.000 C 
ATOM     15  C   UNL     1      30.635 -22.378 -14.274  0.00  0.00    -0.000 C 
ATOM     16  C   UNL     1      31.228 -24.719 -14.200  0.00  0.00    -0.000 C 
ATOM     17  C   UNL     1      30.269 -23.712 -14.091  0.00  0.00    -0.000 C 
ENDBRANCH   6  12
BRANCH   7  18
ATOM     18  C   UNL     1      35.374 -23.141 -12.659  0.00  0.00    +0.034 C 
ATOM     19  C   UNL     1      36.305 -22.514 -11.828  0.00  0.00    +0.003 C 
ATOM     20  C   UNL     1      34.522 -24.115 -12.140  0.00  0.00    +0.003 C 
ATOM     21  C   UNL     1      36.382 -22.863 -10.480  0.00  0.00    +0.000 C 
ATOM     22  C   UNL     1      34.600 -24.464 -10.791  0.00  0.00    +0.000 C 
ATOM     23  C   UNL     1      35.530 -23.837  -9.962  0.00  0.00    +0.000 C 
ENDBRANCH   7  18
BRANCH  10  24
ATOM     24  C   UNL     1      32.632 -21.897 -19.184  0.00  0.00    +0.065 C 
BRANCH  24  25
ATOM     25  C   UNL     1      32.667 -20.399 -19.454  0.00  0.00    -0.056 C 
BRANCH  25  26
ATOM     26  N   UNL     1      33.576 -20.102 -20.559  0.00  0.00    +0.385 N 
ATOM     27  N   UNL     1      34.991 -18.295 -22.328  0.00  0.00    +0.381 N 
ATOM     28  C   UNL     1      34.733 -19.330 -20.090  0.00  0.00    -0.101 C 
ATOM     29  C   UNL     1      32.876 -19.384 -21.632  0.00  0.00    -0.101 C 
ATOM     30  C   UNL     1      35.679 -19.011 -21.251  0.00  0.00    -0.105 C 
ATOM     31  C   UNL     1      33.831 -19.065 -22.784  0.00  0.00    -0.105 C 
ATOM     32  H   UNL     1      33.914 -20.988 -20.935  0.00  0.00    -0.080 HD
ATOM     33  H   UNL     1      35.634 -18.159 -23.108  0.00  0.00    -0.085 HD
ATOM     34  H   UNL     1      34.674 -17.390 -21.979  0.00  0.00    -0.085 HD
ENDBRANCH  25  26
ENDBRANCH  24  25
ENDBRANCH  10  24
TORSDOF 5
ENDMDL
