MODEL 1
REMARK VINA RESULT:     -12.6      0.000      0.000
REMARK  Name = 5288708
REMARK  4 active torsions:
REMARK  status: ('A' for Active; 'I' for Inactive)
REMARK    1  A    between atoms: N_1  and  C_9
REMARK    2  A    between atoms: N_1  and  C_16
REMARK    3  A    between atoms: C_15  and  S_21
REMARK    4  A    between atoms: S_21  and  N_24
REMARK                            x       y       z     vdW  Elec       q    Type
REMARK                         _______ _______ _______ _____ _____    ______ ____
ROOT
ATOM      1  N   UNL     1      35.188 -17.986 -21.968  0.00  0.00    -0.311 N 
ATOM      2  H   UNL     1      35.818 -18.235 -22.682  0.00  0.00    +0.152 HD
ENDROOT
BRANCH   1   9
ATOM      3  O   UNL     1      33.948 -17.690 -24.572  0.00  0.00    -0.270 OA
ATOM      4  N   UNL     1      33.184 -15.473 -24.858  0.00  0.00    -0.280 N 
ATOM      5  C   UNL     1      33.819 -14.563 -22.843  0.00  0.00    +0.019 C 
ATOM      6  C   UNL     1      34.209 -15.968 -22.871  0.00  0.00    +0.069 C 
ATOM      7  C   UNL     1      33.201 -14.315 -24.073  0.00  0.00    +0.051 C 
ATOM      8  C   UNL     1      33.788 -16.545 -24.192  0.00  0.00    +0.251 C 
ATOM      9  C   UNL     1      34.832 -16.677 -21.928  0.00  0.00    +0.066 C 
ATOM     10  C   UNL     1      33.949 -13.557 -21.904  0.00  0.00    +0.001 C 
ATOM     11  C   UNL     1      32.696 -13.074 -24.410  0.00  0.00    +0.015 C 
ATOM     12  C   UNL     1      33.443 -12.293 -22.224  0.00  0.00    +0.000 C 
ATOM     13  C   UNL     1      32.824 -12.054 -23.466  0.00  0.00    +0.001 C 
ATOM     14  H   UNL     1      32.798 -15.526 -25.762  0.00  0.00    +0.155 HD
ENDBRANCH   1   9
BRANCH   1  16
ATOM     15  C   UNL     1      33.965 -21.112 -19.443  0.00  0.00    +0.122 C 
ATOM     16  C   UNL     1      34.779 -19.031 -21.123  0.00  0.00    +0.048 C 
ATOM     17  C   UNL     1      35.321 -20.816 -19.581  0.00  0.00    +0.021 C 
ATOM     18  C   UNL     1      33.015 -20.369 -20.143  0.00  0.00    +0.021 C 
ATOM     19  C   UNL     1      35.728 -19.778 -20.419  0.00  0.00    +0.016 C 
ATOM     20  C   UNL     1      33.421 -19.331 -20.982  0.00  0.00    +0.016 C 
BRANCH  15  21
ATOM     21  S   UNL     1      33.456 -22.412 -18.395  0.00  0.00    +0.060 S 
ATOM     22  O   UNL     1      33.370 -23.639 -19.176  0.00  0.00    -0.153 OA
ATOM     23  O   UNL     1      34.299 -22.380 -17.206  0.00  0.00    -0.153 OA
BRANCH  21  24
ATOM     24  N   UNL     1      31.875 -21.932 -17.954  0.00  0.00    -0.178 NA
ATOM     25  C   UNL     1      31.306 -22.376 -16.674  0.00  0.00    +0.110 C 
ATOM     26  H   UNL     1      31.250 -22.268 -18.687  0.00  0.00    +0.149 HD
ENDBRANCH  21  24
ENDBRANCH  15  21
ENDBRANCH   1  16
TORSDOF 4
ENDMDL
MODEL 2
REMARK VINA RESULT:     -12.1      1.730      2.399
REMARK  Name = 5288708
REMARK  4 active torsions:
REMARK  status: ('A' for Active; 'I' for Inactive)
REMARK    1  A    between atoms: N_1  and  C_9
REMARK    2  A    between atoms: N_1  and  C_16
REMARK    3  A    between atoms: C_15  and  S_21
REMARK    4  A    between atoms: S_21  and  N_24
REMARK                            x       y       z     vdW  Elec       q    Type
REMARK                         _______ _______ _______ _____ _____    ______ ____
ROOT
ATOM      1  N   UNL     1      35.734 -17.985 -21.740  0.00  0.00    -0.311 N 
ATOM      2  H   UNL     1      36.690 -17.827 -21.568  0.00  0.00    +0.152 HD
ENDROOT
BRANCH   1   9
ATOM      3  O   UNL     1      34.619 -15.897 -20.064  0.00  0.00    -0.270 OA
ATOM      4  N   UNL     1      33.525 -14.285 -21.401  0.00  0.00    -0.280 N 
ATOM      5  C   UNL     1      33.880 -15.181 -23.489  0.00  0.00    +0.019 C 
ATOM      6  C   UNL     1      34.495 -16.049 -22.491  0.00  0.00    +0.069 C 
ATOM      7  C   UNL     1      33.306 -14.126 -22.773  0.00  0.00    +0.051 C 
ATOM      8  C   UNL     1      34.253 -15.450 -21.135  0.00  0.00    +0.251 C 
ATOM      9  C   UNL     1      35.166 -17.187 -22.679  0.00  0.00    +0.066 C 
ATOM     10  C   UNL     1      33.787 -15.231 -24.867  0.00  0.00    +0.001 C 
ATOM     11  C   UNL     1      32.626 -13.095 -23.393  0.00  0.00    +0.015 C 
ATOM     12  C   UNL     1      33.103 -14.197 -25.515  0.00  0.00    +0.000 C 
ATOM     13  C   UNL     1      32.528 -13.140 -24.785  0.00  0.00    +0.001 C 
ATOM     14  H   UNL     1      33.207 -13.659 -20.711  0.00  0.00    +0.155 HD
ENDBRANCH   1   9
BRANCH   1  16
ATOM     15  C   UNL     1      33.951 -21.031 -19.464  0.00  0.00    +0.122 C 
ATOM     16  C   UNL     1      35.138 -19.004 -20.979  0.00  0.00    +0.048 C 
ATOM     17  C   UNL     1      33.162 -20.204 -20.262  0.00  0.00    +0.021 C 
ATOM     18  C   UNL     1      35.334 -20.848 -19.422  0.00  0.00    +0.021 C 
ATOM     19  C   UNL     1      33.754 -19.192 -21.018  0.00  0.00    +0.016 C 
ATOM     20  C   UNL     1      35.926 -19.836 -20.178  0.00  0.00    +0.016 C 
BRANCH  15  21
ATOM     21  S   UNL     1      33.210 -22.297 -18.517  0.00  0.00    +0.060 S 
ATOM     22  O   UNL     1      31.878 -21.864 -18.114  0.00  0.00    -0.153 OA
ATOM     23  O   UNL     1      33.363 -23.547 -19.250  0.00  0.00    -0.153 OA
BRANCH  21  24
ATOM     24  N   UNL     1      34.209 -22.353 -17.131  0.00  0.00    -0.178 NA
ATOM     25  C   UNL     1      33.755 -23.067 -15.930  0.00  0.00    +0.110 C 
ATOM     26  H   UNL     1      34.381 -21.387 -16.852  0.00  0.00    +0.149 HD
ENDBRANCH  21  24
ENDBRANCH  15  21
ENDBRANCH   1  16
TORSDOF 4
ENDMDL
MODEL 3
REMARK VINA RESULT:     -11.6      2.732      9.279
REMARK  Name = 5288708
REMARK  4 active torsions:
REMARK  status: ('A' for Active; 'I' for Inactive)
REMARK    1  A    between atoms: N_1  and  C_9
REMARK    2  A    between atoms: N_1  and  C_16
REMARK    3  A    between atoms: C_15  and  S_21
REMARK    4  A    between atoms: S_21  and  N_24
REMARK                            x       y       z     vdW  Elec       q    Type
REMARK                         _______ _______ _______ _____ _____    ______ ____
ROOT
ATOM      1  N   UNL     1      33.515 -22.698 -18.689  0.00  0.00    -0.311 N 
ATOM      2  H   UNL     1      33.965 -23.535 -18.942  0.00  0.00    +0.152 HD
ENDROOT
BRANCH   1   9
ATOM      3  O   UNL     1      35.120 -22.706 -16.274  0.00  0.00    -0.270 OA
ATOM      4  N   UNL     1      33.726 -22.895 -14.376  0.00  0.00    -0.280 N 
ATOM      5  C   UNL     1      31.666 -22.990 -15.393  0.00  0.00    +0.019 C 
ATOM      6  C   UNL     1      32.695 -22.867 -16.420  0.00  0.00    +0.069 C 
ATOM      7  C   UNL     1      32.346 -23.001 -14.172  0.00  0.00    +0.051 C 
ATOM      8  C   UNL     1      34.032 -22.807 -15.738  0.00  0.00    +0.251 C 
ATOM      9  C   UNL     1      32.546 -22.813 -17.745  0.00  0.00    +0.066 C 
ATOM     10  C   UNL     1      30.288 -23.085 -15.434  0.00  0.00    +0.001 C 
ATOM     11  C   UNL     1      31.690 -23.107 -12.961  0.00  0.00    +0.015 C 
ATOM     12  C   UNL     1      29.603 -23.192 -14.219  0.00  0.00    +0.000 C 
ATOM     13  C   UNL     1      30.298 -23.204 -12.994  0.00  0.00    +0.001 C 
ATOM     14  H   UNL     1      34.395 -22.884 -13.654  0.00  0.00    +0.155 HD
ENDBRANCH   1   9
BRANCH   1  16
ATOM     15  C   UNL     1      34.840 -19.241 -20.673  0.00  0.00    +0.122 C 
ATOM     16  C   UNL     1      33.958 -21.542 -19.352  0.00  0.00    +0.048 C 
ATOM     17  C   UNL     1      35.762 -20.099 -20.074  0.00  0.00    +0.021 C 
ATOM     18  C   UNL     1      33.477 -19.533 -20.614  0.00  0.00    +0.021 C 
ATOM     19  C   UNL     1      35.322 -21.247 -19.415  0.00  0.00    +0.016 C 
ATOM     20  C   UNL     1      33.036 -20.680 -19.955  0.00  0.00    +0.016 C 
BRANCH  15  21
ATOM     21  S   UNL     1      35.390 -17.804 -21.498  0.00  0.00    +0.060 S 
ATOM     22  O   UNL     1      34.985 -16.636 -20.725  0.00  0.00    -0.153 OA
ATOM     23  O   UNL     1      36.798 -17.991 -21.825  0.00  0.00    -0.153 OA
BRANCH  21  24
ATOM     24  N   UNL     1      34.484 -17.842 -22.947  0.00  0.00    -0.178 NA
ATOM     25  C   UNL     1      34.215 -16.593 -23.674  0.00  0.00    +0.110 C 
ATOM     26  H   UNL     1      33.578 -18.250 -22.718  0.00  0.00    +0.149 HD
ENDBRANCH  21  24
ENDBRANCH  15  21
ENDBRANCH   1  16
TORSDOF 4
ENDMDL
MODEL 4
REMARK VINA RESULT:     -11.4      4.191      6.429
REMARK  Name = 5288708
REMARK  4 active torsions:
REMARK  status: ('A' for Active; 'I' for Inactive)
REMARK    1  A    between atoms: N_1  and  C_9
REMARK    2  A    between atoms: N_1  and  C_16
REMARK    3  A    between atoms: C_15  and  S_21
REMARK    4  A    between atoms: S_21  and  N_24
REMARK                            x       y       z     vdW  Elec       q    Type
REMARK                         _______ _______ _______ _____ _____    ______ ____
ROOT
ATOM      1  N   UNL     1      34.582 -22.115 -17.619  0.00  0.00    -0.311 N 
ATOM      2  H   UNL     1      33.761 -22.573 -17.909  0.00  0.00    +0.152 HD
ENDROOT
BRANCH   1   9
ATOM      3  O   UNL     1      32.236 -21.453 -19.189  0.00  0.00    -0.270 OA
ATOM      4  N   UNL     1      32.807 -19.911 -20.886  0.00  0.00    -0.280 N 
ATOM      5  C   UNL     1      35.054 -19.660 -20.467  0.00  0.00    +0.019 C 
ATOM      6  C   UNL     1      34.494 -20.598 -19.500  0.00  0.00    +0.069 C 
ATOM      7  C   UNL     1      33.987 -19.273 -21.283  0.00  0.00    +0.051 C 
ATOM      8  C   UNL     1      33.029 -20.751 -19.789  0.00  0.00    +0.251 C 
ATOM      9  C   UNL     1      35.116 -21.244 -18.512  0.00  0.00    +0.066 C 
ATOM     10  C   UNL     1      36.323 -19.153 -20.676  0.00  0.00    +0.001 C 
ATOM     11  C   UNL     1      34.139 -18.380 -22.326  0.00  0.00    +0.015 C 
ATOM     12  C   UNL     1      36.500 -18.246 -21.727  0.00  0.00    +0.000 C 
ATOM     13  C   UNL     1      35.418 -17.864 -22.544  0.00  0.00    +0.001 C 
ATOM     14  H   UNL     1      31.933 -19.785 -21.322  0.00  0.00    +0.155 HD
ENDBRANCH   1   9
BRANCH   1  16
ATOM     15  C   UNL     1      35.972 -23.118 -13.784  0.00  0.00    +0.122 C 
ATOM     16  C   UNL     1      35.046 -22.450 -16.336  0.00  0.00    +0.048 C 
ATOM     17  C   UNL     1      36.840 -22.546 -14.714  0.00  0.00    +0.021 C 
ATOM     18  C   UNL     1      34.640 -23.355 -14.128  0.00  0.00    +0.021 C 
ATOM     19  C   UNL     1      36.378 -22.213 -15.987  0.00  0.00    +0.016 C 
ATOM     20  C   UNL     1      34.179 -23.023 -15.401  0.00  0.00    +0.016 C 
BRANCH  15  21
ATOM     21  S   UNL     1      36.549 -23.535 -12.190  0.00  0.00    +0.060 S 
ATOM     22  O   UNL     1      38.000 -23.397 -12.165  0.00  0.00    -0.153 OA
ATOM     23  O   UNL     1      35.745 -22.803 -11.221  0.00  0.00    -0.153 OA
BRANCH  21  24
ATOM     24  N   UNL     1      36.157 -25.196 -12.080  0.00  0.00    -0.178 NA
ATOM     25  C   UNL     1      36.869 -26.173 -12.916  0.00  0.00    +0.110 C 
ATOM     26  H   UNL     1      35.166 -25.281 -12.307  0.00  0.00    +0.149 HD
ENDBRANCH  21  24
ENDBRANCH  15  21
ENDBRANCH   1  16
TORSDOF 4
ENDMDL
MODEL 5
REMARK VINA RESULT:     -11.4      3.645      8.350
REMARK  Name = 5288708
REMARK  4 active torsions:
REMARK  status: ('A' for Active; 'I' for Inactive)
REMARK    1  A    between atoms: N_1  and  C_9
REMARK    2  A    between atoms: N_1  and  C_16
REMARK    3  A    between atoms: C_15  and  S_21
REMARK    4  A    between atoms: S_21  and  N_24
REMARK                            x       y       z     vdW  Elec       q    Type
REMARK                         _______ _______ _______ _____ _____    ______ ____
ROOT
ATOM      1  N   UNL     1      34.708 -18.034 -22.918  0.00  0.00    -0.311 N 
ATOM      2  H   UNL     1      35.446 -18.336 -23.496  0.00  0.00    +0.152 HD
ENDROOT
BRANCH   1   9
ATOM      3  O   UNL     1      36.983 -18.232 -21.130  0.00  0.00    -0.270 OA
ATOM      4  N   UNL     1      36.523 -19.778 -19.404  0.00  0.00    -0.280 N 
ATOM      5  C   UNL     1      34.395 -20.421 -19.991  0.00  0.00    +0.019 C 
ATOM      6  C   UNL     1      34.876 -19.440 -20.957  0.00  0.00    +0.069 C 
ATOM      7  C   UNL     1      35.433 -20.589 -19.071  0.00  0.00    +0.051 C 
ATOM      8  C   UNL     1      36.266 -19.033 -20.559  0.00  0.00    +0.251 C 
ATOM      9  C   UNL     1      34.248 -18.949 -22.027  0.00  0.00    +0.066 C 
ATOM     10  C   UNL     1      33.214 -21.127 -19.859  0.00  0.00    +0.001 C 
ATOM     11  C   UNL     1      35.338 -21.455 -17.998  0.00  0.00    +0.015 C 
ATOM     12  C   UNL     1      33.095 -22.009 -18.779  0.00  0.00    +0.000 C 
ATOM     13  C   UNL     1      34.148 -22.171 -17.858  0.00  0.00    +0.001 C 
ATOM     14  H   UNL     1      37.363 -19.738 -18.892  0.00  0.00    +0.155 HD
ENDBRANCH   1   9
BRANCH   1  16
ATOM     15  C   UNL     1      33.399 -14.092 -23.539  0.00  0.00    +0.122 C 
ATOM     16  C   UNL     1      34.271 -16.716 -23.125  0.00  0.00    +0.048 C 
ATOM     17  C   UNL     1      33.298 -15.031 -24.565  0.00  0.00    +0.021 C 
ATOM     18  C   UNL     1      33.935 -14.463 -22.305  0.00  0.00    +0.021 C 
ATOM     19  C   UNL     1      33.732 -16.340 -24.359  0.00  0.00    +0.016 C 
ATOM     20  C   UNL     1      34.371 -15.772 -22.099  0.00  0.00    +0.016 C 
BRANCH  15  21
ATOM     21  S   UNL     1      32.856 -12.453 -23.797  0.00  0.00    +0.060 S 
ATOM     22  O   UNL     1      33.861 -11.537 -23.271  0.00  0.00    -0.153 OA
ATOM     23  O   UNL     1      32.442 -12.336 -25.189  0.00  0.00    -0.153 OA
BRANCH  21  24
ATOM     24  N   UNL     1      31.466 -12.366 -22.805  0.00  0.00    -0.178 NA
ATOM     25  C   UNL     1      31.511 -11.606 -21.548  0.00  0.00    +0.110 C 
ATOM     26  H   UNL     1      31.217 -13.324 -22.561  0.00  0.00    +0.149 HD
ENDBRANCH  21  24
ENDBRANCH  15  21
ENDBRANCH   1  16
TORSDOF 4
ENDMDL
MODEL 6
REMARK VINA RESULT:     -10.8      3.735      5.995
REMARK  Name = 5288708
REMARK  4 active torsions:
REMARK  status: ('A' for Active; 'I' for Inactive)
REMARK    1  A    between atoms: N_1  and  C_9
REMARK    2  A    between atoms: N_1  and  C_16
REMARK    3  A    between atoms: C_15  and  S_21
REMARK    4  A    between atoms: S_21  and  N_24
REMARK                            x       y       z     vdW  Elec       q    Type
REMARK                         _______ _______ _______ _____ _____    ______ ____
ROOT
ATOM      1  N   UNL     1      32.616 -12.876 -23.699  0.00  0.00    -0.311 N 
ATOM      2  H   UNL     1      31.715 -13.009 -24.072  0.00  0.00    +0.152 HD
ENDROOT
BRANCH   1   9
ATOM      3  O   UNL     1      30.826 -11.646 -21.778  0.00  0.00    -0.270 OA
ATOM      4  N   UNL     1      31.348  -9.355 -21.536  0.00  0.00    -0.280 N 
ATOM      5  C   UNL     1      33.106  -9.182 -23.008  0.00  0.00    +0.019 C 
ATOM      6  C   UNL     1      32.625 -10.559 -23.006  0.00  0.00    +0.069 C 
ATOM      7  C   UNL     1      32.297  -8.495 -22.098  0.00  0.00    +0.051 C 
ATOM      8  C   UNL     1      31.477 -10.653 -22.041  0.00  0.00    +0.251 C 
ATOM      9  C   UNL     1      33.074 -11.598 -23.712  0.00  0.00    +0.066 C 
ATOM     10  C   UNL     1      34.117  -8.528 -23.687  0.00  0.00    +0.001 C 
ATOM     11  C   UNL     1      32.460  -7.148 -21.833  0.00  0.00    +0.015 C 
ATOM     12  C   UNL     1      34.301  -7.164 -23.433  0.00  0.00    +0.000 C 
ATOM     13  C   UNL     1      33.479  -6.481 -22.515  0.00  0.00    +0.001 C 
ATOM     14  H   UNL     1      30.676  -9.082 -20.870  0.00  0.00    +0.155 HD
ENDBRANCH   1   9
BRANCH   1  16
ATOM     15  C   UNL     1      34.534 -16.334 -22.285  0.00  0.00    +0.122 C 
ATOM     16  C   UNL     1      33.258 -14.032 -23.226  0.00  0.00    +0.048 C 
ATOM     17  C   UNL     1      34.209 -16.219 -23.637  0.00  0.00    +0.021 C 
ATOM     18  C   UNL     1      34.223 -15.299 -21.403  0.00  0.00    +0.021 C 
ATOM     19  C   UNL     1      33.573 -15.071 -24.107  0.00  0.00    +0.016 C 
ATOM     20  C   UNL     1      33.585 -14.150 -21.872  0.00  0.00    +0.016 C 
BRANCH  15  21
ATOM     21  S   UNL     1      35.331 -17.772 -21.697  0.00  0.00    +0.060 S 
ATOM     22  O   UNL     1      36.369 -18.155 -22.646  0.00  0.00    -0.153 OA
ATOM     23  O   UNL     1      35.688 -17.543 -20.303  0.00  0.00    -0.153 OA
BRANCH  21  24
ATOM     24  N   UNL     1      34.080 -18.936 -21.755  0.00  0.00    -0.178 NA
ATOM     25  C   UNL     1      33.779 -19.746 -20.566  0.00  0.00    +0.110 C 
ATOM     26  H   UNL     1      34.318 -19.588 -22.502  0.00  0.00    +0.149 HD
ENDBRANCH  21  24
ENDBRANCH  15  21
ENDBRANCH   1  16
TORSDOF 4
ENDMDL
MODEL 7
REMARK VINA RESULT:     -10.6      5.568      9.904
REMARK  Name = 5288708
REMARK  4 active torsions:
REMARK  status: ('A' for Active; 'I' for Inactive)
REMARK    1  A    between atoms: N_1  and  C_9
REMARK    2  A    between atoms: N_1  and  C_16
REMARK    3  A    between atoms: C_15  and  S_21
REMARK    4  A    between atoms: S_21  and  N_24
REMARK                            x       y       z     vdW  Elec       q    Type
REMARK                         _______ _______ _______ _____ _____    ______ ____
ROOT
ATOM      1  N   UNL     1      33.333 -12.660 -23.664  0.00  0.00    -0.311 N 
ATOM      2  H   UNL     1      33.346 -12.769 -24.642  0.00  0.00    +0.152 HD
ENDROOT
BRANCH   1   9
ATOM      3  O   UNL     1      33.100 -14.750 -25.660  0.00  0.00    -0.270 OA
ATOM      4  N   UNL     1      33.751 -16.826 -24.739  0.00  0.00    -0.280 N 
ATOM      5  C   UNL     1      34.281 -16.171 -22.599  0.00  0.00    +0.019 C 
ATOM      6  C   UNL     1      33.844 -15.003 -23.356  0.00  0.00    +0.069 C 
ATOM      7  C   UNL     1      34.206 -17.249 -23.485  0.00  0.00    +0.051 C 
ATOM      8  C   UNL     1      33.501 -15.450 -24.749  0.00  0.00    +0.251 C 
ATOM      9  C   UNL     1      33.741 -13.738 -22.947  0.00  0.00    +0.066 C 
ATOM     10  C   UNL     1      34.708 -16.356 -21.297  0.00  0.00    +0.001 C 
ATOM     11  C   UNL     1      34.546 -18.537 -23.115  0.00  0.00    +0.015 C 
ATOM     12  C   UNL     1      35.059 -17.652 -20.901  0.00  0.00    +0.000 C 
ATOM     13  C   UNL     1      34.978 -18.731 -21.802  0.00  0.00    +0.001 C 
ATOM     14  H   UNL     1      33.622 -17.420 -25.513  0.00  0.00    +0.155 HD
ENDBRANCH   1   9
BRANCH   1  16
ATOM     15  C   UNL     1      32.015  -8.926 -22.262  0.00  0.00    +0.122 C 
ATOM     16  C   UNL     1      32.893 -11.412 -23.195  0.00  0.00    +0.048 C 
ATOM     17  C   UNL     1      31.388 -10.095 -21.830  0.00  0.00    +0.021 C 
ATOM     18  C   UNL     1      33.082  -8.998 -23.160  0.00  0.00    +0.021 C 
ATOM     19  C   UNL     1      31.826 -11.335 -22.296  0.00  0.00    +0.016 C 
ATOM     20  C   UNL     1      33.519 -10.238 -23.626  0.00  0.00    +0.016 C 
BRANCH  15  21
ATOM     21  S   UNL     1      31.468  -7.374 -21.681  0.00  0.00    +0.060 S 
ATOM     22  O   UNL     1      30.398  -6.898 -22.549  0.00  0.00    -0.153 OA
ATOM     23  O   UNL     1      31.224  -7.497 -20.249  0.00  0.00    -0.153 OA
BRANCH  21  24
ATOM     24  N   UNL     1      32.843  -6.386 -21.916  0.00  0.00    -0.178 NA
ATOM     25  C   UNL     1      32.769  -5.233 -22.824  0.00  0.00    +0.110 C 
ATOM     26  H   UNL     1      33.584  -6.992 -22.269  0.00  0.00    +0.149 HD
ENDBRANCH  21  24
ENDBRANCH  15  21
ENDBRANCH   1  16
TORSDOF 4
ENDMDL
MODEL 8
REMARK VINA RESULT:     -10.6      3.728      9.871
REMARK  Name = 5288708
REMARK  4 active torsions:
REMARK  status: ('A' for Active; 'I' for Inactive)
REMARK    1  A    between atoms: N_1  and  C_9
REMARK    2  A    between atoms: N_1  and  C_16
REMARK    3  A    between atoms: C_15  and  S_21
REMARK    4  A    between atoms: S_21  and  N_24
REMARK                            x       y       z     vdW  Elec       q    Type
REMARK                         _______ _______ _______ _____ _____    ______ ____
ROOT
ATOM      1  N   UNL     1      34.014 -22.234 -17.709  0.00  0.00    -0.311 N 
ATOM      2  H   UNL     1      33.215 -22.799 -17.820  0.00  0.00    +0.152 HD
ENDROOT
BRANCH   1   9
ATOM      3  O   UNL     1      31.924 -23.156 -15.923  0.00  0.00    -0.270 OA
ATOM      4  N   UNL     1      32.830 -23.634 -13.794  0.00  0.00    -0.280 N 
ATOM      5  C   UNL     1      35.039 -23.115 -14.168  0.00  0.00    +0.019 C 
ATOM      6  C   UNL     1      34.284 -22.883 -15.395  0.00  0.00    +0.069 C 
ATOM      7  C   UNL     1      34.109 -23.570 -13.230  0.00  0.00    +0.051 C 
ATOM      8  C   UNL     1      32.846 -23.226 -15.132  0.00  0.00    +0.251 C 
ATOM      9  C   UNL     1      34.728 -22.444 -16.574  0.00  0.00    +0.066 C 
ATOM     10  C   UNL     1      36.371 -22.972 -13.829  0.00  0.00    +0.001 C 
ATOM     11  C   UNL     1      34.463 -23.896 -11.934  0.00  0.00    +0.015 C 
ATOM     12  C   UNL     1      36.753 -23.296 -12.523  0.00  0.00    +0.000 C 
ATOM     13  C   UNL     1      35.807 -23.753 -11.584  0.00  0.00    +0.001 C 
ATOM     14  H   UNL     1      32.024 -23.928 -13.312  0.00  0.00    +0.155 HD
ENDBRANCH   1   9
BRANCH   1  16
ATOM     15  C   UNL     1      34.754 -19.491 -20.802  0.00  0.00    +0.122 C 
ATOM     16  C   UNL     1      34.261 -21.317 -18.743  0.00  0.00    +0.048 C 
ATOM     17  C   UNL     1      33.444 -19.855 -20.491  0.00  0.00    +0.021 C 
ATOM     18  C   UNL     1      35.819 -20.038 -20.085  0.00  0.00    +0.021 C 
ATOM     19  C   UNL     1      33.198 -20.765 -19.463  0.00  0.00    +0.016 C 
ATOM     20  C   UNL     1      35.573 -20.949 -19.058  0.00  0.00    +0.016 C 
BRANCH  15  21
ATOM     21  S   UNL     1      35.063 -18.351 -22.088  0.00  0.00    +0.060 S 
ATOM     22  O   UNL     1      36.493 -18.333 -22.366  0.00  0.00    -0.153 OA
ATOM     23  O   UNL     1      34.129 -18.638 -23.169  0.00  0.00    -0.153 OA
BRANCH  21  24
ATOM     24  N   UNL     1      34.626 -16.861 -21.372  0.00  0.00    -0.178 NA
ATOM     25  C   UNL     1      34.472 -15.664 -22.211  0.00  0.00    +0.110 C 
ATOM     26  H   UNL     1      35.343 -16.645 -20.680  0.00  0.00    +0.149 HD
ENDBRANCH  21  24
ENDBRANCH  15  21
ENDBRANCH   1  16
TORSDOF 4
ENDMDL
MODEL 9
REMARK VINA RESULT:     -10.5      2.977      9.519
REMARK  Name = 5288708
REMARK  4 active torsions:
REMARK  status: ('A' for Active; 'I' for Inactive)
REMARK    1  A    between atoms: N_1  and  C_9
REMARK    2  A    between atoms: N_1  and  C_16
REMARK    3  A    between atoms: C_15  and  S_21
REMARK    4  A    between atoms: S_21  and  N_24
REMARK                            x       y       z     vdW  Elec       q    Type
REMARK                         _______ _______ _______ _____ _____    ______ ____
ROOT
ATOM      1  N   UNL     1      33.191 -22.260 -18.598  0.00  0.00    -0.311 N 
ATOM      2  H   UNL     1      32.411 -22.753 -18.938  0.00  0.00    +0.152 HD
ENDROOT
BRANCH   1   9
ATOM      3  O   UNL     1      30.788 -22.182 -16.977  0.00  0.00    -0.270 OA
ATOM      4  N   UNL     1      31.276 -22.880 -14.773  0.00  0.00    -0.280 N 
ATOM      5  C   UNL     1      33.527 -23.305 -14.971  0.00  0.00    +0.019 C 
ATOM      6  C   UNL     1      33.017 -22.851 -16.260  0.00  0.00    +0.069 C 
ATOM      7  C   UNL     1      32.430 -23.304 -14.105  0.00  0.00    +0.051 C 
ATOM      8  C   UNL     1      31.547 -22.577 -16.111  0.00  0.00    +0.251 C 
ATOM      9  C   UNL     1      33.680 -22.683 -17.405  0.00  0.00    +0.066 C 
ATOM     10  C   UNL     1      34.777 -23.690 -14.525  0.00  0.00    +0.001 C 
ATOM     11  C   UNL     1      32.532 -23.682 -12.780  0.00  0.00    +0.015 C 
ATOM     12  C   UNL     1      34.904 -24.077 -13.186  0.00  0.00    +0.000 C 
ATOM     13  C   UNL     1      33.792 -24.072 -12.322  0.00  0.00    +0.001 C 
ATOM     14  H   UNL     1      30.388 -22.803 -14.354  0.00  0.00    +0.155 HD
ENDBRANCH   1   9
BRANCH   1  16
ATOM     15  C   UNL     1      34.563 -19.119 -21.027  0.00  0.00    +0.122 C 
ATOM     16  C   UNL     1      33.650 -21.210 -19.410  0.00  0.00    +0.048 C 
ATOM     17  C   UNL     1      33.195 -19.364 -20.909  0.00  0.00    +0.021 C 
ATOM     18  C   UNL     1      35.476 -19.918 -20.336  0.00  0.00    +0.021 C 
ATOM     19  C   UNL     1      32.739 -20.407 -20.102  0.00  0.00    +0.016 C 
ATOM     20  C   UNL     1      35.020 -20.961 -19.530  0.00  0.00    +0.016 C 
BRANCH  15  21
ATOM     21  S   UNL     1      35.133 -17.815 -22.036  0.00  0.00    +0.060 S 
ATOM     22  O   UNL     1      36.587 -17.885 -22.117  0.00  0.00    -0.153 OA
ATOM     23  O   UNL     1      34.349 -17.828 -23.264  0.00  0.00    -0.153 OA
BRANCH  21  24
ATOM     24  N   UNL     1      34.703 -16.431 -21.129  0.00  0.00    -0.178 NA
ATOM     25  C   UNL     1      34.221 -15.226 -21.817  0.00  0.00    +0.110 C 
ATOM     26  H   UNL     1      35.530 -16.157 -20.599  0.00  0.00    +0.149 HD
ENDBRANCH  21  24
ENDBRANCH  15  21
ENDBRANCH   1  16
TORSDOF 4
ENDMDL
