MODEL 1
REMARK VINA RESULT:     -12.2      0.000      0.000
REMARK  Name = 5729339
REMARK  4 active torsions:
REMARK  status: ('A' for Active; 'I' for Inactive)
REMARK    1  A    between atoms: C_2  and  C_16
REMARK    2  A    between atoms: C_3  and  C_10
REMARK    3  A    between atoms: C_17  and  S_22
REMARK    4  A    between atoms: S_22  and  N_25
REMARK                            x       y       z     vdW  Elec       q    Type
REMARK                         _______ _______ _______ _____ _____    ______ ____
ROOT
ATOM      1  O   UNL     1      34.241 -18.352 -21.940  0.00  0.00    -0.453 OA
ATOM      2  C   UNL     1      35.141 -18.947 -21.117  0.00  0.00    +0.145 C 
ATOM      3  C   UNL     1      34.946 -17.492 -22.720  0.00  0.00    +0.147 C 
ATOM      4  C   UNL     1      36.408 -18.483 -21.358  0.00  0.00    +0.041 C 
ATOM      5  C   UNL     1      36.284 -17.536 -22.401  0.00  0.00    +0.041 C 
ENDROOT
BRANCH   3  10
ATOM      6  S   UNL     1      33.847 -14.482 -22.130  0.00  0.00    -0.027 S 
ATOM      7  O   UNL     1      33.053 -15.090 -25.800  0.00  0.00    -0.209 OA
ATOM      8  N   UNL     1      32.788 -13.401 -24.235  0.00  0.00    -0.311 NA
ATOM      9  N   UNL     1      32.778 -12.041 -22.273  0.00  0.00    -0.327 N 
ATOM     10  C   UNL     1      34.326 -16.691 -23.707  0.00  0.00    +0.057 C 
ATOM     11  C   UNL     1      33.830 -15.418 -23.565  0.00  0.00    +0.131 C 
ATOM     12  C   UNL     1      33.191 -14.652 -24.666  0.00  0.00    +0.213 C 
ATOM     13  C   UNL     1      33.050 -13.171 -22.984  0.00  0.00    +0.222 C 
ATOM     14  H   UNL     1      33.028 -11.987 -21.322  0.00  0.00    +0.145 HD
ATOM     15  H   UNL     1      32.332 -11.280 -22.709  0.00  0.00    +0.145 HD
ENDBRANCH   3  10
BRANCH   2  16
ATOM     16  C   UNL     1      34.587 -19.909 -20.198  0.00  0.00    +0.035 C 
ATOM     17  C   UNL     1      33.515 -21.771 -18.417  0.00  0.00    +0.122 C 
ATOM     18  C   UNL     1      35.434 -20.687 -19.407  0.00  0.00    +0.004 C 
ATOM     19  C   UNL     1      33.204 -20.062 -20.096  0.00  0.00    +0.004 C 
ATOM     20  C   UNL     1      34.898 -21.618 -18.517  0.00  0.00    +0.020 C 
ATOM     21  C   UNL     1      32.668 -20.993 -19.206  0.00  0.00    +0.020 C 
BRANCH  17  22
ATOM     22  S   UNL     1      32.844 -22.935 -17.302  0.00  0.00    +0.057 S 
ATOM     23  O   UNL     1      32.884 -24.248 -17.930  0.00  0.00    -0.153 OA
ATOM     24  O   UNL     1      33.462 -22.737 -15.999  0.00  0.00    -0.153 OA
BRANCH  22  25
ATOM     25  N   UNL     1      31.219 -22.412 -17.223  0.00  0.00    -0.203 NA
ATOM     26  H   UNL     1      30.670 -23.086 -16.691  0.00  0.00    +0.144 HD
ATOM     27  H   UNL     1      30.841 -22.332 -18.166  0.00  0.00    +0.144 HD
ENDBRANCH  22  25
ENDBRANCH  17  22
ENDBRANCH   2  16
TORSDOF 4
ENDMDL
MODEL 2
REMARK VINA RESULT:     -12.2      0.008      1.008
REMARK  Name = 5729339
REMARK  4 active torsions:
REMARK  status: ('A' for Active; 'I' for Inactive)
REMARK    1  A    between atoms: C_2  and  C_16
REMARK    2  A    between atoms: C_3  and  C_10
REMARK    3  A    between atoms: C_17  and  S_22
REMARK    4  A    between atoms: S_22  and  N_25
REMARK                            x       y       z     vdW  Elec       q    Type
REMARK                         _______ _______ _______ _____ _____    ______ ____
ROOT
ATOM      1  O   UNL     1      34.239 -18.355 -21.934  0.00  0.00    -0.453 OA
ATOM      2  C   UNL     1      35.140 -18.950 -21.113  0.00  0.00    +0.145 C 
ATOM      3  C   UNL     1      34.944 -17.496 -22.717  0.00  0.00    +0.147 C 
ATOM      4  C   UNL     1      36.407 -18.488 -21.357  0.00  0.00    +0.041 C 
ATOM      5  C   UNL     1      36.282 -17.541 -22.400  0.00  0.00    +0.041 C 
ENDROOT
BRANCH   3  10
ATOM      6  S   UNL     1      33.853 -14.483 -22.129  0.00  0.00    -0.027 S 
ATOM      7  O   UNL     1      33.046 -15.096 -25.796  0.00  0.00    -0.209 OA
ATOM      8  N   UNL     1      32.790 -13.404 -24.233  0.00  0.00    -0.311 NA
ATOM      9  N   UNL     1      32.790 -12.040 -22.273  0.00  0.00    -0.327 N 
ATOM     10  C   UNL     1      34.322 -16.696 -23.703  0.00  0.00    +0.057 C 
ATOM     11  C   UNL     1      33.830 -15.422 -23.563  0.00  0.00    +0.131 C 
ATOM     12  C   UNL     1      33.189 -14.656 -24.663  0.00  0.00    +0.213 C 
ATOM     13  C   UNL     1      33.056 -13.172 -22.983  0.00  0.00    +0.222 C 
ATOM     14  H   UNL     1      33.043 -11.985 -21.323  0.00  0.00    +0.145 HD
ATOM     15  H   UNL     1      32.344 -11.278 -22.710  0.00  0.00    +0.145 HD
ENDBRANCH   3  10
BRANCH   2  16
ATOM     16  C   UNL     1      34.587 -19.911 -20.191  0.00  0.00    +0.035 C 
ATOM     17  C   UNL     1      33.517 -21.771 -18.407  0.00  0.00    +0.122 C 
ATOM     18  C   UNL     1      33.204 -20.065 -20.090  0.00  0.00    +0.004 C 
ATOM     19  C   UNL     1      35.435 -20.688 -19.401  0.00  0.00    +0.004 C 
ATOM     20  C   UNL     1      32.669 -20.995 -19.198  0.00  0.00    +0.020 C 
ATOM     21  C   UNL     1      34.900 -21.618 -18.509  0.00  0.00    +0.020 C 
BRANCH  17  22
ATOM     22  S   UNL     1      32.848 -22.935 -17.292  0.00  0.00    +0.057 S 
ATOM     23  O   UNL     1      32.886 -24.248 -17.921  0.00  0.00    -0.153 OA
ATOM     24  O   UNL     1      33.470 -22.739 -15.990  0.00  0.00    -0.153 OA
BRANCH  22  25
ATOM     25  N   UNL     1      31.224 -22.410 -17.208  0.00  0.00    -0.203 NA
ATOM     26  H   UNL     1      31.020 -22.083 -16.265  0.00  0.00    +0.144 HD
ATOM     27  H   UNL     1      30.604 -23.186 -17.441  0.00  0.00    +0.144 HD
ENDBRANCH  22  25
ENDBRANCH  17  22
ENDBRANCH   2  16
TORSDOF 4
ENDMDL
MODEL 3
REMARK VINA RESULT:     -11.4      1.482      2.061
REMARK  Name = 5729339
REMARK  4 active torsions:
REMARK  status: ('A' for Active; 'I' for Inactive)
REMARK    1  A    between atoms: C_2  and  C_16
REMARK    2  A    between atoms: C_3  and  C_10
REMARK    3  A    between atoms: C_17  and  S_22
REMARK    4  A    between atoms: S_22  and  N_25
REMARK                            x       y       z     vdW  Elec       q    Type
REMARK                         _______ _______ _______ _____ _____    ______ ____
ROOT
ATOM      1  O   UNL     1      34.197 -17.490 -20.891  0.00  0.00    -0.453 OA
ATOM      2  C   UNL     1      34.580 -18.734 -21.276  0.00  0.00    +0.145 C 
ATOM      3  C   UNL     1      34.584 -16.646 -21.883  0.00  0.00    +0.147 C 
ATOM      4  C   UNL     1      35.205 -18.700 -22.495  0.00  0.00    +0.041 C 
ATOM      5  C   UNL     1      35.208 -17.342 -22.893  0.00  0.00    +0.041 C 
ENDROOT
BRANCH   3  10
ATOM      6  S   UNL     1      33.331 -14.948 -24.365  0.00  0.00    -0.027 S 
ATOM      7  O   UNL     1      33.876 -12.372 -21.619  0.00  0.00    -0.209 OA
ATOM      8  N   UNL     1      33.072 -12.432 -23.792  0.00  0.00    -0.311 NA
ATOM      9  N   UNL     1      32.365 -13.059 -25.985  0.00  0.00    -0.327 N 
ATOM     10  C   UNL     1      34.345 -15.254 -21.821  0.00  0.00    +0.057 C 
ATOM     11  C   UNL     1      33.824 -14.447 -22.802  0.00  0.00    +0.131 C 
ATOM     12  C   UNL     1      33.609 -12.986 -22.644  0.00  0.00    +0.213 C 
ATOM     13  C   UNL     1      32.877 -13.294 -24.744  0.00  0.00    +0.222 C 
ATOM     14  H   UNL     1      32.265 -13.802 -26.624  0.00  0.00    +0.145 HD
ATOM     15  H   UNL     1      32.097 -12.148 -26.243  0.00  0.00    +0.145 HD
ENDBRANCH   3  10
BRANCH   2  16
ATOM     16  C   UNL     1      34.257 -19.789 -20.348  0.00  0.00    +0.035 C 
ATOM     17  C   UNL     1      33.631 -21.832 -18.553  0.00  0.00    +0.122 C 
ATOM     18  C   UNL     1      32.923 -20.102 -20.085  0.00  0.00    +0.004 C 
ATOM     19  C   UNL     1      35.277 -20.498 -19.714  0.00  0.00    +0.004 C 
ATOM     20  C   UNL     1      32.610 -21.123 -19.188  0.00  0.00    +0.020 C 
ATOM     21  C   UNL     1      34.965 -21.519 -18.817  0.00  0.00    +0.020 C 
BRANCH  17  22
ATOM     22  S   UNL     1      33.239 -23.110 -17.431  0.00  0.00    +0.057 S 
ATOM     23  O   UNL     1      32.997 -24.329 -18.190  0.00  0.00    -0.153 OA
ATOM     24  O   UNL     1      34.229 -23.107 -16.364  0.00  0.00    -0.153 OA
BRANCH  22  25
ATOM     25  N   UNL     1      31.753 -22.548 -16.801  0.00  0.00    -0.203 NA
ATOM     26  H   UNL     1      31.493 -23.109 -15.992  0.00  0.00    +0.144 HD
ATOM     27  H   UNL     1      31.030 -22.625 -17.517  0.00  0.00    +0.144 HD
ENDBRANCH  22  25
ENDBRANCH  17  22
ENDBRANCH   2  16
TORSDOF 4
ENDMDL
MODEL 4
REMARK VINA RESULT:     -11.3      2.434      8.756
REMARK  Name = 5729339
REMARK  4 active torsions:
REMARK  status: ('A' for Active; 'I' for Inactive)
REMARK    1  A    between atoms: C_2  and  C_16
REMARK    2  A    between atoms: C_3  and  C_10
REMARK    3  A    between atoms: C_17  and  S_22
REMARK    4  A    between atoms: S_22  and  N_25
REMARK                            x       y       z     vdW  Elec       q    Type
REMARK                         _______ _______ _______ _____ _____    ______ ____
ROOT
ATOM      1  O   UNL     1      34.300 -18.602 -20.680  0.00  0.00    -0.453 OA
ATOM      2  C   UNL     1      35.177 -17.768 -21.293  0.00  0.00    +0.145 C 
ATOM      3  C   UNL     1      35.015 -19.689 -20.290  0.00  0.00    +0.147 C 
ATOM      4  C   UNL     1      36.439 -18.302 -21.302  0.00  0.00    +0.041 C 
ATOM      5  C   UNL     1      36.336 -19.553 -20.649  0.00  0.00    +0.041 C 
ENDROOT
BRANCH   3  10
ATOM      6  S   UNL     1      36.177 -20.889 -17.493  0.00  0.00    -0.027 S 
ATOM      7  O   UNL     1      33.128 -23.030 -18.260  0.00  0.00    -0.209 OA
ATOM      8  N   UNL     1      34.759 -22.876 -16.620  0.00  0.00    -0.311 NA
ATOM      9  N   UNL     1      36.627 -22.279 -15.259  0.00  0.00    -0.327 N 
ATOM     10  C   UNL     1      34.418 -20.777 -19.611  0.00  0.00    +0.057 C 
ATOM     11  C   UNL     1      34.824 -21.356 -18.434  0.00  0.00    +0.131 C 
ATOM     12  C   UNL     1      34.128 -22.502 -17.793  0.00  0.00    +0.213 C 
ATOM     13  C   UNL     1      35.803 -22.158 -16.337  0.00  0.00    +0.222 C 
ATOM     14  H   UNL     1      37.393 -21.668 -15.156  0.00  0.00    +0.145 HD
ATOM     15  H   UNL     1      36.457 -22.975 -14.585  0.00  0.00    +0.145 HD
ENDBRANCH   3  10
BRANCH   2  16
ATOM     16  C   UNL     1      34.610 -16.538 -21.786  0.00  0.00    +0.035 C 
ATOM     17  C   UNL     1      33.511 -14.157 -22.742  0.00  0.00    +0.122 C 
ATOM     18  C   UNL     1      34.465 -16.337 -23.160  0.00  0.00    +0.004 C 
ATOM     19  C   UNL     1      34.203 -15.548 -20.891  0.00  0.00    +0.004 C 
ATOM     20  C   UNL     1      33.916 -15.147 -23.637  0.00  0.00    +0.020 C 
ATOM     21  C   UNL     1      33.654 -14.358 -21.368  0.00  0.00    +0.020 C 
BRANCH  17  22
ATOM     22  S   UNL     1      32.823 -12.668 -23.339  0.00  0.00    +0.057 S 
ATOM     23  O   UNL     1      31.602 -12.395 -22.594  0.00  0.00    -0.153 OA
ATOM     24  O   UNL     1      33.875 -11.663 -23.396  0.00  0.00    -0.153 OA
BRANCH  22  25
ATOM     25  N   UNL     1      32.407 -13.118 -24.934  0.00  0.00    -0.203 NA
ATOM     26  H   UNL     1      32.918 -13.960 -25.195  0.00  0.00    +0.144 HD
ATOM     27  H   UNL     1      32.649 -12.361 -25.574  0.00  0.00    +0.144 HD
ENDBRANCH  22  25
ENDBRANCH  17  22
ENDBRANCH   2  16
TORSDOF 4
ENDMDL
MODEL 5
REMARK VINA RESULT:     -11.0      4.598     10.506
REMARK  Name = 5729339
REMARK  4 active torsions:
REMARK  status: ('A' for Active; 'I' for Inactive)
REMARK    1  A    between atoms: C_2  and  C_16
REMARK    2  A    between atoms: C_3  and  C_10
REMARK    3  A    between atoms: C_17  and  S_22
REMARK    4  A    between atoms: S_22  and  N_25
REMARK                            x       y       z     vdW  Elec       q    Type
REMARK                         _______ _______ _______ _____ _____    ______ ____
ROOT
ATOM      1  O   UNL     1      34.927 -23.120 -16.518  0.00  0.00    -0.453 OA
ATOM      2  C   UNL     1      33.852 -22.468 -17.028  0.00  0.00    +0.145 C 
ATOM      3  C   UNL     1      34.461 -23.885 -15.496  0.00  0.00    +0.147 C 
ATOM      4  C   UNL     1      32.708 -22.803 -16.352  0.00  0.00    +0.041 C 
ATOM      5  C   UNL     1      33.102 -23.725 -15.354  0.00  0.00    +0.041 C 
ENDROOT
BRANCH   3  10
ATOM      6  S   UNL     1      35.056 -23.362 -12.336  0.00  0.00    -0.027 S 
ATOM      7  O   UNL     1      37.089 -26.460 -13.194  0.00  0.00    -0.209 OA
ATOM      8  N   UNL     1      36.675 -25.127 -11.344  0.00  0.00    -0.311 NA
ATOM      9  N   UNL     1      35.914 -23.462  -9.811  0.00  0.00    -0.327 N 
ATOM     10  C   UNL     1      35.314 -24.709 -14.726  0.00  0.00    +0.057 C 
ATOM     11  C   UNL     1      35.630 -24.579 -13.396  0.00  0.00    +0.131 C 
ATOM     12  C   UNL     1      36.541 -25.500 -12.669  0.00  0.00    +0.213 C 
ATOM     13  C   UNL     1      35.989 -24.070 -11.028  0.00  0.00    +0.222 C 
ATOM     14  H   UNL     1      35.354 -22.660  -9.696  0.00  0.00    +0.145 HD
ATOM     15  H   UNL     1      36.420 -23.823  -9.048  0.00  0.00    +0.145 HD
ENDBRANCH   3  10
BRANCH   2  16
ATOM     16  C   UNL     1      34.136 -21.593 -18.138  0.00  0.00    +0.035 C 
ATOM     17  C   UNL     1      34.686 -19.899 -20.286  0.00  0.00    +0.122 C 
ATOM     18  C   UNL     1      35.454 -21.242 -18.430  0.00  0.00    +0.004 C 
ATOM     19  C   UNL     1      33.093 -21.096 -18.920  0.00  0.00    +0.004 C 
ATOM     20  C   UNL     1      35.729 -20.396 -19.504  0.00  0.00    +0.020 C 
ATOM     21  C   UNL     1      33.368 -20.250 -19.994  0.00  0.00    +0.020 C 
BRANCH  17  22
ATOM     22  S   UNL     1      35.030 -18.840 -21.630  0.00  0.00    +0.057 S 
ATOM     23  O   UNL     1      36.445 -18.956 -21.956  0.00  0.00    -0.153 OA
ATOM     24  O   UNL     1      34.030 -19.064 -22.664  0.00  0.00    -0.153 OA
BRANCH  22  25
ATOM     25  N   UNL     1      34.751 -17.310 -20.920  0.00  0.00    -0.203 NA
ATOM     26  H   UNL     1      35.533 -17.070 -20.312  0.00  0.00    +0.144 HD
ATOM     27  H   UNL     1      33.891 -17.342 -20.373  0.00  0.00    +0.144 HD
ENDBRANCH  22  25
ENDBRANCH  17  22
ENDBRANCH   2  16
TORSDOF 4
ENDMDL
MODEL 6
REMARK VINA RESULT:     -10.7      4.463     10.212
REMARK  Name = 5729339
REMARK  4 active torsions:
REMARK  status: ('A' for Active; 'I' for Inactive)
REMARK    1  A    between atoms: C_2  and  C_16
REMARK    2  A    between atoms: C_3  and  C_10
REMARK    3  A    between atoms: C_17  and  S_22
REMARK    4  A    between atoms: S_22  and  N_25
REMARK                            x       y       z     vdW  Elec       q    Type
REMARK                         _______ _______ _______ _____ _____    ______ ____
ROOT
ATOM      1  O   UNL     1      34.936 -21.758 -16.396  0.00  0.00    -0.453 OA
ATOM      2  C   UNL     1      34.155 -22.063 -17.463  0.00  0.00    +0.145 C 
ATOM      3  C   UNL     1      34.618 -22.651 -15.422  0.00  0.00    +0.147 C 
ATOM      4  C   UNL     1      33.344 -23.133 -17.189  0.00  0.00    +0.041 C 
ATOM      5  C   UNL     1      33.644 -23.517 -15.861  0.00  0.00    +0.041 C 
ENDROOT
BRANCH   3  10
ATOM      6  S   UNL     1      37.146 -24.560 -14.663  0.00  0.00    -0.027 S 
ATOM      7  O   UNL     1      36.489 -22.540 -11.507  0.00  0.00    -0.209 OA
ATOM      8  N   UNL     1      37.958 -24.180 -12.230  0.00  0.00    -0.311 NA
ATOM      9  N   UNL     1      39.171 -25.823 -13.468  0.00  0.00    -0.327 N 
ATOM     10  C   UNL     1      35.243 -22.633 -14.154  0.00  0.00    +0.057 C 
ATOM     11  C   UNL     1      36.308 -23.390 -13.732  0.00  0.00    +0.131 C 
ATOM     12  C   UNL     1      36.900 -23.301 -12.372  0.00  0.00    +0.213 C 
ATOM     13  C   UNL     1      38.201 -24.881 -13.296  0.00  0.00    +0.222 C 
ATOM     14  H   UNL     1      39.255 -26.289 -14.331  0.00  0.00    +0.145 HD
ATOM     15  H   UNL     1      39.786 -26.036 -12.730  0.00  0.00    +0.145 HD
ENDBRANCH   3  10
BRANCH   2  16
ATOM     16  C   UNL     1      34.341 -21.221 -18.619  0.00  0.00    +0.035 C 
ATOM     17  C   UNL     1      34.702 -19.592 -20.856  0.00  0.00    +0.122 C 
ATOM     18  C   UNL     1      33.235 -20.770 -19.339  0.00  0.00    +0.004 C 
ATOM     19  C   UNL     1      35.628 -20.857 -19.016  0.00  0.00    +0.004 C 
ATOM     20  C   UNL     1      33.416 -19.956 -20.457  0.00  0.00    +0.020 C 
ATOM     21  C   UNL     1      35.809 -20.042 -20.134  0.00  0.00    +0.020 C 
BRANCH  17  22
ATOM     22  S   UNL     1      34.928 -18.572 -22.254  0.00  0.00    +0.057 S 
ATOM     23  O   UNL     1      34.619 -19.351 -23.445  0.00  0.00    -0.153 OA
ATOM     24  O   UNL     1      34.246 -17.308 -22.019  0.00  0.00    -0.153 OA
BRANCH  22  25
ATOM     25  N   UNL     1      36.615 -18.304 -22.193  0.00  0.00    -0.203 NA
ATOM     26  H   UNL     1      37.000 -18.345 -23.136  0.00  0.00    +0.144 HD
ATOM     27  H   UNL     1      37.052 -19.022 -21.616  0.00  0.00    +0.144 HD
ENDBRANCH  22  25
ENDBRANCH  17  22
ENDBRANCH   2  16
TORSDOF 4
ENDMDL
MODEL 7
REMARK VINA RESULT:     -10.6      2.398      8.923
REMARK  Name = 5729339
REMARK  4 active torsions:
REMARK  status: ('A' for Active; 'I' for Inactive)
REMARK    1  A    between atoms: C_2  and  C_16
REMARK    2  A    between atoms: C_3  and  C_10
REMARK    3  A    between atoms: C_17  and  S_22
REMARK    4  A    between atoms: S_22  and  N_25
REMARK                            x       y       z     vdW  Elec       q    Type
REMARK                         _______ _______ _______ _____ _____    ______ ____
ROOT
ATOM      1  O   UNL     1      33.829 -20.349 -19.724  0.00  0.00    -0.453 OA
ATOM      2  C   UNL     1      34.911 -19.862 -20.382  0.00  0.00    +0.145 C 
ATOM      3  C   UNL     1      34.296 -21.291 -18.863  0.00  0.00    +0.147 C 
ATOM      4  C   UNL     1      36.061 -20.475 -19.957  0.00  0.00    +0.041 C 
ATOM      5  C   UNL     1      35.663 -21.406 -18.969  0.00  0.00    +0.041 C 
ENDROOT
BRANCH   3  10
ATOM      6  S   UNL     1      35.106 -22.103 -15.814  0.00  0.00    -0.027 S 
ATOM      7  O   UNL     1      31.606 -23.518 -16.285  0.00  0.00    -0.209 OA
ATOM      8  N   UNL     1      33.220 -23.426 -14.624  0.00  0.00    -0.311 NA
ATOM      9  N   UNL     1      35.179 -23.037 -13.315  0.00  0.00    -0.327 N 
ATOM     10  C   UNL     1      33.437 -22.016 -18.005  0.00  0.00    +0.057 C 
ATOM     11  C   UNL     1      33.678 -22.408 -16.711  0.00  0.00    +0.131 C 
ATOM     12  C   UNL     1      32.709 -23.172 -15.884  0.00  0.00    +0.213 C 
ATOM     13  C   UNL     1      34.415 -22.951 -14.440  0.00  0.00    +0.222 C 
ATOM     14  H   UNL     1      36.077 -22.633 -13.299  0.00  0.00    +0.145 HD
ATOM     15  H   UNL     1      34.834 -23.503 -12.520  0.00  0.00    +0.145 HD
ENDBRANCH   3  10
BRANCH   2  16
ATOM     16  C   UNL     1      34.627 -18.836 -21.354  0.00  0.00    +0.035 C 
ATOM     17  C   UNL     1      34.077 -16.850 -23.236  0.00  0.00    +0.122 C 
ATOM     18  C   UNL     1      34.923 -17.503 -21.068  0.00  0.00    +0.004 C 
ATOM     19  C   UNL     1      34.057 -19.176 -22.581  0.00  0.00    +0.004 C 
ATOM     20  C   UNL     1      34.649 -16.511 -22.009  0.00  0.00    +0.020 C 
ATOM     21  C   UNL     1      33.782 -18.183 -23.522  0.00  0.00    +0.020 C 
BRANCH  17  22
ATOM     22  S   UNL     1      33.734 -15.609 -24.413  0.00  0.00    +0.057 S 
ATOM     23  O   UNL     1      33.217 -14.441 -23.712  0.00  0.00    -0.153 OA
ATOM     24  O   UNL     1      34.888 -15.472 -25.291  0.00  0.00    -0.153 OA
BRANCH  22  25
ATOM     25  N   UNL     1      32.460 -16.334 -25.291  0.00  0.00    -0.203 NA
ATOM     26  H   UNL     1      32.844 -17.005 -25.956  0.00  0.00    +0.144 HD
ATOM     27  H   UNL     1      31.941 -15.614 -25.794  0.00  0.00    +0.144 HD
ENDBRANCH  22  25
ENDBRANCH  17  22
ENDBRANCH   2  16
TORSDOF 4
ENDMDL
MODEL 8
REMARK VINA RESULT:     -10.6      2.844      9.069
REMARK  Name = 5729339
REMARK  4 active torsions:
REMARK  status: ('A' for Active; 'I' for Inactive)
REMARK    1  A    between atoms: C_2  and  C_16
REMARK    2  A    between atoms: C_3  and  C_10
REMARK    3  A    between atoms: C_17  and  S_22
REMARK    4  A    between atoms: S_22  and  N_25
REMARK                            x       y       z     vdW  Elec       q    Type
REMARK                         _______ _______ _______ _____ _____    ______ ____
ROOT
ATOM      1  O   UNL     1      35.465 -20.074 -19.490  0.00  0.00    -0.453 OA
ATOM      2  C   UNL     1      34.352 -20.010 -20.262  0.00  0.00    +0.145 C 
ATOM      3  C   UNL     1      35.307 -21.153 -18.679  0.00  0.00    +0.147 C 
ATOM      4  C   UNL     1      33.485 -21.027 -19.960  0.00  0.00    +0.041 C 
ATOM      5  C   UNL     1      34.104 -21.773 -18.930  0.00  0.00    +0.041 C 
ENDROOT
BRANCH   3  10
ATOM      6  S   UNL     1      34.563 -22.222 -15.693  0.00  0.00    -0.027 S 
ATOM      7  O   UNL     1      38.364 -22.294 -15.817  0.00  0.00    -0.209 OA
ATOM      8  N   UNL     1      36.678 -22.794 -14.307  0.00  0.00    -0.311 NA
ATOM      9  N   UNL     1      34.598 -23.141 -13.188  0.00  0.00    -0.327 N 
ATOM     10  C   UNL     1      36.285 -21.530 -17.730  0.00  0.00    +0.057 C 
ATOM     11  C   UNL     1      36.081 -21.991 -16.453  0.00  0.00    +0.131 C 
ATOM     12  C   UNL     1      37.178 -22.364 -15.523  0.00  0.00    +0.213 C 
ATOM     13  C   UNL     1      35.381 -22.778 -14.242  0.00  0.00    +0.222 C 
ATOM     14  H   UNL     1      33.618 -23.084 -13.261  0.00  0.00    +0.145 HD
ATOM     15  H   UNL     1      35.012 -23.459 -12.353  0.00  0.00    +0.145 HD
ENDBRANCH   3  10
BRANCH   2  16
ATOM     16  C   UNL     1      34.323 -18.919 -21.205  0.00  0.00    +0.035 C 
ATOM     17  C   UNL     1      34.267 -16.808 -23.030  0.00  0.00    +0.122 C 
ATOM     18  C   UNL     1      34.756 -17.651 -20.818  0.00  0.00    +0.004 C 
ATOM     19  C   UNL     1      33.862 -19.132 -22.505  0.00  0.00    +0.004 C 
ATOM     20  C   UNL     1      34.728 -16.596 -21.730  0.00  0.00    +0.020 C 
ATOM     21  C   UNL     1      33.835 -18.077 -23.417  0.00  0.00    +0.020 C 
BRANCH  17  22
ATOM     22  S   UNL     1      34.233 -15.489 -24.171  0.00  0.00    +0.057 S 
ATOM     23  O   UNL     1      34.528 -14.255 -23.456  0.00  0.00    -0.153 OA
ATOM     24  O   UNL     1      35.031 -15.860 -25.332  0.00  0.00    -0.153 OA
BRANCH  22  25
ATOM     25  N   UNL     1      32.584 -15.487 -24.619  0.00  0.00    -0.203 NA
ATOM     26  H   UNL     1      32.016 -15.193 -23.825  0.00  0.00    +0.144 HD
ATOM     27  H   UNL     1      32.309 -16.426 -24.906  0.00  0.00    +0.144 HD
ENDBRANCH  22  25
ENDBRANCH  17  22
ENDBRANCH   2  16
TORSDOF 4
ENDMDL
MODEL 9
REMARK VINA RESULT:     -10.4      5.758     11.749
REMARK  Name = 5729339
REMARK  4 active torsions:
REMARK  status: ('A' for Active; 'I' for Inactive)
REMARK    1  A    between atoms: C_2  and  C_16
REMARK    2  A    between atoms: C_3  and  C_10
REMARK    3  A    between atoms: C_17  and  S_22
REMARK    4  A    between atoms: S_22  and  N_25
REMARK                            x       y       z     vdW  Elec       q    Type
REMARK                         _______ _______ _______ _____ _____    ______ ____
ROOT
ATOM      1  O   UNL     1      32.301 -11.026 -23.005  0.00  0.00    -0.453 OA
ATOM      2  C   UNL     1      31.743 -10.311 -21.996  0.00  0.00    +0.145 C 
ATOM      3  C   UNL     1      32.305 -12.323 -22.600  0.00  0.00    +0.147 C 
ATOM      4  C   UNL     1      31.389 -11.128 -20.954  0.00  0.00    +0.041 C 
ATOM      5  C   UNL     1      31.754 -12.438 -21.345  0.00  0.00    +0.041 C 
ENDROOT
BRANCH   3  10
ATOM      6  S   UNL     1      33.879 -14.904 -21.386  0.00  0.00    -0.027 S 
ATOM      7  O   UNL     1      33.857 -15.475 -25.147  0.00  0.00    -0.209 OA
ATOM      8  N   UNL     1      34.639 -16.544 -23.245  0.00  0.00    -0.311 NA
ATOM      9  N   UNL     1      35.207 -17.189 -21.017  0.00  0.00    -0.327 N 
ATOM     10  C   UNL     1      32.820 -13.361 -23.409  0.00  0.00    +0.057 C 
ATOM     11  C   UNL     1      33.494 -14.486 -23.003  0.00  0.00    +0.131 C 
ATOM     12  C   UNL     1      34.001 -15.528 -23.933  0.00  0.00    +0.213 C 
ATOM     13  C   UNL     1      34.658 -16.370 -21.958  0.00  0.00    +0.222 C 
ATOM     14  H   UNL     1      35.156 -16.946 -20.064  0.00  0.00    +0.145 HD
ATOM     15  H   UNL     1      35.655 -18.022 -21.290  0.00  0.00    +0.145 HD
ENDBRANCH   3  10
BRANCH   2  16
ATOM     16  C   UNL     1      31.644  -8.892 -22.231  0.00  0.00    +0.035 C 
ATOM     17  C   UNL     1      31.455  -6.146 -22.686  0.00  0.00    +0.122 C 
ATOM     18  C   UNL     1      31.651  -8.004 -21.155  0.00  0.00    +0.004 C 
ATOM     19  C   UNL     1      31.543  -8.406 -23.535  0.00  0.00    +0.004 C 
ATOM     20  C   UNL     1      31.556  -6.632 -21.383  0.00  0.00    +0.020 C 
ATOM     21  C   UNL     1      31.449  -7.033 -23.763  0.00  0.00    +0.020 C 
BRANCH  17  22
ATOM     22  S   UNL     1      31.337  -4.428 -22.972  0.00  0.00    +0.057 S 
ATOM     23  O   UNL     1      32.519  -4.002 -23.707  0.00  0.00    -0.153 OA
ATOM     24  O   UNL     1      30.012  -4.137 -23.501  0.00  0.00    -0.153 OA
BRANCH  22  25
ATOM     25  N   UNL     1      31.433  -3.825 -21.376  0.00  0.00    -0.203 NA
ATOM     26  H   UNL     1      30.578  -3.317 -21.151  0.00  0.00    +0.144 HD
ATOM     27  H   UNL     1      32.233  -3.196 -21.298  0.00  0.00    +0.144 HD
ENDBRANCH  22  25
ENDBRANCH  17  22
ENDBRANCH   2  16
TORSDOF 4
ENDMDL
