MODEL 1
REMARK VINA RESULT:     -12.4      0.000      0.000
REMARK  Name = 10361208
REMARK  3 active torsions:
REMARK  status: ('A' for Active; 'I' for Inactive)
REMARK    1  A    between atoms: N_1  and  C_12
REMARK    2  A    between atoms: C_10  and  C_18
REMARK    3  A    between atoms: C_21  and  C_27
REMARK                            x       y       z     vdW  Elec       q    Type
REMARK                         _______ _______ _______ _____ _____    ______ ____
ROOT
ATOM      1  N   UNL     1      34.725 -24.230 -14.149  0.00  0.00    -0.318 N 
ATOM      2  N   UNL     1      33.764 -23.070 -15.884  0.00  0.00    -0.147 NA
ATOM      3  N   UNL     1      32.595 -22.667 -16.442  0.00  0.00    -0.190 N 
ATOM      4  N   UNL     1      30.453 -22.354 -16.809  0.00  0.00    -0.127 NA
ATOM      5  N   UNL     1      31.165 -21.727 -17.811  0.00  0.00    -0.127 NA
ATOM      6  C   UNL     1      33.632 -23.778 -14.786  0.00  0.00    +0.149 C 
ATOM      7  C   UNL     1      32.288 -24.113 -14.197  0.00  0.00    +0.039 C 
ATOM      8  C   UNL     1      31.320 -22.914 -15.992  0.00  0.00    +0.187 A 
ATOM      9  C   UNL     1      31.186 -23.674 -14.816  0.00  0.00    +0.044 C 
ATOM     10  C   UNL     1      32.443 -21.925 -17.577  0.00  0.00    +0.187 A 
ATOM     11  H   UNL     1      34.605 -24.773 -13.336  0.00  0.00    +0.148 HD
ENDROOT
BRANCH   1  12
ATOM     12  C   UNL     1      36.073 -23.954 -14.607  0.00  0.00    +0.070 C 
ATOM     13  C   UNL     1      36.730 -22.904 -13.706  0.00  0.00    +0.020 C 
ATOM     14  C   UNL     1      36.890 -25.250 -14.649  0.00  0.00    +0.020 C 
ATOM     15  C   UNL     1      37.068 -23.445 -12.316  0.00  0.00    +0.002 C 
ATOM     16  C   UNL     1      37.227 -25.782 -13.256  0.00  0.00    +0.002 C 
ATOM     17  C   UNL     1      37.902 -24.719 -12.395  0.00  0.00    +0.000 C 
ENDBRANCH   1  12
BRANCH  10  18
ATOM     18  C   UNL     1      33.541 -21.441 -18.378  0.00  0.00    +0.038 C 
ATOM     19  C   UNL     1      33.293 -20.630 -19.485  0.00  0.00    +0.007 C 
ATOM     20  C   UNL     1      34.850 -21.787 -18.046  0.00  0.00    +0.003 C 
ATOM     21  C   UNL     1      34.355 -20.164 -20.260  0.00  0.00    +0.072 C 
ATOM     22  C   UNL     1      35.913 -21.322 -18.820  0.00  0.00    +0.000 C 
ATOM     23  C   UNL     1      35.664 -20.509 -19.928  0.00  0.00    +0.004 C 
BRANCH  21  27
ATOM     24  F   UNL     1      34.890 -19.573 -22.515  0.00  0.00    -0.166 F 
ATOM     25  F   UNL     1      32.814 -19.388 -21.917  0.00  0.00    -0.166 F 
ATOM     26  F   UNL     1      34.286 -17.970 -21.175  0.00  0.00    -0.166 F 
ATOM     27  C   UNL     1      34.091 -19.295 -21.443  0.00  0.00    +0.419 C 
ENDBRANCH  21  27
ENDBRANCH  10  18
TORSDOF 3
ENDMDL
MODEL 2
REMARK VINA RESULT:     -11.9      3.348      5.377
REMARK  Name = 10361208
REMARK  3 active torsions:
REMARK  status: ('A' for Active; 'I' for Inactive)
REMARK    1  A    between atoms: N_1  and  C_12
REMARK    2  A    between atoms: C_10  and  C_18
REMARK    3  A    between atoms: C_21  and  C_27
REMARK                            x       y       z     vdW  Elec       q    Type
REMARK                         _______ _______ _______ _____ _____    ______ ____
ROOT
ATOM      1  N   UNL     1      36.522 -22.405 -14.433  0.00  0.00    -0.318 N 
ATOM      2  N   UNL     1      34.570 -22.412 -15.645  0.00  0.00    -0.147 NA
ATOM      3  N   UNL     1      34.011 -22.174 -16.858  0.00  0.00    -0.190 N 
ATOM      4  N   UNL     1      33.754 -21.633 -18.970  0.00  0.00    -0.127 NA
ATOM      5  N   UNL     1      32.525 -21.993 -18.459  0.00  0.00    -0.127 NA
ATOM      6  C   UNL     1      35.865 -22.201 -15.586  0.00  0.00    +0.149 C 
ATOM      7  C   UNL     1      36.661 -21.731 -16.774  0.00  0.00    +0.039 C 
ATOM      8  C   UNL     1      34.640 -21.746 -18.003  0.00  0.00    +0.187 A 
ATOM      9  C   UNL     1      36.027 -21.520 -17.933  0.00  0.00    +0.044 C 
ATOM     10  C   UNL     1      32.697 -22.312 -17.196  0.00  0.00    +0.187 A 
ATOM     11  H   UNL     1      37.490 -22.225 -14.404  0.00  0.00    +0.148 HD
ENDROOT
BRANCH   1  12
ATOM     12  C   UNL     1      35.867 -22.877 -13.227  0.00  0.00    +0.070 C 
ATOM     13  C   UNL     1      35.448 -24.341 -13.396  0.00  0.00    +0.020 C 
ATOM     14  C   UNL     1      36.792 -22.692 -12.020  0.00  0.00    +0.020 C 
ATOM     15  C   UNL     1      36.639 -25.301 -13.400  0.00  0.00    +0.002 C 
ATOM     16  C   UNL     1      37.978 -23.658 -12.030  0.00  0.00    +0.002 C 
ATOM     17  C   UNL     1      37.523 -25.107 -12.173  0.00  0.00    +0.000 C 
ENDBRANCH   1  12
BRANCH  10  18
ATOM     18  C   UNL     1      31.670 -22.749 -16.280  0.00  0.00    +0.038 C 
ATOM     19  C   UNL     1      30.325 -22.600 -16.616  0.00  0.00    +0.007 C 
ATOM     20  C   UNL     1      32.025 -23.319 -15.058  0.00  0.00    +0.003 C 
ATOM     21  C   UNL     1      29.334 -23.021 -15.731  0.00  0.00    +0.072 C 
ATOM     22  C   UNL     1      31.034 -23.740 -14.171  0.00  0.00    +0.000 C 
ATOM     23  C   UNL     1      29.688 -23.592 -14.508  0.00  0.00    +0.004 C 
BRANCH  21  27
ATOM     24  F   UNL     1      27.083 -22.645 -15.014  0.00  0.00    -0.166 F 
ATOM     25  F   UNL     1      27.654 -21.820 -16.937  0.00  0.00    -0.166 F 
ATOM     26  F   UNL     1      27.387 -23.967 -16.714  0.00  0.00    -0.166 F 
ATOM     27  C   UNL     1      27.895 -22.864 -16.090  0.00  0.00    +0.419 C 
ENDBRANCH  21  27
ENDBRANCH  10  18
TORSDOF 3
ENDMDL
MODEL 3
REMARK VINA RESULT:     -11.4      1.835      2.450
REMARK  Name = 10361208
REMARK  3 active torsions:
REMARK  status: ('A' for Active; 'I' for Inactive)
REMARK    1  A    between atoms: N_1  and  C_12
REMARK    2  A    between atoms: C_10  and  C_18
REMARK    3  A    between atoms: C_21  and  C_27
REMARK                            x       y       z     vdW  Elec       q    Type
REMARK                         _______ _______ _______ _____ _____    ______ ____
ROOT
ATOM      1  N   UNL     1      34.533 -24.360 -13.823  0.00  0.00    -0.318 N 
ATOM      2  N   UNL     1      33.156 -23.349 -15.359  0.00  0.00    -0.147 NA
ATOM      3  N   UNL     1      31.869 -23.096 -15.705  0.00  0.00    -0.190 N 
ATOM      4  N   UNL     1      29.674 -23.047 -15.696  0.00  0.00    -0.127 NA
ATOM      5  N   UNL     1      30.122 -22.354 -16.802  0.00  0.00    -0.127 NA
ATOM      6  C   UNL     1      33.301 -24.052 -14.259  0.00  0.00    +0.149 C 
ATOM      7  C   UNL     1      32.128 -24.536 -13.450  0.00  0.00    +0.039 C 
ATOM      8  C   UNL     1      30.729 -23.487 -15.044  0.00  0.00    +0.187 A 
ATOM      9  C   UNL     1      30.891 -24.240 -13.866  0.00  0.00    +0.044 C 
ATOM     10  C   UNL     1      31.436 -22.395 -16.792  0.00  0.00    +0.187 A 
ATOM     11  H   UNL     1      34.620 -24.902 -13.005  0.00  0.00    +0.148 HD
ENDROOT
BRANCH   1  12
ATOM     12  C   UNL     1      35.740 -23.932 -14.505  0.00  0.00    +0.070 C 
ATOM     13  C   UNL     1      36.385 -22.767 -13.749  0.00  0.00    +0.020 C 
ATOM     14  C   UNL     1      36.706 -25.112 -14.653  0.00  0.00    +0.020 C 
ATOM     15  C   UNL     1      37.014 -23.197 -12.423  0.00  0.00    +0.002 C 
ATOM     16  C   UNL     1      37.333 -25.534 -13.324  0.00  0.00    +0.002 C 
ATOM     17  C   UNL     1      37.988 -24.355 -12.611  0.00  0.00    +0.000 C 
ENDBRANCH   1  12
BRANCH  10  18
ATOM     18  C   UNL     1      32.314 -21.795 -17.768  0.00  0.00    +0.038 C 
ATOM     19  C   UNL     1      33.696 -21.848 -17.589  0.00  0.00    +0.007 C 
ATOM     20  C   UNL     1      31.778 -21.162 -18.889  0.00  0.00    +0.003 C 
ATOM     21  C   UNL     1      34.543 -21.268 -18.533  0.00  0.00    +0.072 C 
ATOM     22  C   UNL     1      32.626 -20.581 -19.833  0.00  0.00    +0.000 C 
ATOM     23  C   UNL     1      34.009 -20.634 -19.654  0.00  0.00    +0.004 C 
BRANCH  21  27
ATOM     24  F   UNL     1      36.588 -20.109 -18.089  0.00  0.00    -0.166 F 
ATOM     25  F   UNL     1      36.410 -22.124 -17.307  0.00  0.00    -0.166 F 
ATOM     26  F   UNL     1      36.672 -21.810 -19.443  0.00  0.00    -0.166 F 
ATOM     27  C   UNL     1      36.022 -21.325 -18.344  0.00  0.00    +0.419 C 
ENDBRANCH  21  27
ENDBRANCH  10  18
TORSDOF 3
ENDMDL
MODEL 4
REMARK VINA RESULT:     -11.3      3.821      5.739
REMARK  Name = 10361208
REMARK  3 active torsions:
REMARK  status: ('A' for Active; 'I' for Inactive)
REMARK    1  A    between atoms: N_1  and  C_12
REMARK    2  A    between atoms: C_10  and  C_18
REMARK    3  A    between atoms: C_21  and  C_27
REMARK                            x       y       z     vdW  Elec       q    Type
REMARK                         _______ _______ _______ _____ _____    ______ ____
ROOT
ATOM      1  N   UNL     1      36.301 -22.556 -15.307  0.00  0.00    -0.318 N 
ATOM      2  N   UNL     1      34.254 -22.322 -16.324  0.00  0.00    -0.147 NA
ATOM      3  N   UNL     1      33.609 -21.936 -17.453  0.00  0.00    -0.190 N 
ATOM      4  N   UNL     1      33.205 -21.184 -19.476  0.00  0.00    -0.127 NA
ATOM      5  N   UNL     1      32.003 -21.509 -18.882  0.00  0.00    -0.127 NA
ATOM      6  C   UNL     1      35.561 -22.202 -16.371  0.00  0.00    +0.149 C 
ATOM      7  C   UNL     1      36.281 -21.677 -17.584  0.00  0.00    +0.039 C 
ATOM      8  C   UNL     1      34.162 -21.445 -18.611  0.00  0.00    +0.187 A 
ATOM      9  C   UNL     1      35.563 -21.318 -18.654  0.00  0.00    +0.044 C 
ATOM     10  C   UNL     1      32.263 -21.956 -17.674  0.00  0.00    +0.187 A 
ATOM     11  H   UNL     1      37.279 -22.443 -15.356  0.00  0.00    +0.148 HD
ENDROOT
BRANCH   1  12
ATOM     12  C   UNL     1      35.724 -23.095 -14.091  0.00  0.00    +0.070 C 
ATOM     13  C   UNL     1      35.175 -24.502 -14.348  0.00  0.00    +0.020 C 
ATOM     14  C   UNL     1      36.767 -23.093 -12.968  0.00  0.00    +0.020 C 
ATOM     15  C   UNL     1      36.281 -25.539 -14.554  0.00  0.00    +0.002 C 
ATOM     16  C   UNL     1      37.866 -24.135 -13.180  0.00  0.00    +0.002 C 
ATOM     17  C   UNL     1      37.285 -25.528 -13.407  0.00  0.00    +0.000 C 
ENDBRANCH   1  12
BRANCH  10  18
ATOM     18  C   UNL     1      31.292 -22.408 -16.706  0.00  0.00    +0.038 C 
ATOM     19  C   UNL     1      31.716 -23.008 -15.520  0.00  0.00    +0.007 C 
ATOM     20  C   UNL     1      29.931 -22.245 -16.958  0.00  0.00    +0.003 C 
ATOM     21  C   UNL     1      30.778 -23.445 -14.586  0.00  0.00    +0.072 C 
ATOM     22  C   UNL     1      28.991 -22.682 -16.024  0.00  0.00    +0.000 C 
ATOM     23  C   UNL     1      29.416 -23.283 -14.837  0.00  0.00    +0.004 C 
BRANCH  21  27
ATOM     24  F   UNL     1      30.215 -24.326 -12.435  0.00  0.00    -0.166 F 
ATOM     25  F   UNL     1      31.837 -25.294 -13.501  0.00  0.00    -0.166 F 
ATOM     26  F   UNL     1      32.133 -23.321 -12.636  0.00  0.00    -0.166 F 
ATOM     27  C   UNL     1      31.230 -24.085 -13.317  0.00  0.00    +0.419 C 
ENDBRANCH  21  27
ENDBRANCH  10  18
TORSDOF 3
ENDMDL
MODEL 5
REMARK VINA RESULT:     -11.2      4.390      7.354
REMARK  Name = 10361208
REMARK  3 active torsions:
REMARK  status: ('A' for Active; 'I' for Inactive)
REMARK    1  A    between atoms: N_1  and  C_12
REMARK    2  A    between atoms: C_10  and  C_18
REMARK    3  A    between atoms: C_21  and  C_27
REMARK                            x       y       z     vdW  Elec       q    Type
REMARK                         _______ _______ _______ _____ _____    ______ ____
ROOT
ATOM      1  N   UNL     1      30.990 -22.711 -16.916  0.00  0.00    -0.318 N 
ATOM      2  N   UNL     1      33.244 -22.590 -16.486  0.00  0.00    -0.147 NA
ATOM      3  N   UNL     1      34.448 -22.180 -16.958  0.00  0.00    -0.190 N 
ATOM      4  N   UNL     1      36.004 -21.318 -18.244  0.00  0.00    -0.127 NA
ATOM      5  N   UNL     1      36.601 -21.794 -17.095  0.00  0.00    -0.127 NA
ATOM      6  C   UNL     1      32.230 -22.347 -17.283  0.00  0.00    +0.149 C 
ATOM      7  C   UNL     1      32.396 -21.666 -18.616  0.00  0.00    +0.039 C 
ATOM      8  C   UNL     1      34.713 -21.553 -18.152  0.00  0.00    +0.187 A 
ATOM      9  C   UNL     1      33.622 -21.296 -19.002  0.00  0.00    +0.044 C 
ATOM     10  C   UNL     1      35.657 -22.307 -16.338  0.00  0.00    +0.187 A 
ATOM     11  H   UNL     1      30.245 -22.534 -17.535  0.00  0.00    +0.148 HD
ENDROOT
BRANCH   1  12
ATOM     12  C   UNL     1      30.702 -23.354 -15.648  0.00  0.00    +0.070 C 
ATOM     13  C   UNL     1      30.216 -22.316 -14.631  0.00  0.00    +0.020 C 
ATOM     14  C   UNL     1      29.674 -24.472 -15.847  0.00  0.00    +0.020 C 
ATOM     15  C   UNL     1      28.813 -21.793 -14.946  0.00  0.00    +0.002 C 
ATOM     16  C   UNL     1      28.274 -23.940 -16.157  0.00  0.00    +0.002 C 
ATOM     17  C   UNL     1      27.812 -22.930 -15.111  0.00  0.00    +0.000 C 
ENDBRANCH   1  12
BRANCH  10  18
ATOM     18  C   UNL     1      35.840 -22.916 -15.043  0.00  0.00    +0.038 C 
ATOM     19  C   UNL     1      36.956 -23.715 -14.798  0.00  0.00    +0.007 C 
ATOM     20  C   UNL     1      34.898 -22.705 -14.036  0.00  0.00    +0.003 C 
ATOM     21  C   UNL     1      37.131 -24.304 -13.547  0.00  0.00    +0.072 C 
ATOM     22  C   UNL     1      35.073 -23.294 -12.783  0.00  0.00    +0.000 C 
ATOM     23  C   UNL     1      36.190 -24.094 -12.539  0.00  0.00    +0.004 C 
BRANCH  21  27
ATOM     24  F   UNL     1      38.508 -26.144 -14.210  0.00  0.00    -0.166 F 
ATOM     25  F   UNL     1      39.501 -24.463 -13.265  0.00  0.00    -0.166 F 
ATOM     26  F   UNL     1      38.259 -25.795 -12.078  0.00  0.00    -0.166 F 
ATOM     27  C   UNL     1      38.326 -25.158 -13.283  0.00  0.00    +0.419 C 
ENDBRANCH  21  27
ENDBRANCH  10  18
TORSDOF 3
ENDMDL
MODEL 6
REMARK VINA RESULT:     -11.1      1.687      4.335
REMARK  Name = 10361208
REMARK  3 active torsions:
REMARK  status: ('A' for Active; 'I' for Inactive)
REMARK    1  A    between atoms: N_1  and  C_12
REMARK    2  A    between atoms: C_10  and  C_18
REMARK    3  A    between atoms: C_21  and  C_27
REMARK                            x       y       z     vdW  Elec       q    Type
REMARK                         _______ _______ _______ _____ _____    ______ ____
ROOT
ATOM      1  N   UNL     1      33.034 -24.430 -13.983  0.00  0.00    -0.318 N 
ATOM      2  N   UNL     1      34.330 -23.222 -15.446  0.00  0.00    -0.147 NA
ATOM      3  N   UNL     1      35.578 -22.760 -15.710  0.00  0.00    -0.190 N 
ATOM      4  N   UNL     1      37.726 -22.339 -15.551  0.00  0.00    -0.127 NA
ATOM      5  N   UNL     1      37.250 -21.750 -16.703  0.00  0.00    -0.127 NA
ATOM      6  C   UNL     1      34.225 -23.924 -14.341  0.00  0.00    +0.149 C 
ATOM      7  C   UNL     1      35.402 -24.192 -13.441  0.00  0.00    +0.039 C 
ATOM      8  C   UNL     1      36.716 -22.944 -14.962  0.00  0.00    +0.187 A 
ATOM      9  C   UNL     1      36.598 -23.696 -13.779  0.00  0.00    +0.044 C 
ATOM     10  C   UNL     1      35.964 -22.011 -16.782  0.00  0.00    +0.187 A 
ATOM     11  H   UNL     1      32.974 -24.940 -13.142  0.00  0.00    +0.148 HD
ENDROOT
BRANCH   1  12
ATOM     12  C   UNL     1      31.834 -24.257 -14.779  0.00  0.00    +0.070 C 
ATOM     13  C   UNL     1      30.656 -24.977 -14.115  0.00  0.00    +0.020 C 
ATOM     14  C   UNL     1      31.544 -22.766 -14.976  0.00  0.00    +0.020 C 
ATOM     15  C   UNL     1      30.183 -24.283 -12.837  0.00  0.00    +0.002 C 
ATOM     16  C   UNL     1      31.069 -22.081 -13.695  0.00  0.00    +0.002 C 
ATOM     17  C   UNL     1      29.879 -22.808 -13.075  0.00  0.00    +0.000 C 
ENDBRANCH   1  12
BRANCH  10  18
ATOM     18  C   UNL     1      35.071 -21.584 -17.832  0.00  0.00    +0.038 C 
ATOM     19  C   UNL     1      35.519 -20.700 -18.813  0.00  0.00    +0.007 C 
ATOM     20  C   UNL     1      33.759 -22.056 -17.865  0.00  0.00    +0.003 C 
ATOM     21  C   UNL     1      34.655 -20.288 -19.827  0.00  0.00    +0.072 C 
ATOM     22  C   UNL     1      32.894 -21.644 -18.879  0.00  0.00    +0.000 C 
ATOM     23  C   UNL     1      33.343 -20.759 -19.860  0.00  0.00    +0.004 C 
BRANCH  21  27
ATOM     24  F   UNL     1      36.490 -19.193 -20.902  0.00  0.00    -0.166 F 
ATOM     25  F   UNL     1      34.794 -19.719 -22.146  0.00  0.00    -0.166 F 
ATOM     26  F   UNL     1      34.628 -18.085 -20.722  0.00  0.00    -0.166 F 
ATOM     27  C   UNL     1      35.133 -19.343 -20.878  0.00  0.00    +0.419 C 
ENDBRANCH  21  27
ENDBRANCH  10  18
TORSDOF 3
ENDMDL
MODEL 7
REMARK VINA RESULT:     -10.3      2.312      5.148
REMARK  Name = 10361208
REMARK  3 active torsions:
REMARK  status: ('A' for Active; 'I' for Inactive)
REMARK    1  A    between atoms: N_1  and  C_12
REMARK    2  A    between atoms: C_10  and  C_18
REMARK    3  A    between atoms: C_21  and  C_27
REMARK                            x       y       z     vdW  Elec       q    Type
REMARK                         _______ _______ _______ _____ _____    ______ ____
ROOT
ATOM      1  N   UNL     1      31.849 -24.193 -13.863  0.00  0.00    -0.318 N 
ATOM      2  N   UNL     1      33.825 -23.229 -14.529  0.00  0.00    -0.147 NA
ATOM      3  N   UNL     1      35.091 -22.913 -14.158  0.00  0.00    -0.190 N 
ATOM      4  N   UNL     1      36.931 -22.696 -12.980  0.00  0.00    -0.127 NA
ATOM      5  N   UNL     1      37.144 -22.147 -14.228  0.00  0.00    -0.127 NA
ATOM      6  C   UNL     1      33.117 -23.835 -13.604  0.00  0.00    +0.149 C 
ATOM      7  C   UNL     1      33.673 -24.153 -12.241  0.00  0.00    +0.039 C 
ATOM      8  C   UNL     1      35.697 -23.154 -12.949  0.00  0.00    +0.187 A 
ATOM      9  C   UNL     1      34.933 -23.803 -11.961  0.00  0.00    +0.044 C 
ATOM     10  C   UNL     1      36.034 -22.284 -14.918  0.00  0.00    +0.187 A 
ATOM     11  H   UNL     1      31.330 -24.633 -13.150  0.00  0.00    +0.148 HD
ENDROOT
BRANCH   1  12
ATOM     12  C   UNL     1      31.211 -23.961 -15.145  0.00  0.00    +0.070 C 
ATOM     13  C   UNL     1      30.075 -24.966 -15.357  0.00  0.00    +0.020 C 
ATOM     14  C   UNL     1      30.707 -22.516 -15.226  0.00  0.00    +0.020 C 
ATOM     15  C   UNL     1      28.872 -24.699 -14.451  0.00  0.00    +0.002 C 
ATOM     16  C   UNL     1      29.502 -22.258 -14.322  0.00  0.00    +0.002 C 
ATOM     17  C   UNL     1      28.381 -23.260 -14.577  0.00  0.00    +0.000 C 
ENDBRANCH   1  12
BRANCH  10  18
ATOM     18  C   UNL     1      35.816 -21.848 -16.277  0.00  0.00    +0.038 C 
ATOM     19  C   UNL     1      34.649 -22.211 -16.948  0.00  0.00    +0.007 C 
ATOM     20  C   UNL     1      36.775 -21.065 -16.917  0.00  0.00    +0.003 C 
ATOM     21  C   UNL     1      34.440 -21.790 -18.260  0.00  0.00    +0.072 C 
ATOM     22  C   UNL     1      36.568 -20.644 -18.231  0.00  0.00    +0.000 C 
ATOM     23  C   UNL     1      35.399 -21.007 -18.903  0.00  0.00    +0.004 C 
BRANCH  21  27
ATOM     24  F   UNL     1      32.815 -21.282 -19.940  0.00  0.00    -0.166 F 
ATOM     25  F   UNL     1      33.281 -23.376 -19.624  0.00  0.00    -0.166 F 
ATOM     26  F   UNL     1      32.118 -22.288 -18.143  0.00  0.00    -0.166 F 
ATOM     27  C   UNL     1      33.192 -22.176 -18.979  0.00  0.00    +0.419 C 
ENDBRANCH  21  27
ENDBRANCH  10  18
TORSDOF 3
ENDMDL
MODEL 8
REMARK VINA RESULT:     -10.1      4.180      6.983
REMARK  Name = 10361208
REMARK  3 active torsions:
REMARK  status: ('A' for Active; 'I' for Inactive)
REMARK    1  A    between atoms: N_1  and  C_12
REMARK    2  A    between atoms: C_10  and  C_18
REMARK    3  A    between atoms: C_21  and  C_27
REMARK                            x       y       z     vdW  Elec       q    Type
REMARK                         _______ _______ _______ _____ _____    ______ ____
ROOT
ATOM      1  N   UNL     1      31.211 -22.756 -16.749  0.00  0.00    -0.318 N 
ATOM      2  N   UNL     1      33.488 -22.519 -16.554  0.00  0.00    -0.147 NA
ATOM      3  N   UNL     1      34.613 -22.042 -17.143  0.00  0.00    -0.190 N 
ATOM      4  N   UNL     1      35.980 -21.089 -18.573  0.00  0.00    -0.127 NA
ATOM      5  N   UNL     1      36.718 -21.541 -17.498  0.00  0.00    -0.127 NA
ATOM      6  C   UNL     1      32.385 -22.324 -17.238  0.00  0.00    +0.149 C 
ATOM      7  C   UNL     1      32.375 -21.626 -18.572  0.00  0.00    +0.039 C 
ATOM      8  C   UNL     1      34.719 -21.394 -18.350  0.00  0.00    +0.187 A 
ATOM      9  C   UNL     1      33.533 -21.189 -19.079  0.00  0.00    +0.044 C 
ATOM     10  C   UNL     1      35.885 -22.109 -16.654  0.00  0.00    +0.187 A 
ATOM     11  H   UNL     1      30.397 -22.615 -17.285  0.00  0.00    +0.148 HD
ENDROOT
BRANCH   1  12
ATOM     12  C   UNL     1      31.091 -23.422 -15.466  0.00  0.00    +0.070 C 
ATOM     13  C   UNL     1      30.617 -22.428 -14.400  0.00  0.00    +0.020 C 
ATOM     14  C   UNL     1      30.141 -24.619 -15.582  0.00  0.00    +0.020 C 
ATOM     15  C   UNL     1      29.155 -22.019 -14.582  0.00  0.00    +0.002 C 
ATOM     16  C   UNL     1      28.681 -24.200 -15.759  0.00  0.00    +0.002 C 
ATOM     17  C   UNL     1      28.236 -23.232 -14.668  0.00  0.00    +0.000 C 
ENDBRANCH   1  12
BRANCH  10  18
ATOM     18  C   UNL     1      36.234 -22.716 -15.392  0.00  0.00    +0.038 C 
ATOM     19  C   UNL     1      35.284 -22.807 -14.375  0.00  0.00    +0.007 C 
ATOM     20  C   UNL     1      37.521 -23.211 -15.191  0.00  0.00    +0.003 C 
ATOM     21  C   UNL     1      35.622 -23.393 -13.156  0.00  0.00    +0.072 C 
ATOM     22  C   UNL     1      37.861 -23.798 -13.971  0.00  0.00    +0.000 C 
ATOM     23  C   UNL     1      36.910 -23.889 -12.953  0.00  0.00    +0.004 C 
BRANCH  21  27
ATOM     24  F   UNL     1      33.336 -23.205 -12.476  0.00  0.00    -0.166 F 
ATOM     25  F   UNL     1      34.528 -24.735 -11.506  0.00  0.00    -0.166 F 
ATOM     26  F   UNL     1      34.862 -22.639 -11.033  0.00  0.00    -0.166 F 
ATOM     27  C   UNL     1      34.607 -23.493 -12.067  0.00  0.00    +0.419 C 
ENDBRANCH  21  27
ENDBRANCH  10  18
TORSDOF 3
ENDMDL
MODEL 9
REMARK VINA RESULT:      -9.5     11.028     15.397
REMARK  Name = 10361208
REMARK  3 active torsions:
REMARK  status: ('A' for Active; 'I' for Inactive)
REMARK    1  A    between atoms: N_1  and  C_12
REMARK    2  A    between atoms: C_10  and  C_18
REMARK    3  A    between atoms: C_21  and  C_27
REMARK                            x       y       z     vdW  Elec       q    Type
REMARK                         _______ _______ _______ _____ _____    ______ ____
ROOT
ATOM      1  N   UNL     1      32.185  -6.376 -22.943  0.00  0.00    -0.318 N 
ATOM      2  N   UNL     1      32.106  -8.533 -22.155  0.00  0.00    -0.147 NA
ATOM      3  N   UNL     1      31.825  -9.318 -21.085  0.00  0.00    -0.190 N 
ATOM      4  N   UNL     1      31.234  -9.981 -19.077  0.00  0.00    -0.127 NA
ATOM      5  N   UNL     1      31.563 -11.093 -19.825  0.00  0.00    -0.127 NA
ATOM      6  C   UNL     1      31.936  -7.247 -21.951  0.00  0.00    +0.149 C 
ATOM      7  C   UNL     1      31.466  -6.693 -20.632  0.00  0.00    +0.039 C 
ATOM      8  C   UNL     1      31.393  -8.922 -19.842  0.00  0.00    +0.187 A 
ATOM      9  C   UNL     1      31.214  -7.543 -19.630  0.00  0.00    +0.044 C 
ATOM     10  C   UNL     1      31.915 -10.678 -21.022  0.00  0.00    +0.187 A 
ATOM     11  H   UNL     1      32.067  -5.414 -22.765  0.00  0.00    +0.148 HD
ENDROOT
BRANCH   1  12
ATOM     12  C   UNL     1      32.621  -6.790 -24.263  0.00  0.00    +0.070 C 
ATOM     13  C   UNL     1      31.633  -6.292 -25.323  0.00  0.00    +0.020 C 
ATOM     14  C   UNL     1      34.040  -6.281 -24.532  0.00  0.00    +0.020 C 
ATOM     15  C   UNL     1      31.699  -4.777 -25.526  0.00  0.00    +0.002 C 
ATOM     16  C   UNL     1      34.096  -4.767 -24.738  0.00  0.00    +0.002 C 
ATOM     17  C   UNL     1      33.120  -4.309 -25.817  0.00  0.00    +0.000 C 
ENDBRANCH   1  12
BRANCH  10  18
ATOM     18  C   UNL     1      32.336 -11.511 -22.123  0.00  0.00    +0.038 C 
ATOM     19  C   UNL     1      32.917 -12.754 -21.875  0.00  0.00    +0.007 C 
ATOM     20  C   UNL     1      32.160 -11.072 -23.434  0.00  0.00    +0.003 C 
ATOM     21  C   UNL     1      33.324 -13.558 -22.939  0.00  0.00    +0.072 C 
ATOM     22  C   UNL     1      32.567 -11.875 -24.500  0.00  0.00    +0.000 C 
ATOM     23  C   UNL     1      33.149 -13.119 -24.252  0.00  0.00    +0.004 C 
BRANCH  21  27
ATOM     24  F   UNL     1      33.206 -15.939 -23.142  0.00  0.00    -0.166 F 
ATOM     25  F   UNL     1      35.177 -15.039 -23.245  0.00  0.00    -0.166 F 
ATOM     26  F   UNL     1      34.124 -15.129 -21.344  0.00  0.00    -0.166 F 
ATOM     27  C   UNL     1      33.945 -14.889 -22.676  0.00  0.00    +0.419 C 
ENDBRANCH  21  27
ENDBRANCH  10  18
TORSDOF 3
ENDMDL
