MODEL 1
REMARK VINA RESULT:     -13.1      0.000      0.000
REMARK  Name = 66571548
REMARK  8 active torsions:
REMARK  status: ('A' for Active; 'I' for Inactive)
REMARK    1  A    between atoms: C_2  and  C_10
REMARK    2  A    between atoms: C_2  and  C_22
REMARK    3  A    between atoms: N_3  and  C_15
REMARK    4  A    between atoms: C_15  and  C_18
REMARK    5  A    between atoms: C_18  and  O_19
REMARK    6  A    between atoms: C_25  and  N_28
REMARK    7  A    between atoms: C_29  and  C_31
REMARK    8  A    between atoms: C_31  and  C_34
REMARK                            x       y       z     vdW  Elec       q    Type
REMARK                         _______ _______ _______ _____ _____    ______ ____
ROOT
ATOM      1  O   UNL     1      37.172 -20.605 -16.871  0.00  0.00    -0.286 OA
ATOM      2  C   UNL     1      36.232 -21.429 -16.889  0.00  0.00    +0.199 C 
ENDROOT
BRANCH   2  10
ATOM      3  N   UNL     1      36.613 -23.957 -14.343  0.00  0.00    -0.261 N 
ATOM      4  N   UNL     1      34.436 -24.437 -13.424  0.00  0.00    -0.322 NA
ATOM      5  N   UNL     1      32.662 -23.122 -14.448  0.00  0.00    -0.170 NA
ATOM      6  N   UNL     1      32.208 -24.671 -12.753  0.00  0.00    -0.293 N 
ATOM      7  C   UNL     1      35.257 -23.782 -14.263  0.00  0.00    +0.201 C 
ATOM      8  C   UNL     1      37.126 -23.124 -15.303  0.00  0.00    +0.071 C 
ATOM      9  C   UNL     1      34.895 -22.817 -15.194  0.00  0.00    +0.069 C 
ATOM     10  C   UNL     1      36.083 -22.405 -15.849  0.00  0.00    +0.059 C 
ATOM     11  C   UNL     1      33.540 -22.496 -15.267  0.00  0.00    +0.116 C 
ATOM     12  C   UNL     1      33.159 -24.040 -13.589  0.00  0.00    +0.143 C 
ATOM     13  H   UNL     1      32.500 -25.350 -12.103  0.00  0.00    +0.155 HD
ATOM     14  H   UNL     1      31.257 -24.430 -12.820  0.00  0.00    +0.155 HD
BRANCH   3  15
ATOM     15  C   UNL     1      37.446 -24.936 -13.492  0.00  0.00    +0.091 C 
ATOM     16  C   UNL     1      37.084 -26.422 -13.725  0.00  0.00    +0.023 C 
ATOM     17  C   UNL     1      38.940 -24.774 -13.856  0.00  0.00    +0.023 C 
BRANCH  15  18
ATOM     18  C   UNL     1      37.266 -24.625 -11.984  0.00  0.00    +0.155 C 
BRANCH  18  19
ATOM     19  O   UNL     1      36.459 -25.618 -11.358  0.00  0.00    -0.380 OA
ATOM     20  H   UNL     1      36.723 -25.710 -10.430  0.00  0.00    +0.211 HD
ENDBRANCH  18  19
ENDBRANCH  15  18
ENDBRANCH   3  15
ENDBRANCH   2  10
BRANCH   2  22
ATOM     21  N   UNL     1      33.359 -22.181 -19.236  0.00  0.00    -0.241 NA
ATOM     22  C   UNL     1      35.289 -21.323 -18.057  0.00  0.00    +0.059 C 
ATOM     23  C   UNL     1      35.442 -20.328 -19.016  0.00  0.00    +0.021 C 
ATOM     24  C   UNL     1      34.242 -22.218 -18.211  0.00  0.00    +0.102 C 
ATOM     25  C   UNL     1      34.554 -20.258 -20.085  0.00  0.00    +0.070 C 
ATOM     26  C   UNL     1      33.539 -21.199 -20.148  0.00  0.00    +0.113 C 
BRANCH  25  28
ATOM     27  O   UNL     1      36.721 -18.225 -20.521  0.00  0.00    -0.274 OA
ATOM     28  N   UNL     1      34.683 -19.272 -21.061  0.00  0.00    -0.282 N 
ATOM     29  C   UNL     1      35.722 -18.339 -21.226  0.00  0.00    +0.232 C 
ATOM     30  H   UNL     1      33.953 -19.223 -21.718  0.00  0.00    +0.155 HD
BRANCH  29  31
ATOM     31  C   UNL     1      35.467 -17.440 -22.425  0.00  0.00    +0.131 C 
BRANCH  31  34
ATOM     32 CL   UNL     1      32.468 -12.521 -20.944  0.00  0.00    -0.081 Cl
ATOM     33  N   UNL     1      34.432 -15.982 -20.775  0.00  0.00    -0.247 NA
ATOM     34  C   UNL     1      34.707 -16.185 -22.083  0.00  0.00    +0.068 C 
ATOM     35  C   UNL     1      34.332 -15.320 -23.098  0.00  0.00    +0.016 C 
ATOM     36  C   UNL     1      33.632 -14.171 -22.748  0.00  0.00    +0.014 C 
ATOM     37  C   UNL     1      33.750 -14.855 -20.473  0.00  0.00    +0.110 C 
ATOM     38  C   UNL     1      33.330 -13.927 -21.413  0.00  0.00    +0.077 C 
ENDBRANCH  31  34
ENDBRANCH  29  31
ENDBRANCH  25  28
ENDBRANCH   2  22
TORSDOF 8
ENDMDL
MODEL 2
REMARK VINA RESULT:     -12.9      2.016      2.681
REMARK  Name = 66571548
REMARK  8 active torsions:
REMARK  status: ('A' for Active; 'I' for Inactive)
REMARK    1  A    between atoms: C_2  and  C_10
REMARK    2  A    between atoms: C_2  and  C_22
REMARK    3  A    between atoms: N_3  and  C_15
REMARK    4  A    between atoms: C_15  and  C_18
REMARK    5  A    between atoms: C_18  and  O_19
REMARK    6  A    between atoms: C_25  and  N_28
REMARK    7  A    between atoms: C_29  and  C_31
REMARK    8  A    between atoms: C_31  and  C_34
REMARK                            x       y       z     vdW  Elec       q    Type
REMARK                         _______ _______ _______ _____ _____    ______ ____
ROOT
ATOM      1  O   UNL     1      31.441 -21.697 -18.470  0.00  0.00    -0.286 OA
ATOM      2  C   UNL     1      32.596 -21.802 -18.004  0.00  0.00    +0.199 C 
ENDROOT
BRANCH   2  10
ATOM      3  N   UNL     1      33.919 -23.304 -15.002  0.00  0.00    -0.261 N 
ATOM      4  N   UNL     1      32.069 -24.124 -13.689  0.00  0.00    -0.322 NA
ATOM      5  N   UNL     1      29.909 -23.717 -14.736  0.00  0.00    -0.170 NA
ATOM      6  N   UNL     1      30.077 -24.800 -12.668  0.00  0.00    -0.293 N 
ATOM      7  C   UNL     1      32.585 -23.516 -14.772  0.00  0.00    +0.201 C 
ATOM      8  C   UNL     1      34.080 -22.657 -16.199  0.00  0.00    +0.071 C 
ATOM      9  C   UNL     1      31.878 -22.994 -15.848  0.00  0.00    +0.069 C 
ATOM     10  C   UNL     1      32.831 -22.452 -16.747  0.00  0.00    +0.059 C 
ATOM     11  C   UNL     1      30.489 -23.115 -15.800  0.00  0.00    +0.116 C 
ATOM     12  C   UNL     1      30.724 -24.177 -13.760  0.00  0.00    +0.143 C 
ATOM     13  H   UNL     1      30.610 -25.159 -11.921  0.00  0.00    +0.155 HD
ATOM     14  H   UNL     1      29.096 -24.874 -12.653  0.00  0.00    +0.155 HD
BRANCH   3  15
ATOM     15  C   UNL     1      35.070 -23.724 -14.067  0.00  0.00    +0.091 C 
ATOM     16  C   UNL     1      35.422 -25.229 -14.155  0.00  0.00    +0.023 C 
ATOM     17  C   UNL     1      36.345 -22.940 -14.456  0.00  0.00    +0.023 C 
BRANCH  15  18
ATOM     18  C   UNL     1      34.715 -23.396 -12.595  0.00  0.00    +0.155 C 
BRANCH  18  19
ATOM     19  O   UNL     1      34.349 -24.577 -11.890  0.00  0.00    -0.380 OA
ATOM     20  H   UNL     1      33.387 -24.693 -11.932  0.00  0.00    +0.211 HD
ENDBRANCH  18  19
ENDBRANCH  15  18
ENDBRANCH   3  15
ENDBRANCH   2  10
BRANCH   2  22
ATOM     21  N   UNL     1      36.067 -20.931 -19.235  0.00  0.00    -0.241 NA
ATOM     22  C   UNL     1      33.698 -21.208 -18.839  0.00  0.00    +0.059 C 
ATOM     23  C   UNL     1      33.413 -20.413 -19.944  0.00  0.00    +0.021 C 
ATOM     24  C   UNL     1      35.030 -21.434 -18.529  0.00  0.00    +0.102 C 
ATOM     25  C   UNL     1      34.453 -19.877 -20.695  0.00  0.00    +0.070 C 
ATOM     26  C   UNL     1      35.751 -20.164 -20.303  0.00  0.00    +0.113 C 
BRANCH  25  28
ATOM     27  O   UNL     1      36.073 -17.657 -21.905  0.00  0.00    -0.274 OA
ATOM     28  N   UNL     1      34.198 -19.077 -21.807  0.00  0.00    -0.282 N 
ATOM     29  C   UNL     1      34.991 -18.045 -22.338  0.00  0.00    +0.232 C 
ATOM     30  H   UNL     1      33.355 -19.258 -22.280  0.00  0.00    +0.155 HD
BRANCH  29  31
ATOM     31  C   UNL     1      34.339 -17.427 -23.564  0.00  0.00    +0.131 C 
BRANCH  31  34
ATOM     32 CL   UNL     1      32.929 -11.675 -23.000  0.00  0.00    -0.081 Cl
ATOM     33  N   UNL     1      33.448 -15.346 -24.457  0.00  0.00    -0.247 NA
ATOM     34  C   UNL     1      33.993 -15.971 -23.390  0.00  0.00    +0.068 C 
ATOM     35  C   UNL     1      34.243 -15.354 -22.174  0.00  0.00    +0.016 C 
ATOM     36  C   UNL     1      33.912 -14.010 -22.046  0.00  0.00    +0.014 C 
ATOM     37  C   UNL     1      33.139 -14.040 -24.295  0.00  0.00    +0.110 C 
ATOM     38  C   UNL     1      33.350 -13.333 -23.122  0.00  0.00    +0.077 C 
ENDBRANCH  31  34
ENDBRANCH  29  31
ENDBRANCH  25  28
ENDBRANCH   2  22
TORSDOF 8
ENDMDL
MODEL 3
REMARK VINA RESULT:     -12.7      2.401      3.981
REMARK  Name = 66571548
REMARK  8 active torsions:
REMARK  status: ('A' for Active; 'I' for Inactive)
REMARK    1  A    between atoms: C_2  and  C_10
REMARK    2  A    between atoms: C_2  and  C_22
REMARK    3  A    between atoms: N_3  and  C_15
REMARK    4  A    between atoms: C_15  and  C_18
REMARK    5  A    between atoms: C_18  and  O_19
REMARK    6  A    between atoms: C_25  and  N_28
REMARK    7  A    between atoms: C_29  and  C_31
REMARK    8  A    between atoms: C_31  and  C_34
REMARK                            x       y       z     vdW  Elec       q    Type
REMARK                         _______ _______ _______ _____ _____    ______ ____
ROOT
ATOM      1  O   UNL     1      33.378 -23.708 -19.408  0.00  0.00    -0.286 OA
ATOM      2  C   UNL     1      33.602 -22.796 -18.583  0.00  0.00    +0.199 C 
ENDROOT
BRANCH   2  10
ATOM      3  N   UNL     1      31.760 -23.055 -15.491  0.00  0.00    -0.261 N 
ATOM      4  N   UNL     1      33.342 -23.116 -13.672  0.00  0.00    -0.322 NA
ATOM      5  N   UNL     1      35.655 -22.986 -14.421  0.00  0.00    -0.170 NA
ATOM      6  N   UNL     1      35.117 -23.150 -12.149  0.00  0.00    -0.293 N 
ATOM      7  C   UNL     1      33.030 -23.044 -14.977  0.00  0.00    +0.201 C 
ATOM      8  C   UNL     1      31.817 -22.968 -16.857  0.00  0.00    +0.071 C 
ATOM      9  C   UNL     1      33.919 -22.945 -16.040  0.00  0.00    +0.069 C 
ATOM     10  C   UNL     1      33.145 -22.898 -17.227  0.00  0.00    +0.059 C 
ATOM     11  C   UNL     1      35.276 -22.917 -15.719  0.00  0.00    +0.116 C 
ATOM     12  C   UNL     1      34.678 -23.081 -13.492  0.00  0.00    +0.143 C 
ATOM     13  H   UNL     1      34.459 -23.220 -11.420  0.00  0.00    +0.155 HD
ATOM     14  H   UNL     1      36.079 -23.129 -11.944  0.00  0.00    +0.155 HD
BRANCH   3  15
ATOM     15  C   UNL     1      30.459 -23.150 -14.670  0.00  0.00    +0.091 C 
ATOM     16  C   UNL     1      30.373 -22.115 -13.522  0.00  0.00    +0.023 C 
ATOM     17  C   UNL     1      29.254 -22.888 -15.603  0.00  0.00    +0.023 C 
BRANCH  15  18
ATOM     18  C   UNL     1      30.312 -24.566 -14.057  0.00  0.00    +0.155 C 
BRANCH  18  19
ATOM     19  O   UNL     1      30.786 -24.585 -12.714  0.00  0.00    -0.380 OA
ATOM     20  H   UNL     1      30.820 -23.678 -12.371  0.00  0.00    +0.211 HD
ENDBRANCH  18  19
ENDBRANCH  15  18
ENDBRANCH   3  15
ENDBRANCH   2  10
BRANCH   2  22
ATOM     21  N   UNL     1      36.286 -20.151 -18.922  0.00  0.00    -0.241 NA
ATOM     22  C   UNL     1      34.368 -21.611 -19.104  0.00  0.00    +0.059 C 
ATOM     23  C   UNL     1      33.911 -20.886 -20.200  0.00  0.00    +0.021 C 
ATOM     24  C   UNL     1      35.550 -21.206 -18.505  0.00  0.00    +0.102 C 
ATOM     25  C   UNL     1      34.641 -19.794 -20.657  0.00  0.00    +0.070 C 
ATOM     26  C   UNL     1      35.811 -19.471 -19.990  0.00  0.00    +0.113 C 
BRANCH  25  28
ATOM     27  O   UNL     1      36.131 -17.860 -22.404  0.00  0.00    -0.274 OA
ATOM     28  N   UNL     1      34.208 -19.049 -21.751  0.00  0.00    -0.282 N 
ATOM     29  C   UNL     1      34.947 -18.152 -22.543  0.00  0.00    +0.232 C 
ATOM     30  H   UNL     1      33.264 -19.165 -22.002  0.00  0.00    +0.155 HD
BRANCH  29  31
ATOM     31  C   UNL     1      34.085 -17.550 -23.641  0.00  0.00    +0.131 C 
BRANCH  31  34
ATOM     32 CL   UNL     1      33.205 -11.685 -23.177  0.00  0.00    -0.081 Cl
ATOM     33  N   UNL     1      33.358 -15.417 -24.560  0.00  0.00    -0.247 NA
ATOM     34  C   UNL     1      33.874 -16.066 -23.492  0.00  0.00    +0.068 C 
ATOM     35  C   UNL     1      34.211 -15.448 -22.298  0.00  0.00    +0.016 C 
ATOM     36  C   UNL     1      34.004 -14.078 -22.193  0.00  0.00    +0.014 C 
ATOM     37  C   UNL     1      33.170 -14.086 -24.421  0.00  0.00    +0.110 C 
ATOM     38  C   UNL     1      33.475 -13.376 -23.270  0.00  0.00    +0.077 C 
ENDBRANCH  31  34
ENDBRANCH  29  31
ENDBRANCH  25  28
ENDBRANCH   2  22
TORSDOF 8
ENDMDL
MODEL 4
REMARK VINA RESULT:     -12.1      3.475     10.818
REMARK  Name = 66571548
REMARK  8 active torsions:
REMARK  status: ('A' for Active; 'I' for Inactive)
REMARK    1  A    between atoms: C_2  and  C_10
REMARK    2  A    between atoms: C_2  and  C_22
REMARK    3  A    between atoms: N_3  and  C_15
REMARK    4  A    between atoms: C_15  and  C_18
REMARK    5  A    between atoms: C_18  and  O_19
REMARK    6  A    between atoms: C_25  and  N_28
REMARK    7  A    between atoms: C_29  and  C_31
REMARK    8  A    between atoms: C_31  and  C_34
REMARK                            x       y       z     vdW  Elec       q    Type
REMARK                         _______ _______ _______ _____ _____    ______ ____
ROOT
ATOM      1  O   UNL     1      36.463 -18.098 -22.224  0.00  0.00    -0.286 OA
ATOM      2  C   UNL     1      35.327 -17.886 -21.747  0.00  0.00    +0.199 C 
ENDROOT
BRANCH   2  10
ATOM      3  N   UNL     1      33.669 -14.685 -21.565  0.00  0.00    -0.261 N 
ATOM      4  N   UNL     1      33.070 -14.017 -23.803  0.00  0.00    -0.322 NA
ATOM      5  N   UNL     1      33.732 -15.644 -25.489  0.00  0.00    -0.170 NA
ATOM      6  N   UNL     1      32.630 -13.663 -26.072  0.00  0.00    -0.293 N 
ATOM      7  C   UNL     1      33.615 -14.872 -22.921  0.00  0.00    +0.201 C 
ATOM      8  C   UNL     1      34.297 -15.755 -20.980  0.00  0.00    +0.071 C 
ATOM      9  C   UNL     1      34.221 -16.089 -23.209  0.00  0.00    +0.069 C 
ATOM     10  C   UNL     1      34.649 -16.642 -21.976  0.00  0.00    +0.059 C 
ATOM     11  C   UNL     1      34.265 -16.462 -24.552  0.00  0.00    +0.116 C 
ATOM     12  C   UNL     1      33.176 -14.488 -25.062  0.00  0.00    +0.143 C 
ATOM     13  H   UNL     1      32.209 -12.806 -25.833  0.00  0.00    +0.155 HD
ATOM     14  H   UNL     1      32.672 -13.945 -27.014  0.00  0.00    +0.155 HD
BRANCH   3  15
ATOM     15  C   UNL     1      33.113 -13.467 -20.802  0.00  0.00    +0.091 C 
ATOM     16  C   UNL     1      31.999 -13.826 -19.790  0.00  0.00    +0.023 C 
ATOM     17  C   UNL     1      34.259 -12.812 -19.996  0.00  0.00    +0.023 C 
BRANCH  15  18
ATOM     18  C   UNL     1      32.546 -12.423 -21.797  0.00  0.00    +0.155 C 
BRANCH  18  19
ATOM     19  O   UNL     1      31.123 -12.410 -21.755  0.00  0.00    -0.380 OA
ATOM     20  H   UNL     1      30.820 -11.598 -21.318  0.00  0.00    +0.211 HD
ENDBRANCH  18  19
ENDBRANCH  15  18
ENDBRANCH   3  15
ENDBRANCH   2  10
BRANCH   2  22
ATOM     21  N   UNL     1      32.822 -20.383 -20.403  0.00  0.00    -0.241 NA
ATOM     22  C   UNL     1      34.736 -19.005 -20.934  0.00  0.00    +0.059 C 
ATOM     23  C   UNL     1      35.497 -19.685 -19.989  0.00  0.00    +0.021 C 
ATOM     24  C   UNL     1      33.415 -19.388 -21.100  0.00  0.00    +0.102 C 
ATOM     25  C   UNL     1      34.922 -20.714 -19.251  0.00  0.00    +0.070 C 
ATOM     26  C   UNL     1      33.593 -21.022 -19.494  0.00  0.00    +0.113 C 
BRANCH  25  28
ATOM     27  O   UNL     1      36.947 -19.737 -17.261  0.00  0.00    -0.274 OA
ATOM     28  N   UNL     1      35.659 -21.413 -18.298  0.00  0.00    -0.282 N 
ATOM     29  C   UNL     1      36.600 -20.909 -17.383  0.00  0.00    +0.232 C 
ATOM     30  H   UNL     1      35.501 -22.383 -18.261  0.00  0.00    +0.155 HD
BRANCH  29  31
ATOM     31  C   UNL     1      37.174 -22.020 -16.518  0.00  0.00    +0.131 C 
BRANCH  31  34
ATOM     32 CL   UNL     1      33.233 -24.159 -12.609  0.00  0.00    -0.081 Cl
ATOM     33  N   UNL     1      35.019 -23.013 -15.980  0.00  0.00    -0.247 NA
ATOM     34  C   UNL     1      36.198 -22.555 -15.503  0.00  0.00    +0.068 C 
ATOM     35  C   UNL     1      36.544 -22.552 -14.161  0.00  0.00    +0.016 C 
ATOM     36  C   UNL     1      35.620 -23.053 -13.250  0.00  0.00    +0.014 C 
ATOM     37  C   UNL     1      34.147 -23.492 -15.065  0.00  0.00    +0.110 C 
ATOM     38  C   UNL     1      34.396 -23.533 -13.703  0.00  0.00    +0.077 C 
ENDBRANCH  31  34
ENDBRANCH  29  31
ENDBRANCH  25  28
ENDBRANCH   2  22
TORSDOF 8
ENDMDL
MODEL 5
REMARK VINA RESULT:     -11.5      2.069      2.611
REMARK  Name = 66571548
REMARK  8 active torsions:
REMARK  status: ('A' for Active; 'I' for Inactive)
REMARK    1  A    between atoms: C_2  and  C_10
REMARK    2  A    between atoms: C_2  and  C_22
REMARK    3  A    between atoms: N_3  and  C_15
REMARK    4  A    between atoms: C_15  and  C_18
REMARK    5  A    between atoms: C_18  and  O_19
REMARK    6  A    between atoms: C_25  and  N_28
REMARK    7  A    between atoms: C_29  and  C_31
REMARK    8  A    between atoms: C_31  and  C_34
REMARK                            x       y       z     vdW  Elec       q    Type
REMARK                         _______ _______ _______ _____ _____    ______ ____
ROOT
ATOM      1  O   UNL     1      32.488 -22.571 -15.208  0.00  0.00    -0.286 OA
ATOM      2  C   UNL     1      33.597 -22.913 -15.673  0.00  0.00    +0.199 C 
ENDROOT
BRANCH   2  10
ATOM      3  N   UNL     1      36.541 -24.375 -14.184  0.00  0.00    -0.261 N 
ATOM      4  N   UNL     1      36.324 -24.233 -11.786  0.00  0.00    -0.322 NA
ATOM      5  N   UNL     1      34.245 -23.179 -11.082  0.00  0.00    -0.170 NA
ATOM      6  N   UNL     1      35.813 -23.946  -9.523  0.00  0.00    -0.293 N 
ATOM      7  C   UNL     1      35.877 -24.026 -13.037  0.00  0.00    +0.201 C 
ATOM      8  C   UNL     1      35.793 -24.012 -15.274  0.00  0.00    +0.071 C 
ATOM      9  C   UNL     1      34.678 -23.428 -13.403  0.00  0.00    +0.069 C 
ATOM     10  C   UNL     1      34.632 -23.423 -14.820  0.00  0.00    +0.059 C 
ATOM     11  C   UNL     1      33.851 -23.000 -12.365  0.00  0.00    +0.116 C 
ATOM     12  C   UNL     1      35.441 -23.776 -10.876  0.00  0.00    +0.143 C 
ATOM     13  H   UNL     1      36.671 -24.373  -9.299  0.00  0.00    +0.155 HD
ATOM     14  H   UNL     1      35.216 -23.636  -8.805  0.00  0.00    +0.155 HD
BRANCH   3  15
ATOM     15  C   UNL     1      37.915 -25.069 -14.252  0.00  0.00    +0.091 C 
ATOM     16  C   UNL     1      38.691 -25.041 -12.913  0.00  0.00    +0.023 C 
ATOM     17  C   UNL     1      37.710 -26.557 -14.621  0.00  0.00    +0.023 C 
BRANCH  15  18
ATOM     18  C   UNL     1      38.799 -24.406 -15.338  0.00  0.00    +0.155 C 
BRANCH  18  19
ATOM     19  O   UNL     1      39.817 -25.301 -15.774  0.00  0.00    -0.380 OA
ATOM     20  H   UNL     1      40.074 -25.080 -16.683  0.00  0.00    +0.211 HD
ENDBRANCH  18  19
ENDBRANCH  15  18
ENDBRANCH   3  15
ENDBRANCH   2  10
BRANCH   2  22
ATOM     21  N   UNL     1      33.407 -23.641 -19.382  0.00  0.00    -0.241 NA
ATOM     22  C   UNL     1      33.763 -22.756 -17.160  0.00  0.00    +0.059 C 
ATOM     23  C   UNL     1      34.397 -21.641 -17.698  0.00  0.00    +0.021 C 
ATOM     24  C   UNL     1      33.290 -23.719 -18.037  0.00  0.00    +0.102 C 
ATOM     25  C   UNL     1      34.537 -21.525 -19.077  0.00  0.00    +0.070 C 
ATOM     26  C   UNL     1      34.029 -22.543 -19.868  0.00  0.00    +0.113 C 
BRANCH  25  28
ATOM     27  O   UNL     1      33.556 -19.567 -21.131  0.00  0.00    -0.274 OA
ATOM     28  N   UNL     1      35.168 -20.421 -19.644  0.00  0.00    -0.282 N 
ATOM     29  C   UNL     1      34.665 -19.528 -20.607  0.00  0.00    +0.232 C 
ATOM     30  H   UNL     1      36.084 -20.243 -19.330  0.00  0.00    +0.155 HD
BRANCH  29  31
ATOM     31  C   UNL     1      35.689 -18.458 -20.951  0.00  0.00    +0.131 C 
BRANCH  31  34
ATOM     32 CL   UNL     1      33.243 -13.419 -22.956  0.00  0.00    -0.081 Cl
ATOM     33  N   UNL     1      34.642 -16.293 -20.579  0.00  0.00    -0.247 NA
ATOM     34  C   UNL     1      35.075 -17.193 -21.491  0.00  0.00    +0.068 C 
ATOM     35  C   UNL     1      34.982 -17.013 -22.862  0.00  0.00    +0.016 C 
ATOM     36  C   UNL     1      34.410 -15.834 -23.326  0.00  0.00    +0.014 C 
ATOM     37  C   UNL     1      34.092 -15.159 -21.067  0.00  0.00    +0.110 C 
ATOM     38  C   UNL     1      33.953 -14.884 -22.419  0.00  0.00    +0.077 C 
ENDBRANCH  31  34
ENDBRANCH  29  31
ENDBRANCH  25  28
ENDBRANCH   2  22
TORSDOF 8
ENDMDL
MODEL 6
REMARK VINA RESULT:     -11.2      5.692     13.500
REMARK  Name = 66571548
REMARK  8 active torsions:
REMARK  status: ('A' for Active; 'I' for Inactive)
REMARK    1  A    between atoms: C_2  and  C_10
REMARK    2  A    between atoms: C_2  and  C_22
REMARK    3  A    between atoms: N_3  and  C_15
REMARK    4  A    between atoms: C_15  and  C_18
REMARK    5  A    between atoms: C_18  and  O_19
REMARK    6  A    between atoms: C_25  and  N_28
REMARK    7  A    between atoms: C_29  and  C_31
REMARK    8  A    between atoms: C_31  and  C_34
REMARK                            x       y       z     vdW  Elec       q    Type
REMARK                         _______ _______ _______ _____ _____    ______ ____
ROOT
ATOM      1  O   UNL     1      31.169 -12.551 -21.168  0.00  0.00    -0.286 OA
ATOM      2  C   UNL     1      31.933 -12.038 -22.014  0.00  0.00    +0.199 C 
ENDROOT
BRANCH   2  10
ATOM      3  N   UNL     1      32.892  -8.631 -22.714  0.00  0.00    -0.261 N 
ATOM      4  N   UNL     1      32.122  -7.241 -20.899  0.00  0.00    -0.322 NA
ATOM      5  N   UNL     1      30.957  -8.498 -19.170  0.00  0.00    -0.170 NA
ATOM      6  N   UNL     1      31.253  -6.182 -19.004  0.00  0.00    -0.293 N 
ATOM      7  C   UNL     1      32.263  -8.429 -21.514  0.00  0.00    +0.201 C 
ATOM      8  C   UNL     1      32.846  -9.962 -23.037  0.00  0.00    +0.071 C 
ATOM      9  C   UNL     1      31.806  -9.659 -21.059  0.00  0.00    +0.069 C 
ATOM     10  C   UNL     1      32.178 -10.625 -22.028  0.00  0.00    +0.059 C 
ATOM     11  C   UNL     1      31.132  -9.662 -19.838  0.00  0.00    +0.116 C 
ATOM     12  C   UNL     1      31.456  -7.376 -19.735  0.00  0.00    +0.143 C 
ATOM     13  H   UNL     1      31.590  -5.327 -19.357  0.00  0.00    +0.155 HD
ATOM     14  H   UNL     1      30.774  -6.206 -18.145  0.00  0.00    +0.155 HD
BRANCH   3  15
ATOM     15  C   UNL     1      33.555  -7.539 -23.577  0.00  0.00    +0.091 C 
ATOM     16  C   UNL     1      34.175  -6.387 -22.750  0.00  0.00    +0.023 C 
ATOM     17  C   UNL     1      34.702  -8.173 -24.397  0.00  0.00    +0.023 C 
BRANCH  15  18
ATOM     18  C   UNL     1      32.522  -6.929 -24.558  0.00  0.00    +0.155 C 
BRANCH  18  19
ATOM     19  O   UNL     1      31.587  -6.112 -23.861  0.00  0.00    -0.380 OA
ATOM     20  H   UNL     1      31.980  -5.814 -23.025  0.00  0.00    +0.211 HD
ENDBRANCH  18  19
ENDBRANCH  15  18
ENDBRANCH   3  15
ENDBRANCH   2  10
BRANCH   2  22
ATOM     21  N   UNL     1      32.948 -13.628 -25.294  0.00  0.00    -0.241 NA
ATOM     22  C   UNL     1      32.562 -12.990 -22.994  0.00  0.00    +0.059 C 
ATOM     23  C   UNL     1      33.311 -14.079 -22.559  0.00  0.00    +0.021 C 
ATOM     24  C   UNL     1      32.411 -12.811 -24.360  0.00  0.00    +0.102 C 
ATOM     25  C   UNL     1      33.878 -14.942 -23.490  0.00  0.00    +0.070 C 
ATOM     26  C   UNL     1      33.670 -14.675 -24.834  0.00  0.00    +0.113 C 
BRANCH  25  28
ATOM     27  O   UNL     1      34.471 -15.982 -20.736  0.00  0.00    -0.274 OA
ATOM     28  N   UNL     1      34.633 -16.040 -23.084  0.00  0.00    -0.282 N 
ATOM     29  C   UNL     1      34.882 -16.490 -21.776  0.00  0.00    +0.232 C 
ATOM     30  H   UNL     1      35.044 -16.568 -23.805  0.00  0.00    +0.155 HD
BRANCH  29  31
ATOM     31  C   UNL     1      35.759 -17.732 -21.780  0.00  0.00    +0.131 C 
BRANCH  31  34
ATOM     32 CL   UNL     1      33.655 -22.236 -18.512  0.00  0.00    -0.081 Cl
ATOM     33  N   UNL     1      36.065 -19.535 -20.174  0.00  0.00    -0.247 NA
ATOM     34  C   UNL     1      35.196 -18.867 -20.965  0.00  0.00    +0.068 C 
ATOM     35  C   UNL     1      33.847 -19.168 -21.062  0.00  0.00    +0.016 C 
ATOM     36  C   UNL     1      33.358 -20.221 -20.296  0.00  0.00    +0.014 C 
ATOM     37  C   UNL     1      35.555 -20.552 -19.445  0.00  0.00    +0.110 C 
ATOM     38  C   UNL     1      34.222 -20.932 -19.470  0.00  0.00    +0.077 C 
ENDBRANCH  31  34
ENDBRANCH  29  31
ENDBRANCH  25  28
ENDBRANCH   2  22
TORSDOF 8
ENDMDL
MODEL 7
REMARK VINA RESULT:     -11.2      3.907     11.150
REMARK  Name = 66571548
REMARK  8 active torsions:
REMARK  status: ('A' for Active; 'I' for Inactive)
REMARK    1  A    between atoms: C_2  and  C_10
REMARK    2  A    between atoms: C_2  and  C_22
REMARK    3  A    between atoms: N_3  and  C_15
REMARK    4  A    between atoms: C_15  and  C_18
REMARK    5  A    between atoms: C_18  and  O_19
REMARK    6  A    between atoms: C_25  and  N_28
REMARK    7  A    between atoms: C_29  and  C_31
REMARK    8  A    between atoms: C_31  and  C_34
REMARK                            x       y       z     vdW  Elec       q    Type
REMARK                         _______ _______ _______ _____ _____    ______ ____
ROOT
ATOM      1  O   UNL     1      34.244 -18.376 -24.019  0.00  0.00    -0.286 OA
ATOM      2  C   UNL     1      34.361 -17.703 -22.972  0.00  0.00    +0.199 C 
ENDROOT
BRANCH   2  10
ATOM      3  N   UNL     1      33.300 -14.374 -22.069  0.00  0.00    -0.261 N 
ATOM      4  N   UNL     1      32.772 -13.175 -24.094  0.00  0.00    -0.322 NA
ATOM      5  N   UNL     1      33.093 -14.514 -26.102  0.00  0.00    -0.170 NA
ATOM      6  N   UNL     1      32.344 -12.300 -26.219  0.00  0.00    -0.293 N 
ATOM      7  C   UNL     1      33.180 -14.271 -23.430  0.00  0.00    +0.201 C 
ATOM      8  C   UNL     1      33.744 -15.630 -21.743  0.00  0.00    +0.071 C 
ATOM      9  C   UNL     1      33.553 -15.488 -23.986  0.00  0.00    +0.069 C 
ATOM     10  C   UNL     1      33.909 -16.343 -22.912  0.00  0.00    +0.059 C 
ATOM     11  C   UNL     1      33.497 -15.583 -25.376  0.00  0.00    +0.116 C 
ATOM     12  C   UNL     1      32.761 -13.392 -25.424  0.00  0.00    +0.143 C 
ATOM     13  H   UNL     1      32.087 -11.451 -25.792  0.00  0.00    +0.155 HD
ATOM     14  H   UNL     1      32.312 -12.388 -27.199  0.00  0.00    +0.155 HD
BRANCH   3  15
ATOM     15  C   UNL     1      32.988 -13.260 -21.051  0.00  0.00    +0.091 C 
ATOM     16  C   UNL     1      32.009 -13.698 -19.934  0.00  0.00    +0.023 C 
ATOM     17  C   UNL     1      34.301 -12.831 -20.356  0.00  0.00    +0.023 C 
BRANCH  15  18
ATOM     18  C   UNL     1      32.381 -12.029 -21.771  0.00  0.00    +0.155 C 
BRANCH  18  19
ATOM     19  O   UNL     1      30.960 -12.110 -21.796  0.00  0.00    -0.380 OA
ATOM     20  H   UNL     1      30.676 -12.928 -21.358  0.00  0.00    +0.211 HD
ENDBRANCH  18  19
ENDBRANCH  15  18
ENDBRANCH   3  15
ENDBRANCH   2  10
BRANCH   2  22
ATOM     21  N   UNL     1      36.856 -18.594 -20.269  0.00  0.00    -0.241 NA
ATOM     22  C   UNL     1      34.998 -18.408 -21.805  0.00  0.00    +0.059 C 
ATOM     23  C   UNL     1      34.372 -19.487 -21.190  0.00  0.00    +0.021 C 
ATOM     24  C   UNL     1      36.228 -18.005 -21.312  0.00  0.00    +0.102 C 
ATOM     25  C   UNL     1      34.986 -20.120 -20.114  0.00  0.00    +0.070 C 
ATOM     26  C   UNL     1      36.216 -19.639 -19.696  0.00  0.00    +0.113 C 
BRANCH  25  28
ATOM     27  O   UNL     1      32.180 -20.464 -19.103  0.00  0.00    -0.274 OA
ATOM     28  N   UNL     1      34.384 -21.203 -19.479  0.00  0.00    -0.282 N 
ATOM     29  C   UNL     1      33.059 -21.318 -19.022  0.00  0.00    +0.232 C 
ATOM     30  H   UNL     1      34.959 -21.987 -19.331  0.00  0.00    +0.155 HD
BRANCH  29  31
ATOM     31  C   UNL     1      32.815 -22.676 -18.383  0.00  0.00    +0.131 C 
BRANCH  31  34
ATOM     32 CL   UNL     1      34.994 -23.065 -12.861  0.00  0.00    -0.081 Cl
ATOM     33  N   UNL     1      34.676 -22.708 -16.816  0.00  0.00    -0.247 NA
ATOM     34  C   UNL     1      33.335 -22.778 -16.973  0.00  0.00    +0.068 C 
ATOM     35  C   UNL     1      32.439 -22.935 -15.928  0.00  0.00    +0.016 C 
ATOM     36  C   UNL     1      32.952 -23.026 -14.638  0.00  0.00    +0.014 C 
ATOM     37  C   UNL     1      35.138 -22.799 -15.549  0.00  0.00    +0.110 C 
ATOM     38  C   UNL     1      34.326 -22.958 -14.436  0.00  0.00    +0.077 C 
ENDBRANCH  31  34
ENDBRANCH  29  31
ENDBRANCH  25  28
ENDBRANCH   2  22
TORSDOF 8
ENDMDL
MODEL 8
REMARK VINA RESULT:     -11.2      9.958     16.569
REMARK  Name = 66571548
REMARK  8 active torsions:
REMARK  status: ('A' for Active; 'I' for Inactive)
REMARK    1  A    between atoms: C_2  and  C_10
REMARK    2  A    between atoms: C_2  and  C_22
REMARK    3  A    between atoms: N_3  and  C_15
REMARK    4  A    between atoms: C_15  and  C_18
REMARK    5  A    between atoms: C_18  and  O_19
REMARK    6  A    between atoms: C_25  and  N_28
REMARK    7  A    between atoms: C_29  and  C_31
REMARK    8  A    between atoms: C_31  and  C_34
REMARK                            x       y       z     vdW  Elec       q    Type
REMARK                         _______ _______ _______ _____ _____    ______ ____
ROOT
ATOM      1  O   UNL     1      32.319  -5.987 -19.455  0.00  0.00    -0.286 OA
ATOM      2  C   UNL     1      32.129  -6.601 -20.527  0.00  0.00    +0.199 C 
ENDROOT
BRANCH   2  10
ATOM      3  N   UNL     1      32.852  -5.403 -23.853  0.00  0.00    -0.261 N 
ATOM      4  N   UNL     1      31.393  -3.541 -24.319  0.00  0.00    -0.322 NA
ATOM      5  N   UNL     1      29.899  -3.019 -22.469  0.00  0.00    -0.170 NA
ATOM      6  N   UNL     1      29.854  -1.786 -24.458  0.00  0.00    -0.293 N 
ATOM      7  C   UNL     1      31.859  -4.520 -23.524  0.00  0.00    +0.201 C 
ATOM      8  C   UNL     1      33.066  -6.262 -22.807  0.00  0.00    +0.071 C 
ATOM      9  C   UNL     1      31.429  -4.820 -22.237  0.00  0.00    +0.069 C 
ATOM     10  C   UNL     1      32.198  -5.923 -21.790  0.00  0.00    +0.059 C 
ATOM     11  C   UNL     1      30.411  -4.022 -21.717  0.00  0.00    +0.116 C 
ATOM     12  C   UNL     1      30.415  -2.844 -23.706  0.00  0.00    +0.143 C 
ATOM     13  H   UNL     1      30.182  -1.601 -25.367  0.00  0.00    +0.155 HD
ATOM     14  H   UNL     1      29.136  -1.235 -24.072  0.00  0.00    +0.155 HD
BRANCH   3  15
ATOM     15  C   UNL     1      33.620  -5.436 -25.189  0.00  0.00    +0.091 C 
ATOM     16  C   UNL     1      34.461  -4.164 -25.453  0.00  0.00    +0.023 C 
ATOM     17  C   UNL     1      34.602  -6.631 -25.176  0.00  0.00    +0.023 C 
BRANCH  15  18
ATOM     18  C   UNL     1      32.634  -5.618 -26.372  0.00  0.00    +0.155 C 
BRANCH  18  19
ATOM     19  O   UNL     1      32.369  -4.369 -27.001  0.00  0.00    -0.380 OA
ATOM     20  H   UNL     1      31.449  -4.352 -27.310  0.00  0.00    +0.211 HD
ENDBRANCH  18  19
ENDBRANCH  15  18
ENDBRANCH   3  15
ENDBRANCH   2  10
BRANCH   2  22
ATOM     21  N   UNL     1      31.122  -9.919 -19.011  0.00  0.00    -0.241 NA
ATOM     22  C   UNL     1      31.827  -8.070 -20.400  0.00  0.00    +0.059 C 
ATOM     23  C   UNL     1      31.962  -8.927 -21.486  0.00  0.00    +0.021 C 
ATOM     24  C   UNL     1      31.408  -8.610 -19.195  0.00  0.00    +0.102 C 
ATOM     25  C   UNL     1      31.678 -10.281 -21.336  0.00  0.00    +0.070 C 
ATOM     26  C   UNL     1      31.264 -10.722 -20.090  0.00  0.00    +0.113 C 
BRANCH  25  28
ATOM     27  O   UNL     1      33.771 -10.445 -23.483  0.00  0.00    -0.274 OA
ATOM     28  N   UNL     1      31.805 -11.163 -22.406  0.00  0.00    -0.282 N 
ATOM     29  C   UNL     1      32.808 -11.202 -23.390  0.00  0.00    +0.232 C 
ATOM     30  H   UNL     1      31.102 -11.848 -22.483  0.00  0.00    +0.155 HD
BRANCH  29  31
ATOM     31  C   UNL     1      32.566 -12.332 -24.379  0.00  0.00    +0.131 C 
BRANCH  31  34
ATOM     32 CL   UNL     1      35.008 -17.450 -22.583  0.00  0.00    -0.081 Cl
ATOM     33  N   UNL     1      33.626 -13.716 -22.681  0.00  0.00    -0.247 NA
ATOM     34  C   UNL     1      33.179 -13.641 -23.955  0.00  0.00    +0.068 C 
ATOM     35  C   UNL     1      33.255 -14.682 -24.866  0.00  0.00    +0.016 C 
ATOM     36  C   UNL     1      33.826 -15.877 -24.443  0.00  0.00    +0.014 C 
ATOM     37  C   UNL     1      34.174 -14.892 -22.305  0.00  0.00    +0.110 C 
ATOM     38  C   UNL     1      34.298 -15.992 -23.140  0.00  0.00    +0.077 C 
ENDBRANCH  31  34
ENDBRANCH  29  31
ENDBRANCH  25  28
ENDBRANCH   2  22
TORSDOF 8
ENDMDL
MODEL 9
REMARK VINA RESULT:     -10.7      7.375     15.479
REMARK  Name = 66571548
REMARK  8 active torsions:
REMARK  status: ('A' for Active; 'I' for Inactive)
REMARK    1  A    between atoms: C_2  and  C_10
REMARK    2  A    between atoms: C_2  and  C_22
REMARK    3  A    between atoms: N_3  and  C_15
REMARK    4  A    between atoms: C_15  and  C_18
REMARK    5  A    between atoms: C_18  and  O_19
REMARK    6  A    between atoms: C_25  and  N_28
REMARK    7  A    between atoms: C_29  and  C_31
REMARK    8  A    between atoms: C_31  and  C_34
REMARK                            x       y       z     vdW  Elec       q    Type
REMARK                         _______ _______ _______ _____ _____    ______ ____
ROOT
ATOM      1  O   UNL     1      34.961  -9.182 -23.690  0.00  0.00    -0.286 OA
ATOM      2  C   UNL     1      33.756  -9.093 -23.370  0.00  0.00    +0.199 C 
ENDROOT
BRANCH   2  10
ATOM      3  N   UNL     1      32.264  -5.878 -24.051  0.00  0.00    -0.261 N 
ATOM      4  N   UNL     1      31.295  -5.046 -22.005  0.00  0.00    -0.322 NA
ATOM      5  N   UNL     1      31.596  -6.566 -20.126  0.00  0.00    -0.170 NA
ATOM      6  N   UNL     1      30.471  -4.528 -19.879  0.00  0.00    -0.293 N 
ATOM      7  C   UNL     1      31.963  -5.970 -22.718  0.00  0.00    +0.201 C 
ATOM      8  C   UNL     1      32.947  -6.999 -24.445  0.00  0.00    +0.071 C 
ATOM      9  C   UNL     1      32.468  -7.177 -22.248  0.00  0.00    +0.069 C 
ATOM     10  C   UNL     1      33.089  -7.822 -23.347  0.00  0.00    +0.059 C 
ATOM     11  C   UNL     1      32.262  -7.457 -20.898  0.00  0.00    +0.116 C 
ATOM     12  C   UNL     1      31.160  -5.432 -20.720  0.00  0.00    +0.143 C 
ATOM     13  H   UNL     1      30.125  -3.682 -20.245  0.00  0.00    +0.155 HD
ATOM     14  H   UNL     1      30.335  -4.745 -18.929  0.00  0.00    +0.155 HD
BRANCH   3  15
ATOM     15  C   UNL     1      31.897  -4.702 -24.976  0.00  0.00    +0.091 C 
ATOM     16  C   UNL     1      32.701  -3.411 -24.687  0.00  0.00    +0.023 C 
ATOM     17  C   UNL     1      32.197  -5.100 -26.440  0.00  0.00    +0.023 C 
BRANCH  15  18
ATOM     18  C   UNL     1      30.388  -4.370 -24.852  0.00  0.00    +0.155 C 
BRANCH  18  19
ATOM     19  O   UNL     1      30.192  -3.209 -24.051  0.00  0.00    -0.380 OA
ATOM     20  H   UNL     1      30.031  -2.444 -24.626  0.00  0.00    +0.211 HD
ENDBRANCH  18  19
ENDBRANCH  15  18
ENDBRANCH   3  15
ENDBRANCH   2  10
BRANCH   2  22
ATOM     21  N   UNL     1      31.182 -11.514 -22.017  0.00  0.00    -0.241 NA
ATOM     22  C   UNL     1      33.071 -10.385 -23.017  0.00  0.00    +0.059 C 
ATOM     23  C   UNL     1      33.645 -11.612 -23.336  0.00  0.00    +0.021 C 
ATOM     24  C   UNL     1      31.850 -10.390 -22.363  0.00  0.00    +0.102 C 
ATOM     25  C   UNL     1      32.988 -12.789 -22.995  0.00  0.00    +0.070 C 
ATOM     26  C   UNL     1      31.770 -12.687 -22.343  0.00  0.00    +0.113 C 
BRANCH  25  28
ATOM     27  O   UNL     1      34.232 -14.856 -21.208  0.00  0.00    -0.274 OA
ATOM     28  N   UNL     1      33.538 -14.032 -23.300  0.00  0.00    -0.282 N 
ATOM     29  C   UNL     1      34.111 -14.970 -22.424  0.00  0.00    +0.232 C 
ATOM     30  H   UNL     1      33.524 -14.285 -24.251  0.00  0.00    +0.155 HD
BRANCH  29  31
ATOM     31  C   UNL     1      34.592 -16.202 -23.176  0.00  0.00    +0.131 C 
BRANCH  31  34
ATOM     32 CL   UNL     1      35.449 -20.931 -19.671  0.00  0.00    -0.081 Cl
ATOM     33  N   UNL     1      33.798 -18.225 -22.083  0.00  0.00    -0.247 NA
ATOM     34  C   UNL     1      34.841 -17.389 -22.284  0.00  0.00    +0.068 C 
ATOM     35  C   UNL     1      36.096 -17.567 -21.724  0.00  0.00    +0.016 C 
ATOM     36  C   UNL     1      36.293 -18.674 -20.905  0.00  0.00    +0.014 C 
ATOM     37  C   UNL     1      34.026 -19.289 -21.281  0.00  0.00    +0.110 C 
ATOM     38  C   UNL     1      35.243 -19.556 -20.674  0.00  0.00    +0.077 C 
ENDBRANCH  31  34
ENDBRANCH  29  31
ENDBRANCH  25  28
ENDBRANCH   2  22
TORSDOF 8
ENDMDL
