MODEL 1
REMARK VINA RESULT:     -12.7      0.000      0.000
REMARK  Name = 11992146
REMARK  2 active torsions:
REMARK  status: ('A' for Active; 'I' for Inactive)
REMARK    1  A    between atoms: C_2  and  C_14
REMARK    2  A    between atoms: C_5  and  C_20
REMARK                            x       y       z     vdW  Elec       q    Type
REMARK                         _______ _______ _______ _____ _____    ______ ____
ROOT
ATOM      1  N   UNL     1      36.167 -19.866 -20.591  0.00  0.00    -0.244 NA
ATOM      2  C   UNL     1      35.081 -17.595 -21.805  0.00  0.00    +0.016 C 
ATOM      3  C   UNL     1      34.279 -18.419 -21.023  0.00  0.00    +0.020 C 
ATOM      4  C   UNL     1      36.424 -17.905 -21.981  0.00  0.00    +0.022 C 
ATOM      5  C   UNL     1      34.865 -19.533 -20.443  0.00  0.00    +0.084 C 
ATOM      6  C   UNL     1      36.915 -19.042 -21.358  0.00  0.00    +0.099 C 
ENDROOT
BRANCH   2  14
ATOM      7  O   UNL     1      33.077 -14.581 -26.089  0.00  0.00    -0.270 OA
ATOM      8  N   UNL     1      34.338 -15.248 -21.744  0.00  0.00    -0.316 N 
ATOM      9  N   UNL     1      32.587 -12.889 -24.592  0.00  0.00    -0.300 N 
ATOM     10  C   UNL     1      33.801 -14.320 -22.588  0.00  0.00    +0.031 C 
ATOM     11  C   UNL     1      33.475 -12.915 -22.250  0.00  0.00    +0.063 C 
ATOM     12  C   UNL     1      33.628 -14.899 -23.828  0.00  0.00    +0.064 C 
ATOM     13  C   UNL     1      32.376 -12.444 -23.210  0.00  0.00    +0.096 C 
ATOM     14  C   UNL     1      34.521 -16.423 -22.432  0.00  0.00    +0.048 C 
ATOM     15  C   UNL     1      34.094 -16.232 -23.732  0.00  0.00    +0.020 C 
ATOM     16  C   UNL     1      33.081 -14.147 -24.941  0.00  0.00    +0.247 C 
ATOM     17  H   UNL     1      34.559 -15.099 -20.795  0.00  0.00    +0.152 HD
ATOM     18  H   UNL     1      32.368 -12.261 -25.319  0.00  0.00    +0.150 HD
ENDBRANCH   2  14
BRANCH   5  20
ATOM     19  F   UNL     1      36.078 -21.406 -18.736  0.00  0.00    -0.204 F 
ATOM     20  C   UNL     1      34.095 -20.433 -19.619  0.00  0.00    +0.045 C 
ATOM     21  C   UNL     1      34.739 -21.350 -18.785  0.00  0.00    +0.142 C 
ATOM     22  C   UNL     1      32.700 -20.390 -19.655  0.00  0.00    +0.004 C 
ATOM     23  C   UNL     1      33.990 -22.221 -17.992  0.00  0.00    +0.030 C 
ATOM     24  C   UNL     1      31.952 -21.260 -18.863  0.00  0.00    +0.000 C 
ATOM     25  C   UNL     1      32.597 -22.176 -18.032  0.00  0.00    +0.002 C 
ENDBRANCH   5  20
TORSDOF 2
ENDMDL
MODEL 2
REMARK VINA RESULT:     -12.2      4.910     10.321
REMARK  Name = 11992146
REMARK  2 active torsions:
REMARK  status: ('A' for Active; 'I' for Inactive)
REMARK    1  A    between atoms: C_2  and  C_14
REMARK    2  A    between atoms: C_5  and  C_20
REMARK                            x       y       z     vdW  Elec       q    Type
REMARK                         _______ _______ _______ _____ _____    ______ ____
ROOT
ATOM      1  N   UNL     1      31.053  -8.554 -21.625  0.00  0.00    -0.244 NA
ATOM      2  C   UNL     1      32.087 -11.083 -22.208  0.00  0.00    +0.016 C 
ATOM      3  C   UNL     1      32.343 -10.013 -23.058  0.00  0.00    +0.020 C 
ATOM      4  C   UNL     1      31.315 -10.892 -21.069  0.00  0.00    +0.022 C 
ATOM      5  C   UNL     1      31.807  -8.779 -22.724  0.00  0.00    +0.084 C 
ATOM      6  C   UNL     1      30.825  -9.618 -20.824  0.00  0.00    +0.099 C 
ENDROOT
BRANCH   2  14
ATOM      7  O   UNL     1      33.252 -15.472 -25.501  0.00  0.00    -0.270 OA
ATOM      8  N   UNL     1      33.163 -13.194 -21.536  0.00  0.00    -0.316 N 
ATOM      9  N   UNL     1      34.388 -16.425 -23.728  0.00  0.00    -0.300 N 
ATOM     10  C   UNL     1      33.578 -14.362 -22.109  0.00  0.00    +0.031 C 
ATOM     11  C   UNL     1      34.194 -15.510 -21.404  0.00  0.00    +0.063 C 
ATOM     12  C   UNL     1      33.310 -14.310 -23.461  0.00  0.00    +0.064 C 
ATOM     13  C   UNL     1      35.040 -16.285 -22.421  0.00  0.00    +0.096 C 
ATOM     14  C   UNL     1      32.621 -12.390 -22.508  0.00  0.00    +0.048 C 
ATOM     15  C   UNL     1      32.693 -13.061 -23.714  0.00  0.00    +0.020 C 
ATOM     16  C   UNL     1      33.633 -15.421 -24.335  0.00  0.00    +0.247 C 
ATOM     17  H   UNL     1      33.240 -12.965 -20.581  0.00  0.00    +0.152 HD
ATOM     18  H   UNL     1      34.489 -17.280 -24.206  0.00  0.00    +0.150 HD
ENDBRANCH   2  14
BRANCH   5  20
ATOM     19  F   UNL     1      34.307  -7.505 -22.878  0.00  0.00    -0.204 F 
ATOM     20  C   UNL     1      32.031  -7.622 -23.558  0.00  0.00    +0.045 C 
ATOM     21  C   UNL     1      33.290  -7.019 -23.603  0.00  0.00    +0.142 C 
ATOM     22  C   UNL     1      30.984  -7.101 -24.321  0.00  0.00    +0.004 C 
ATOM     23  C   UNL     1      33.500  -5.898 -24.408  0.00  0.00    +0.030 C 
ATOM     24  C   UNL     1      31.194  -5.982 -25.125  0.00  0.00    +0.000 C 
ATOM     25  C   UNL     1      32.452  -5.379 -25.169  0.00  0.00    +0.002 C 
ENDBRANCH   5  20
TORSDOF 2
ENDMDL
MODEL 3
REMARK VINA RESULT:     -12.2      5.904     10.539
REMARK  Name = 11992146
REMARK  2 active torsions:
REMARK  status: ('A' for Active; 'I' for Inactive)
REMARK    1  A    between atoms: C_2  and  C_14
REMARK    2  A    between atoms: C_5  and  C_20
REMARK                            x       y       z     vdW  Elec       q    Type
REMARK                         _______ _______ _______ _____ _____    ______ ____
ROOT
ATOM      1  N   UNL     1      31.910 -21.982 -17.894  0.00  0.00    -0.244 NA
ATOM      2  C   UNL     1      33.641 -22.965 -15.934  0.00  0.00    +0.016 C 
ATOM      3  C   UNL     1      34.144 -22.234 -17.004  0.00  0.00    +0.020 C 
ATOM      4  C   UNL     1      32.276 -23.205 -15.841  0.00  0.00    +0.022 C 
ATOM      5  C   UNL     1      33.244 -21.769 -17.949  0.00  0.00    +0.084 C 
ATOM      6  C   UNL     1      31.459 -22.696 -16.839  0.00  0.00    +0.099 C 
ENDROOT
BRANCH   2  14
ATOM      7  O   UNL     1      36.915 -26.816 -13.502  0.00  0.00    -0.270 OA
ATOM      8  N   UNL     1      34.852 -22.745 -13.801  0.00  0.00    -0.316 N 
ATOM      9  N   UNL     1      37.508 -25.232 -11.928  0.00  0.00    -0.300 N 
ATOM     10  C   UNL     1      35.707 -23.475 -13.026  0.00  0.00    +0.031 C 
ATOM     11  C   UNL     1      36.268 -23.065 -11.718  0.00  0.00    +0.063 C 
ATOM     12  C   UNL     1      35.950 -24.680 -13.651  0.00  0.00    +0.064 C 
ATOM     13  C   UNL     1      37.584 -23.826 -11.513  0.00  0.00    +0.096 C 
ATOM     14  C   UNL     1      34.535 -23.473 -14.921  0.00  0.00    +0.048 C 
ATOM     15  C   UNL     1      35.198 -24.683 -14.851  0.00  0.00    +0.020 C 
ATOM     16  C   UNL     1      36.819 -25.676 -13.056  0.00  0.00    +0.247 C 
ATOM     17  H   UNL     1      34.519 -21.842 -13.590  0.00  0.00    +0.152 HD
ATOM     18  H   UNL     1      37.973 -25.902 -11.376  0.00  0.00    +0.150 HD
ENDBRANCH   2  14
BRANCH   5  20
ATOM     19  F   UNL     1      35.965 -21.501 -18.598  0.00  0.00    -0.204 F 
ATOM     20  C   UNL     1      33.692 -21.002 -19.088  0.00  0.00    +0.045 C 
ATOM     21  C   UNL     1      35.055 -20.894 -19.372  0.00  0.00    +0.142 C 
ATOM     22  C   UNL     1      32.759 -20.365 -19.908  0.00  0.00    +0.004 C 
ATOM     23  C   UNL     1      35.483 -20.149 -20.473  0.00  0.00    +0.030 C 
ATOM     24  C   UNL     1      33.187 -19.621 -21.007  0.00  0.00    +0.000 C 
ATOM     25  C   UNL     1      34.548 -19.512 -21.290  0.00  0.00    +0.002 C 
ENDBRANCH   5  20
TORSDOF 2
ENDMDL
MODEL 4
REMARK VINA RESULT:     -12.1      4.857     10.041
REMARK  Name = 11992146
REMARK  2 active torsions:
REMARK  status: ('A' for Active; 'I' for Inactive)
REMARK    1  A    between atoms: C_2  and  C_14
REMARK    2  A    between atoms: C_5  and  C_20
REMARK                            x       y       z     vdW  Elec       q    Type
REMARK                         _______ _______ _______ _____ _____    ______ ____
ROOT
ATOM      1  N   UNL     1      31.030  -9.154 -21.129  0.00  0.00    -0.244 NA
ATOM      2  C   UNL     1      32.220 -11.599 -21.770  0.00  0.00    +0.016 C 
ATOM      3  C   UNL     1      32.268 -10.544 -22.673  0.00  0.00    +0.020 C 
ATOM      4  C   UNL     1      31.579 -11.435 -20.548  0.00  0.00    +0.022 C 
ATOM      5  C   UNL     1      31.663  -9.351 -22.308  0.00  0.00    +0.084 C 
ATOM      6  C   UNL     1      31.004 -10.203 -20.278  0.00  0.00    +0.099 C 
ENDROOT
BRANCH   2  14
ATOM      7  O   UNL     1      34.882 -16.409 -20.656  0.00  0.00    -0.270 OA
ATOM      8  N   UNL     1      32.979 -13.283 -23.399  0.00  0.00    -0.316 N 
ATOM      9  N   UNL     1      34.671 -16.973 -22.887  0.00  0.00    -0.300 N 
ATOM     10  C   UNL     1      33.592 -14.503 -23.404  0.00  0.00    +0.031 C 
ATOM     11  C   UNL     1      33.959 -15.292 -24.602  0.00  0.00    +0.063 C 
ATOM     12  C   UNL     1      33.840 -14.878 -22.100  0.00  0.00    +0.064 C 
ATOM     13  C   UNL     1      34.027 -16.767 -24.190  0.00  0.00    +0.096 C 
ATOM     14  C   UNL     1      32.834 -12.863 -22.100  0.00  0.00    +0.048 C 
ATOM     15  C   UNL     1      33.366 -13.832 -21.271  0.00  0.00    +0.020 C 
ATOM     16  C   UNL     1      34.497 -16.132 -21.789  0.00  0.00    +0.247 C 
ATOM     17  H   UNL     1      32.687 -12.786 -24.198  0.00  0.00    +0.152 HD
ATOM     18  H   UNL     1      35.263 -17.754 -22.783  0.00  0.00    +0.150 HD
ENDBRANCH   2  14
BRANCH   5  20
ATOM     19  F   UNL     1      34.029  -7.984 -22.963  0.00  0.00    -0.204 F 
ATOM     20  C   UNL     1      31.673  -8.211 -23.193  0.00  0.00    +0.045 C 
ATOM     21  C   UNL     1      32.872  -7.560 -23.490  0.00  0.00    +0.142 C 
ATOM     22  C   UNL     1      30.478  -7.755 -23.754  0.00  0.00    +0.004 C 
ATOM     23  C   UNL     1      32.875  -6.456 -24.344  0.00  0.00    +0.030 C 
ATOM     24  C   UNL     1      30.481  -6.652 -24.607  0.00  0.00    +0.000 C 
ATOM     25  C   UNL     1      31.679  -6.002 -24.902  0.00  0.00    +0.002 C 
ENDBRANCH   5  20
TORSDOF 2
ENDMDL
MODEL 5
REMARK VINA RESULT:     -11.9      3.735      5.993
REMARK  Name = 11992146
REMARK  2 active torsions:
REMARK  status: ('A' for Active; 'I' for Inactive)
REMARK    1  A    between atoms: C_2  and  C_14
REMARK    2  A    between atoms: C_5  and  C_20
REMARK                            x       y       z     vdW  Elec       q    Type
REMARK                         _______ _______ _______ _____ _____    ______ ____
ROOT
ATOM      1  N   UNL     1      33.561 -15.282 -25.010  0.00  0.00    -0.244 NA
ATOM      2  C   UNL     1      32.780 -12.956 -23.673  0.00  0.00    +0.016 C 
ATOM      3  C   UNL     1      33.247 -14.049 -22.953  0.00  0.00    +0.020 C 
ATOM      4  C   UNL     1      32.702 -13.023 -25.059  0.00  0.00    +0.022 C 
ATOM      5  C   UNL     1      33.622 -15.179 -23.663  0.00  0.00    +0.084 C 
ATOM      6  C   UNL     1      33.101 -14.199 -25.675  0.00  0.00    +0.099 C 
ENDROOT
BRANCH   2  14
ATOM      7  O   UNL     1      30.823  -9.990 -19.333  0.00  0.00    -0.270 OA
ATOM      8  N   UNL     1      32.352 -10.532 -23.609  0.00  0.00    -0.316 N 
ATOM      9  N   UNL     1      31.211  -8.065 -20.551  0.00  0.00    -0.300 N 
ATOM     10  C   UNL     1      31.929  -9.587 -22.719  0.00  0.00    +0.031 C 
ATOM     11  C   UNL     1      31.736  -8.146 -22.999  0.00  0.00    +0.063 C 
ATOM     12  C   UNL     1      31.685 -10.201 -21.508  0.00  0.00    +0.064 C 
ATOM     13  C   UNL     1      31.872  -7.388 -21.672  0.00  0.00    +0.096 C 
ATOM     14  C   UNL     1      32.377 -11.754 -22.984  0.00  0.00    +0.048 C 
ATOM     15  C   UNL     1      31.961 -11.579 -21.679  0.00  0.00    +0.020 C 
ATOM     16  C   UNL     1      31.210  -9.447 -20.364  0.00  0.00    +0.247 C 
ATOM     17  H   UNL     1      32.600 -10.363 -24.548  0.00  0.00    +0.152 HD
ATOM     18  H   UNL     1      30.738  -7.509 -19.889  0.00  0.00    +0.150 HD
ENDBRANCH   2  14
BRANCH   5  20
ATOM     19  F   UNL     1      34.561 -15.094 -21.016  0.00  0.00    -0.204 F 
ATOM     20  C   UNL     1      34.117 -16.353 -22.984  0.00  0.00    +0.045 C 
ATOM     21  C   UNL     1      34.576 -16.265 -21.669  0.00  0.00    +0.142 C 
ATOM     22  C   UNL     1      34.139 -17.583 -23.646  0.00  0.00    +0.004 C 
ATOM     23  C   UNL     1      35.057 -17.402 -21.018  0.00  0.00    +0.030 C 
ATOM     24  C   UNL     1      34.619 -18.719 -22.996  0.00  0.00    +0.000 C 
ATOM     25  C   UNL     1      35.079 -18.629 -21.682  0.00  0.00    +0.002 C 
ENDBRANCH   5  20
TORSDOF 2
ENDMDL
MODEL 6
REMARK VINA RESULT:     -11.7      1.846      2.360
REMARK  Name = 11992146
REMARK  2 active torsions:
REMARK  status: ('A' for Active; 'I' for Inactive)
REMARK    1  A    between atoms: C_2  and  C_14
REMARK    2  A    between atoms: C_5  and  C_20
REMARK                            x       y       z     vdW  Elec       q    Type
REMARK                         _______ _______ _______ _____ _____    ______ ____
ROOT
ATOM      1  N   UNL     1      36.291 -19.511 -21.131  0.00  0.00    -0.244 NA
ATOM      2  C   UNL     1      35.001 -17.095 -21.687  0.00  0.00    +0.016 C 
ATOM      3  C   UNL     1      34.386 -18.043 -20.876  0.00  0.00    +0.020 C 
ATOM      4  C   UNL     1      36.258 -17.353 -22.220  0.00  0.00    +0.022 C 
ATOM      5  C   UNL     1      35.068 -19.224 -20.631  0.00  0.00    +0.084 C 
ATOM      6  C   UNL     1      36.855 -18.566 -21.915  0.00  0.00    +0.099 C 
ENDROOT
BRANCH   2  14
ATOM      7  O   UNL     1      32.267 -12.370 -20.400  0.00  0.00    -0.270 OA
ATOM      8  N   UNL     1      34.113 -15.423 -23.261  0.00  0.00    -0.316 N 
ATOM      9  N   UNL     1      32.347 -11.786 -22.634  0.00  0.00    -0.300 N 
ATOM     10  C   UNL     1      33.466 -14.221 -23.225  0.00  0.00    +0.031 C 
ATOM     11  C   UNL     1      33.016 -13.435 -24.397  0.00  0.00    +0.063 C 
ATOM     12  C   UNL     1      33.275 -13.862 -21.907  0.00  0.00    +0.064 C 
ATOM     13  C   UNL     1      32.929 -11.965 -23.969  0.00  0.00    +0.096 C 
ATOM     14  C   UNL     1      34.336 -15.848 -21.974  0.00  0.00    +0.048 C 
ATOM     15  C   UNL     1      33.820 -14.899 -21.112  0.00  0.00    +0.020 C 
ATOM     16  C   UNL     1      32.600 -12.629 -21.553  0.00  0.00    +0.247 C 
ATOM     17  H   UNL     1      34.377 -15.907 -24.078  0.00  0.00    +0.152 HD
ATOM     18  H   UNL     1      31.740 -11.023 -22.493  0.00  0.00    +0.150 HD
ENDBRANCH   2  14
BRANCH   5  20
ATOM     19  F   UNL     1      32.332 -19.861 -20.709  0.00  0.00    -0.204 F 
ATOM     20  C   UNL     1      34.494 -20.254 -19.798  0.00  0.00    +0.045 C 
ATOM     21  C   UNL     1      33.128 -20.537 -19.868  0.00  0.00    +0.142 C 
ATOM     22  C   UNL     1      35.306 -20.971 -18.917  0.00  0.00    +0.004 C 
ATOM     23  C   UNL     1      32.577 -21.532 -19.058  0.00  0.00    +0.030 C 
ATOM     24  C   UNL     1      34.756 -21.964 -18.108  0.00  0.00    +0.000 C 
ATOM     25  C   UNL     1      33.392 -22.245 -18.178  0.00  0.00    +0.002 C 
ENDBRANCH   5  20
TORSDOF 2
ENDMDL
MODEL 7
REMARK VINA RESULT:     -11.5      3.618      7.980
REMARK  Name = 11992146
REMARK  2 active torsions:
REMARK  status: ('A' for Active; 'I' for Inactive)
REMARK    1  A    between atoms: C_2  and  C_14
REMARK    2  A    between atoms: C_5  and  C_20
REMARK                            x       y       z     vdW  Elec       q    Type
REMARK                         _______ _______ _______ _____ _____    ______ ____
ROOT
ATOM      1  N   UNL     1      34.421 -17.573 -23.527  0.00  0.00    -0.244 NA
ATOM      2  C   UNL     1      34.577 -19.236 -21.288  0.00  0.00    +0.016 C 
ATOM      3  C   UNL     1      34.394 -17.868 -21.127  0.00  0.00    +0.020 C 
ATOM      4  C   UNL     1      34.683 -19.775 -22.564  0.00  0.00    +0.022 C 
ATOM      5  C   UNL     1      34.323 -17.086 -22.269  0.00  0.00    +0.084 C 
ATOM      6  C   UNL     1      34.599 -18.907 -23.642  0.00  0.00    +0.099 C 
ENDROOT
BRANCH   2  14
ATOM      7  O   UNL     1      37.126 -21.678 -16.928  0.00  0.00    -0.270 OA
ATOM      8  N   UNL     1      33.608 -20.891 -19.743  0.00  0.00    -0.316 N 
ATOM      9  N   UNL     1      35.098 -22.621 -16.347  0.00  0.00    -0.300 N 
ATOM     10  C   UNL     1      33.972 -21.592 -18.629  0.00  0.00    +0.031 C 
ATOM     11  C   UNL     1      33.139 -22.582 -17.908  0.00  0.00    +0.063 C 
ATOM     12  C   UNL     1      35.263 -21.244 -18.291  0.00  0.00    +0.064 C 
ATOM     13  C   UNL     1      33.635 -22.645 -16.459  0.00  0.00    +0.096 C 
ATOM     14  C   UNL     1      34.658 -20.097 -20.132  0.00  0.00    +0.048 C 
ATOM     15  C   UNL     1      35.703 -20.300 -19.251  0.00  0.00    +0.020 C 
ATOM     16  C   UNL     1      35.929 -21.838 -17.149  0.00  0.00    +0.247 C 
ATOM     17  H   UNL     1      32.733 -20.946 -20.193  0.00  0.00    +0.152 HD
ATOM     18  H   UNL     1      35.519 -23.192 -15.664  0.00  0.00    +0.150 HD
ENDBRANCH   2  14
BRANCH   5  20
ATOM     19  F   UNL     1      34.164 -15.454 -24.551  0.00  0.00    -0.204 F 
ATOM     20  C   UNL     1      34.133 -15.657 -22.182  0.00  0.00    +0.045 C 
ATOM     21  C   UNL     1      34.062 -14.884 -23.342  0.00  0.00    +0.142 C 
ATOM     22  C   UNL     1      34.023 -15.045 -20.932  0.00  0.00    +0.004 C 
ATOM     23  C   UNL     1      33.882 -13.503 -23.252  0.00  0.00    +0.030 C 
ATOM     24  C   UNL     1      33.843 -13.666 -20.841  0.00  0.00    +0.000 C 
ATOM     25  C   UNL     1      33.773 -12.894 -22.001  0.00  0.00    +0.002 C 
ENDBRANCH   5  20
TORSDOF 2
ENDMDL
MODEL 8
REMARK VINA RESULT:     -11.2      4.626      7.828
REMARK  Name = 11992146
REMARK  2 active torsions:
REMARK  status: ('A' for Active; 'I' for Inactive)
REMARK    1  A    between atoms: C_2  and  C_14
REMARK    2  A    between atoms: C_5  and  C_20
REMARK                            x       y       z     vdW  Elec       q    Type
REMARK                         _______ _______ _______ _____ _____    ______ ____
ROOT
ATOM      1  N   UNL     1      33.352 -24.270 -13.910  0.00  0.00    -0.244 NA
ATOM      2  C   UNL     1      33.539 -22.813 -16.287  0.00  0.00    +0.016 C 
ATOM      3  C   UNL     1      34.692 -23.242 -15.640  0.00  0.00    +0.020 C 
ATOM      4  C   UNL     1      32.293 -23.111 -15.748  0.00  0.00    +0.022 C 
ATOM      5  C   UNL     1      34.546 -23.961 -14.464  0.00  0.00    +0.084 C 
ATOM      6  C   UNL     1      32.254 -23.836 -14.567  0.00  0.00    +0.099 C 
ENDROOT
BRANCH   2  14
ATOM      7  O   UNL     1      31.527 -20.192 -20.819  0.00  0.00    -0.270 OA
ATOM      8  N   UNL     1      34.845 -21.743 -18.079  0.00  0.00    -0.316 N 
ATOM      9  N   UNL     1      33.685 -19.536 -21.324  0.00  0.00    -0.300 N 
ATOM     10  C   UNL     1      34.625 -21.037 -19.227  0.00  0.00    +0.031 C 
ATOM     11  C   UNL     1      35.664 -20.528 -20.152  0.00  0.00    +0.063 C 
ATOM     12  C   UNL     1      33.265 -20.891 -19.402  0.00  0.00    +0.064 C 
ATOM     13  C   UNL     1      35.075 -19.328 -20.904  0.00  0.00    +0.096 C 
ATOM     14  C   UNL     1      33.634 -22.061 -17.514  0.00  0.00    +0.048 C 
ATOM     15  C   UNL     1      32.635 -21.549 -18.319  0.00  0.00    +0.020 C 
ATOM     16  C   UNL     1      32.725 -20.188 -20.550  0.00  0.00    +0.247 C 
ATOM     17  H   UNL     1      35.728 -21.984 -17.716  0.00  0.00    +0.152 HD
ATOM     18  H   UNL     1      33.412 -19.193 -22.206  0.00  0.00    +0.150 HD
ENDBRANCH   2  14
BRANCH   5  20
ATOM     19  F   UNL     1      35.835 -26.370 -15.118  0.00  0.00    -0.204 F 
ATOM     20  C   UNL     1      35.697 -24.439 -13.737  0.00  0.00    +0.045 C 
ATOM     21  C   UNL     1      36.306 -25.644 -14.095  0.00  0.00    +0.142 C 
ATOM     22  C   UNL     1      36.204 -23.696 -12.669  0.00  0.00    +0.004 C 
ATOM     23  C   UNL     1      37.418 -26.103 -13.387  0.00  0.00    +0.030 C 
ATOM     24  C   UNL     1      37.314 -24.155 -11.961  0.00  0.00    +0.000 C 
ATOM     25  C   UNL     1      37.921 -25.359 -12.319  0.00  0.00    +0.002 C 
ENDBRANCH   5  20
TORSDOF 2
ENDMDL
MODEL 9
REMARK VINA RESULT:     -11.1      4.804      8.939
REMARK  Name = 11992146
REMARK  2 active torsions:
REMARK  status: ('A' for Active; 'I' for Inactive)
REMARK    1  A    between atoms: C_2  and  C_14
REMARK    2  A    between atoms: C_5  and  C_20
REMARK                            x       y       z     vdW  Elec       q    Type
REMARK                         _______ _______ _______ _____ _____    ______ ____
ROOT
ATOM      1  N   UNL     1      36.066 -21.189 -18.384  0.00  0.00    -0.244 NA
ATOM      2  C   UNL     1      33.633 -22.019 -17.288  0.00  0.00    +0.016 C 
ATOM      3  C   UNL     1      33.649 -21.232 -18.434  0.00  0.00    +0.020 C 
ATOM      4  C   UNL     1      34.830 -22.392 -16.689  0.00  0.00    +0.022 C 
ATOM      5  C   UNL     1      34.881 -20.846 -18.938  0.00  0.00    +0.084 C 
ATOM      6  C   UNL     1      36.010 -21.954 -17.271  0.00  0.00    +0.099 C 
ENDROOT
BRANCH   2  14
ATOM      7  O   UNL     1      28.049 -22.106 -16.767  0.00  0.00    -0.270 OA
ATOM      8  N   UNL     1      32.319 -23.301 -15.647  0.00  0.00    -0.316 N 
ATOM      9  N   UNL     1      28.281 -23.789 -15.200  0.00  0.00    -0.300 N 
ATOM     10  C   UNL     1      31.010 -23.525 -15.330  0.00  0.00    +0.031 C 
ATOM     11  C   UNL     1      30.511 -24.364 -14.216  0.00  0.00    +0.063 C 
ATOM     12  C   UNL     1      30.216 -22.819 -16.210  0.00  0.00    +0.064 C 
ATOM     13  C   UNL     1      29.099 -24.838 -14.582  0.00  0.00    +0.096 C 
ATOM     14  C   UNL     1      32.377 -22.448 -16.722  0.00  0.00    +0.048 C 
ATOM     15  C   UNL     1      31.085 -22.128 -17.089  0.00  0.00    +0.020 C 
ATOM     16  C   UNL     1      28.770 -22.854 -16.113  0.00  0.00    +0.247 C 
ATOM     17  H   UNL     1      33.095 -23.689 -15.180  0.00  0.00    +0.152 HD
ATOM     18  H   UNL     1      27.328 -23.742 -14.956  0.00  0.00    +0.150 HD
ENDBRANCH   2  14
BRANCH   5  20
ATOM     19  F   UNL     1      32.687 -20.416 -20.640  0.00  0.00    -0.204 F 
ATOM     20  C   UNL     1      34.976 -20.029 -20.124  0.00  0.00    +0.045 C 
ATOM     21  C   UNL     1      33.861 -19.844 -20.943  0.00  0.00    +0.142 C 
ATOM     22  C   UNL     1      36.189 -19.422 -20.455  0.00  0.00    +0.004 C 
ATOM     23  C   UNL     1      33.960 -19.055 -22.091  0.00  0.00    +0.030 C 
ATOM     24  C   UNL     1      36.288 -18.635 -21.602  0.00  0.00    +0.000 C 
ATOM     25  C   UNL     1      35.173 -18.451 -22.420  0.00  0.00    +0.002 C 
ENDBRANCH   5  20
TORSDOF 2
ENDMDL
