MODEL 1
REMARK VINA RESULT:      -9.7      0.000      0.000
REMARK  Name = 9913767
REMARK  11 active torsions:
REMARK  status: ('A' for Active; 'I' for Inactive)
REMARK    1  A    between atoms: N_1  and  C_20
REMARK    2  A    between atoms: N_1  and  C_23
REMARK    3  A    between atoms: C_6  and  C_8
REMARK    4  A    between atoms: C_7  and  C_14
REMARK    5  A    between atoms: C_23  and  C_24
REMARK    6  A    between atoms: C_24  and  C_25
REMARK    7  A    between atoms: C_25  and  C_26
REMARK    8  A    between atoms: C_26  and  O_27
REMARK    9  A    between atoms: O_27  and  C_28
REMARK   10  A    between atoms: C_28  and  C_31
REMARK   11  A    between atoms: N_30  and  S_33
REMARK                            x       y       z     vdW  Elec       q    Type
REMARK                         _______ _______ _______ _____ _____    ______ ____
ROOT
ATOM      1  N   UNL     1      32.287 -11.872 -21.886  0.00  0.00    -0.287 N 
ATOM      2  N   UNL     1      32.272  -9.706 -22.868  0.00  0.00    -0.388 NA
ATOM      3  N   UNL     1      31.160  -8.700 -20.498  0.00  0.00    -0.259 NA
ATOM      4  C   UNL     1      32.005 -10.500 -21.812  0.00  0.00    +0.185 C 
ATOM      5  C   UNL     1      31.459 -10.006 -20.648  0.00  0.00    +0.200 C 
ATOM      6  C   UNL     1      31.973  -8.401 -22.718  0.00  0.00    +0.150 C 
ATOM      7  C   UNL     1      31.427  -7.906 -21.554  0.00  0.00    +0.106 C 
ENDROOT
BRANCH   6   8
ATOM      8  C   UNL     1      32.272  -7.579 -23.868  0.00  0.00    +0.031 C 
ATOM      9  C   UNL     1      31.286  -7.325 -24.822  0.00  0.00    +0.003 C 
ATOM     10  C   UNL     1      33.548  -7.037 -24.025  0.00  0.00    +0.003 C 
ATOM     11  C   UNL     1      31.576  -6.532 -25.931  0.00  0.00    +0.000 C 
ATOM     12  C   UNL     1      33.839  -6.243 -25.134  0.00  0.00    +0.000 C 
ATOM     13  C   UNL     1      32.852  -5.991 -26.087  0.00  0.00    +0.000 C 
ENDBRANCH   6   8
BRANCH   7  14
ATOM     14  C   UNL     1      31.095  -6.514 -21.359  0.00  0.00    +0.020 C 
ATOM     15  C   UNL     1      31.819  -5.747 -20.445  0.00  0.00    +0.002 C 
ATOM     16  C   UNL     1      30.053  -5.936 -22.084  0.00  0.00    +0.002 C 
ATOM     17  C   UNL     1      31.499  -4.402 -20.256  0.00  0.00    +0.000 C 
ATOM     18  C   UNL     1      29.733  -4.592 -21.895  0.00  0.00    +0.000 C 
ATOM     19  C   UNL     1      30.457  -3.824 -20.981  0.00  0.00    +0.000 C 
ENDBRANCH   7  14
BRANCH   1  20
ATOM     20  C   UNL     1      32.653 -12.609 -20.675  0.00  0.00    +0.075 C 
ATOM     21  C   UNL     1      31.500 -13.514 -20.263  0.00  0.00    +0.021 C 
ATOM     22  C   UNL     1      33.921 -13.410 -20.940  0.00  0.00    +0.021 C 
ENDBRANCH   1  20
BRANCH   1  23
ATOM     23  C   UNL     1      32.238 -12.584 -23.141  0.00  0.00    +0.093 C 
BRANCH  23  24
ATOM     24  C   UNL     1      33.202 -11.973 -24.154  0.00  0.00    +0.024 C 
BRANCH  24  25
ATOM     25  C   UNL     1      33.126 -12.652 -25.521  0.00  0.00    +0.034 C 
BRANCH  25  26
ATOM     26  C   UNL     1      32.506 -14.040 -25.424  0.00  0.00    +0.143 C 
BRANCH  26  27
ATOM     27  O   UNL     1      33.533 -15.012 -25.561  0.00  0.00    -0.344 OA
BRANCH  27  28
ATOM     28  C   UNL     1      33.295 -16.144 -24.733  0.00  0.00    +0.228 C 
BRANCH  28  31
ATOM     29  O   UNL     1      34.968 -15.216 -23.266  0.00  0.00    -0.271 OA
ATOM     30  N   UNL     1      34.303 -17.437 -22.910  0.00  0.00    -0.187 N 
ATOM     31  C   UNL     1      34.273 -16.174 -23.581  0.00  0.00    +0.271 C 
ATOM     32  H   UNL     1      33.705 -18.143 -23.247  0.00  0.00    +0.176 HD
BRANCH  30  33
ATOM     33  S   UNL     1      35.290 -17.819 -21.569  0.00  0.00    +0.058 S 
ATOM     34  O   UNL     1      36.653 -18.055 -22.004  0.00  0.00    -0.154 OA
ATOM     35  O   UNL     1      35.001 -16.886 -20.498  0.00  0.00    -0.154 OA
ATOM     36  C   UNL     1      34.581 -19.384 -21.119  0.00  0.00    +0.200 C 
ENDBRANCH  30  33
ENDBRANCH  28  31
ENDBRANCH  27  28
ENDBRANCH  26  27
ENDBRANCH  25  26
ENDBRANCH  24  25
ENDBRANCH  23  24
ENDBRANCH   1  23
TORSDOF 11
ENDMDL
MODEL 2
REMARK VINA RESULT:      -8.8      1.633      2.579
REMARK  Name = 9913767
REMARK  11 active torsions:
REMARK  status: ('A' for Active; 'I' for Inactive)
REMARK    1  A    between atoms: N_1  and  C_20
REMARK    2  A    between atoms: N_1  and  C_23
REMARK    3  A    between atoms: C_6  and  C_8
REMARK    4  A    between atoms: C_7  and  C_14
REMARK    5  A    between atoms: C_23  and  C_24
REMARK    6  A    between atoms: C_24  and  C_25
REMARK    7  A    between atoms: C_25  and  C_26
REMARK    8  A    between atoms: C_26  and  O_27
REMARK    9  A    between atoms: O_27  and  C_28
REMARK   10  A    between atoms: C_28  and  C_31
REMARK   11  A    between atoms: N_30  and  S_33
REMARK                            x       y       z     vdW  Elec       q    Type
REMARK                         _______ _______ _______ _____ _____    ______ ____
ROOT
ATOM      1  N   UNL     1      31.725  -9.898 -22.090  0.00  0.00    -0.287 N 
ATOM      2  N   UNL     1      32.193  -8.076 -23.544  0.00  0.00    -0.388 NA
ATOM      3  N   UNL     1      30.772  -6.396 -21.806  0.00  0.00    -0.259 NA
ATOM      4  C   UNL     1      31.618  -8.539 -22.417  0.00  0.00    +0.185 C 
ATOM      5  C   UNL     1      30.920  -7.714 -21.563  0.00  0.00    +0.200 C 
ATOM      6  C   UNL     1      32.045  -6.759 -23.788  0.00  0.00    +0.150 C 
ATOM      7  C   UNL     1      31.346  -5.934 -22.934  0.00  0.00    +0.106 C 
ENDROOT
BRANCH   6   8
ATOM      8  C   UNL     1      32.674  -6.297 -25.003  0.00  0.00    +0.031 C 
ATOM      9  C   UNL     1      33.974  -5.792 -24.969  0.00  0.00    +0.003 C 
ATOM     10  C   UNL     1      31.982  -6.356 -26.213  0.00  0.00    +0.003 C 
ATOM     11  C   UNL     1      34.581  -5.347 -26.143  0.00  0.00    +0.000 C 
ATOM     12  C   UNL     1      32.588  -5.911 -27.388  0.00  0.00    +0.000 C 
ATOM     13  C   UNL     1      33.888  -5.406 -27.352  0.00  0.00    +0.000 C 
ENDBRANCH   6   8
BRANCH   7  14
ATOM     14  C   UNL     1      31.169  -4.518 -23.163  0.00  0.00    +0.020 C 
ATOM     15  C   UNL     1      30.713  -4.065 -24.401  0.00  0.00    +0.002 C 
ATOM     16  C   UNL     1      31.452  -3.605 -22.147  0.00  0.00    +0.002 C 
ATOM     17  C   UNL     1      30.541  -2.698 -24.624  0.00  0.00    +0.000 C 
ATOM     18  C   UNL     1      31.280  -2.239 -22.369  0.00  0.00    +0.000 C 
ATOM     19  C   UNL     1      30.824  -1.786 -23.608  0.00  0.00    +0.000 C 
ENDBRANCH   7  14
BRANCH   1  20
ATOM     20  C   UNL     1      31.741 -10.314 -20.686  0.00  0.00    +0.075 C 
ATOM     21  C   UNL     1      30.651  -9.573 -19.924  0.00  0.00    +0.021 C 
ATOM     22  C   UNL     1      31.548 -11.822 -20.607  0.00  0.00    +0.021 C 
ENDBRANCH   1  20
BRANCH   1  23
ATOM     23  C   UNL     1      31.834 -10.912 -23.112  0.00  0.00    +0.093 C 
BRANCH  23  24
ATOM     24  C   UNL     1      33.290 -11.118 -23.523  0.00  0.00    +0.024 C 
BRANCH  24  25
ATOM     25  C   UNL     1      33.465 -12.280 -24.502  0.00  0.00    +0.034 C 
BRANCH  25  26
ATOM     26  C   UNL     1      32.827 -13.558 -23.974  0.00  0.00    +0.143 C 
BRANCH  26  27
ATOM     27  O   UNL     1      33.836 -14.363 -23.381  0.00  0.00    -0.344 OA
BRANCH  27  28
ATOM     28  C   UNL     1      33.855 -14.219 -21.966  0.00  0.00    +0.228 C 
BRANCH  28  31
ATOM     29  O   UNL     1      34.258 -15.682 -20.092  0.00  0.00    -0.271 OA
ATOM     30  N   UNL     1      34.687 -16.509 -22.246  0.00  0.00    -0.187 N 
ATOM     31  C   UNL     1      34.271 -15.513 -21.306  0.00  0.00    +0.271 C 
ATOM     32  H   UNL     1      34.664 -16.268 -23.200  0.00  0.00    +0.176 HD
BRANCH  30  33
ATOM     33  S   UNL     1      35.220 -18.082 -21.846  0.00  0.00    +0.058 S 
ATOM     34  O   UNL     1      36.656 -18.183 -22.021  0.00  0.00    -0.154 OA
ATOM     35  O   UNL     1      34.591 -18.483 -20.603  0.00  0.00    -0.154 OA
ATOM     36  C   UNL     1      34.444 -18.996 -23.157  0.00  0.00    +0.200 C 
ENDBRANCH  30  33
ENDBRANCH  28  31
ENDBRANCH  27  28
ENDBRANCH  26  27
ENDBRANCH  25  26
ENDBRANCH  24  25
ENDBRANCH  23  24
ENDBRANCH   1  23
TORSDOF 11
ENDMDL
MODEL 3
REMARK VINA RESULT:      -8.8      1.802      2.574
REMARK  Name = 9913767
REMARK  11 active torsions:
REMARK  status: ('A' for Active; 'I' for Inactive)
REMARK    1  A    between atoms: N_1  and  C_20
REMARK    2  A    between atoms: N_1  and  C_23
REMARK    3  A    between atoms: C_6  and  C_8
REMARK    4  A    between atoms: C_7  and  C_14
REMARK    5  A    between atoms: C_23  and  C_24
REMARK    6  A    between atoms: C_24  and  C_25
REMARK    7  A    between atoms: C_25  and  C_26
REMARK    8  A    between atoms: C_26  and  O_27
REMARK    9  A    between atoms: O_27  and  C_28
REMARK   10  A    between atoms: C_28  and  C_31
REMARK   11  A    between atoms: N_30  and  S_33
REMARK                            x       y       z     vdW  Elec       q    Type
REMARK                         _______ _______ _______ _____ _____    ______ ____
ROOT
ATOM      1  N   UNL     1      32.594 -12.287 -22.609  0.00  0.00    -0.287 N 
ATOM      2  N   UNL     1      32.719  -9.997 -23.234  0.00  0.00    -0.388 NA
ATOM      3  N   UNL     1      31.098  -9.365 -21.035  0.00  0.00    -0.259 NA
ATOM      4  C   UNL     1      32.260 -10.943 -22.393  0.00  0.00    +0.185 C 
ATOM      5  C   UNL     1      31.464 -10.634 -21.312  0.00  0.00    +0.200 C 
ATOM      6  C   UNL     1      32.353  -8.729 -22.958  0.00  0.00    +0.150 C 
ATOM      7  C   UNL     1      31.556  -8.419 -21.878  0.00  0.00    +0.106 C 
ENDROOT
BRANCH   6   8
ATOM      8  C   UNL     1      32.863  -7.741 -23.880  0.00  0.00    +0.031 C 
ATOM      9  C   UNL     1      32.027  -7.199 -24.857  0.00  0.00    +0.003 C 
ATOM     10  C   UNL     1      34.192  -7.326 -23.794  0.00  0.00    +0.003 C 
ATOM     11  C   UNL     1      32.519  -6.245 -25.746  0.00  0.00    +0.000 C 
ATOM     12  C   UNL     1      34.686  -6.372 -24.682  0.00  0.00    +0.000 C 
ATOM     13  C   UNL     1      33.849  -5.831 -25.659  0.00  0.00    +0.000 C 
ENDBRANCH   6   8
BRANCH   7  14
ATOM     14  C   UNL     1      31.146  -7.073 -21.551  0.00  0.00    +0.020 C 
ATOM     15  C   UNL     1      30.198  -6.423 -22.342  0.00  0.00    +0.002 C 
ATOM     16  C   UNL     1      31.696  -6.423 -20.446  0.00  0.00    +0.002 C 
ATOM     17  C   UNL     1      29.801  -5.123 -22.028  0.00  0.00    +0.000 C 
ATOM     18  C   UNL     1      31.299  -5.124 -20.132  0.00  0.00    +0.000 C 
ATOM     19  C   UNL     1      30.351  -4.474 -20.923  0.00  0.00    +0.000 C 
ENDBRANCH   7  14
BRANCH   1  20
ATOM     20  C   UNL     1      32.719 -13.203 -21.473  0.00  0.00    +0.075 C 
ATOM     21  C   UNL     1      34.074 -13.004 -20.807  0.00  0.00    +0.021 C 
ATOM     22  C   UNL     1      31.577 -12.951 -20.498  0.00  0.00    +0.021 C 
ENDBRANCH   1  20
BRANCH   1  23
ATOM     23  C   UNL     1      32.836 -12.798 -23.937  0.00  0.00    +0.093 C 
BRANCH  23  24
ATOM     24  C   UNL     1      32.917 -14.322 -23.931  0.00  0.00    +0.024 C 
BRANCH  24  25
ATOM     25  C   UNL     1      34.349 -14.834 -23.772  0.00  0.00    +0.034 C 
BRANCH  25  26
ATOM     26  C   UNL     1      34.382 -16.332 -23.506  0.00  0.00    +0.143 C 
BRANCH  26  27
ATOM     27  O   UNL     1      34.442 -16.549 -22.103  0.00  0.00    -0.344 OA
BRANCH  27  28
ATOM     28  C   UNL     1      35.381 -17.563 -21.770  0.00  0.00    +0.228 C 
BRANCH  28  31
ATOM     29  O   UNL     1      33.651 -19.238 -21.906  0.00  0.00    -0.271 OA
ATOM     30  N   UNL     1      35.304 -19.495 -20.260  0.00  0.00    -0.187 N 
ATOM     31  C   UNL     1      34.669 -18.831 -21.358  0.00  0.00    +0.271 C 
ATOM     32  H   UNL     1      36.116 -19.079 -19.890  0.00  0.00    +0.176 HD
BRANCH  30  33
ATOM     33  S   UNL     1      34.768 -20.949 -19.542  0.00  0.00    +0.058 S 
ATOM     34  O   UNL     1      33.439 -20.773 -18.989  0.00  0.00    -0.154 OA
ATOM     35  O   UNL     1      35.060 -22.047 -20.442  0.00  0.00    -0.154 OA
ATOM     36  C   UNL     1      35.914 -21.047 -18.190  0.00  0.00    +0.200 C 
ENDBRANCH  30  33
ENDBRANCH  28  31
ENDBRANCH  27  28
ENDBRANCH  26  27
ENDBRANCH  25  26
ENDBRANCH  24  25
ENDBRANCH  23  24
ENDBRANCH   1  23
TORSDOF 11
ENDMDL
MODEL 4
REMARK VINA RESULT:      -8.6      9.620     14.673
REMARK  Name = 9913767
REMARK  11 active torsions:
REMARK  status: ('A' for Active; 'I' for Inactive)
REMARK    1  A    between atoms: N_1  and  C_20
REMARK    2  A    between atoms: N_1  and  C_23
REMARK    3  A    between atoms: C_6  and  C_8
REMARK    4  A    between atoms: C_7  and  C_14
REMARK    5  A    between atoms: C_23  and  C_24
REMARK    6  A    between atoms: C_24  and  C_25
REMARK    7  A    between atoms: C_25  and  C_26
REMARK    8  A    between atoms: C_26  and  O_27
REMARK    9  A    between atoms: O_27  and  C_28
REMARK   10  A    between atoms: C_28  and  C_31
REMARK   11  A    between atoms: N_30  and  S_33
REMARK                            x       y       z     vdW  Elec       q    Type
REMARK                         _______ _______ _______ _____ _____    ______ ____
ROOT
ATOM      1  N   UNL     1      35.526 -24.309 -13.435  0.00  0.00    -0.287 N 
ATOM      2  N   UNL     1      34.074 -23.521 -15.145  0.00  0.00    -0.388 NA
ATOM      3  N   UNL     1      31.893 -24.075 -13.471  0.00  0.00    -0.259 NA
ATOM      4  C   UNL     1      34.236 -24.036 -13.911  0.00  0.00    +0.185 C 
ATOM      5  C   UNL     1      33.165 -24.309 -13.088  0.00  0.00    +0.200 C 
ATOM      6  C   UNL     1      32.803 -23.288 -15.528  0.00  0.00    +0.150 C 
ATOM      7  C   UNL     1      31.732 -23.560 -14.706  0.00  0.00    +0.106 C 
ENDROOT
BRANCH   6   8
ATOM      8  C   UNL     1      32.666 -22.734 -16.855  0.00  0.00    +0.031 C 
ATOM      9  C   UNL     1      31.735 -21.725 -17.099  0.00  0.00    +0.003 C 
ATOM     10  C   UNL     1      33.467 -23.209 -17.895  0.00  0.00    +0.003 C 
ATOM     11  C   UNL     1      31.604 -21.190 -18.380  0.00  0.00    +0.000 C 
ATOM     12  C   UNL     1      33.336 -22.675 -19.177  0.00  0.00    +0.000 C 
ATOM     13  C   UNL     1      32.404 -21.666 -19.420  0.00  0.00    +0.000 C 
ENDBRANCH   6   8
BRANCH   7  14
ATOM     14  C   UNL     1      30.358 -23.322 -15.083  0.00  0.00    +0.020 C 
ATOM     15  C   UNL     1      29.723 -22.141 -14.693  0.00  0.00    +0.002 C 
ATOM     16  C   UNL     1      29.666 -24.269 -15.838  0.00  0.00    +0.002 C 
ATOM     17  C   UNL     1      28.396 -21.910 -15.057  0.00  0.00    +0.000 C 
ATOM     18  C   UNL     1      28.339 -24.038 -16.201  0.00  0.00    +0.000 C 
ATOM     19  C   UNL     1      27.705 -22.858 -15.811  0.00  0.00    +0.000 C 
ENDBRANCH   7  14
BRANCH   1  20
ATOM     20  C   UNL     1      35.813 -24.214 -12.003  0.00  0.00    +0.075 C 
ATOM     21  C   UNL     1      36.948 -25.166 -11.648  0.00  0.00    +0.021 C 
ATOM     22  C   UNL     1      36.166 -22.774 -11.656  0.00  0.00    +0.021 C 
ENDBRANCH   1  20
BRANCH   1  23
ATOM     23  C   UNL     1      36.597 -24.673 -14.332  0.00  0.00    +0.093 C 
BRANCH  23  24
ATOM     24  C   UNL     1      37.582 -23.519 -14.503  0.00  0.00    +0.024 C 
BRANCH  24  25
ATOM     25  C   UNL     1      36.907 -22.239 -14.995  0.00  0.00    +0.034 C 
BRANCH  25  26
ATOM     26  C   UNL     1      37.155 -22.009 -16.480  0.00  0.00    +0.143 C 
BRANCH  26  27
ATOM     27  O   UNL     1      36.233 -21.036 -16.954  0.00  0.00    -0.344 OA
BRANCH  27  28
ATOM     28  C   UNL     1      36.034 -21.146 -18.357  0.00  0.00    +0.228 C 
BRANCH  28  31
ATOM     29  O   UNL     1      37.095 -18.995 -18.602  0.00  0.00    -0.271 OA
ATOM     30  N   UNL     1      35.539 -19.645 -20.232  0.00  0.00    -0.187 N 
ATOM     31  C   UNL     1      36.306 -19.824 -19.037  0.00  0.00    +0.271 C 
ATOM     32  H   UNL     1      34.929 -20.372 -20.491  0.00  0.00    +0.176 HD
BRANCH  30  33
ATOM     33  S   UNL     1      35.598 -18.271 -21.246  0.00  0.00    +0.058 S 
ATOM     34  O   UNL     1      35.088 -17.109 -20.544  0.00  0.00    -0.154 OA
ATOM     35  O   UNL     1      36.888 -18.236 -21.906  0.00  0.00    -0.154 OA
ATOM     36  C   UNL     1      34.391 -18.749 -22.458  0.00  0.00    +0.200 C 
ENDBRANCH  30  33
ENDBRANCH  28  31
ENDBRANCH  27  28
ENDBRANCH  26  27
ENDBRANCH  25  26
ENDBRANCH  24  25
ENDBRANCH  23  24
ENDBRANCH   1  23
TORSDOF 11
ENDMDL
MODEL 5
REMARK VINA RESULT:      -8.5      7.187     15.119
REMARK  Name = 9913767
REMARK  11 active torsions:
REMARK  status: ('A' for Active; 'I' for Inactive)
REMARK    1  A    between atoms: N_1  and  C_20
REMARK    2  A    between atoms: N_1  and  C_23
REMARK    3  A    between atoms: C_6  and  C_8
REMARK    4  A    between atoms: C_7  and  C_14
REMARK    5  A    between atoms: C_23  and  C_24
REMARK    6  A    between atoms: C_24  and  C_25
REMARK    7  A    between atoms: C_25  and  C_26
REMARK    8  A    between atoms: C_26  and  O_27
REMARK    9  A    between atoms: O_27  and  C_28
REMARK   10  A    between atoms: C_28  and  C_31
REMARK   11  A    between atoms: N_30  and  S_33
REMARK                            x       y       z     vdW  Elec       q    Type
REMARK                         _______ _______ _______ _____ _____    ______ ____
ROOT
ATOM      1  N   UNL     1      33.695 -22.329 -17.733  0.00  0.00    -0.287 N 
ATOM      2  N   UNL     1      35.309 -23.252 -16.251  0.00  0.00    -0.388 NA
ATOM      3  N   UNL     1      33.716 -22.433 -14.094  0.00  0.00    -0.259 NA
ATOM      4  C   UNL     1      34.141 -22.607 -16.433  0.00  0.00    +0.185 C 
ATOM      5  C   UNL     1      33.358 -22.204 -15.374  0.00  0.00    +0.200 C 
ATOM      6  C   UNL     1      35.668 -23.481 -14.972  0.00  0.00    +0.150 C 
ATOM      7  C   UNL     1      34.885 -23.078 -13.912  0.00  0.00    +0.106 C 
ENDROOT
BRANCH   6   8
ATOM      8  C   UNL     1      36.924 -24.175 -14.814  0.00  0.00    +0.031 C 
ATOM      9  C   UNL     1      38.128 -23.489 -14.978  0.00  0.00    +0.003 C 
ATOM     10  C   UNL     1      36.935 -25.534 -14.496  0.00  0.00    +0.003 C 
ATOM     11  C   UNL     1      39.340 -24.160 -14.825  0.00  0.00    +0.000 C 
ATOM     12  C   UNL     1      38.148 -26.206 -14.342  0.00  0.00    +0.000 C 
ATOM     13  C   UNL     1      39.351 -25.518 -14.507  0.00  0.00    +0.000 C 
ENDBRANCH   6   8
BRANCH   7  14
ATOM     14  C   UNL     1      35.237 -23.307 -12.531  0.00  0.00    +0.020 C 
ATOM     15  C   UNL     1      34.564 -24.282 -11.793  0.00  0.00    +0.002 C 
ATOM     16  C   UNL     1      36.250 -22.557 -11.933  0.00  0.00    +0.002 C 
ATOM     17  C   UNL     1      34.903 -24.504 -10.457  0.00  0.00    +0.000 C 
ATOM     18  C   UNL     1      36.589 -22.779 -10.599  0.00  0.00    +0.000 C 
ATOM     19  C   UNL     1      35.916 -23.753  -9.861  0.00  0.00    +0.000 C 
ENDBRANCH   7  14
BRANCH   1  20
ATOM     20  C   UNL     1      32.261 -22.272 -18.018  0.00  0.00    +0.075 C 
ATOM     21  C   UNL     1      31.479 -22.375 -16.716  0.00  0.00    +0.021 C 
ATOM     22  C   UNL     1      31.947 -20.977 -18.755  0.00  0.00    +0.021 C 
ENDBRANCH   1  20
BRANCH   1  23
ATOM     23  C   UNL     1      34.624 -22.109 -18.816  0.00  0.00    +0.093 C 
BRANCH  23  24
ATOM     24  C   UNL     1      35.716 -21.124 -18.408  0.00  0.00    +0.024 C 
BRANCH  24  25
ATOM     25  C   UNL     1      36.044 -20.119 -19.512  0.00  0.00    +0.034 C 
BRANCH  25  26
ATOM     26  C   UNL     1      34.913 -20.011 -20.526  0.00  0.00    +0.143 C 
BRANCH  26  27
ATOM     27  O   UNL     1      34.490 -18.656 -20.600  0.00  0.00    -0.344 OA
BRANCH  27  28
ATOM     28  C   UNL     1      35.328 -17.895 -21.460  0.00  0.00    +0.228 C 
BRANCH  28  31
ATOM     29  O   UNL     1      34.267 -18.546 -23.525  0.00  0.00    -0.271 OA
ATOM     30  N   UNL     1      34.492 -16.253 -23.080  0.00  0.00    -0.187 N 
ATOM     31  C   UNL     1      34.644 -17.645 -22.784  0.00  0.00    +0.271 C 
ATOM     32  H   UNL     1      34.835 -15.611 -22.417  0.00  0.00    +0.176 HD
BRANCH  30  33
ATOM     33  S   UNL     1      33.765 -15.616 -24.488  0.00  0.00    +0.058 S 
ATOM     34  O   UNL     1      34.783 -15.203 -25.433  0.00  0.00    -0.154 OA
ATOM     35  O   UNL     1      32.686 -16.496 -24.892  0.00  0.00    -0.154 OA
ATOM     36  C   UNL     1      33.031 -14.152 -23.801  0.00  0.00    +0.200 C 
ENDBRANCH  30  33
ENDBRANCH  28  31
ENDBRANCH  27  28
ENDBRANCH  26  27
ENDBRANCH  25  26
ENDBRANCH  24  25
ENDBRANCH  23  24
ENDBRANCH   1  23
TORSDOF 11
ENDMDL
MODEL 6
REMARK VINA RESULT:      -8.5      7.121     15.056
REMARK  Name = 9913767
REMARK  11 active torsions:
REMARK  status: ('A' for Active; 'I' for Inactive)
REMARK    1  A    between atoms: N_1  and  C_20
REMARK    2  A    between atoms: N_1  and  C_23
REMARK    3  A    between atoms: C_6  and  C_8
REMARK    4  A    between atoms: C_7  and  C_14
REMARK    5  A    between atoms: C_23  and  C_24
REMARK    6  A    between atoms: C_24  and  C_25
REMARK    7  A    between atoms: C_25  and  C_26
REMARK    8  A    between atoms: C_26  and  O_27
REMARK    9  A    between atoms: O_27  and  C_28
REMARK   10  A    between atoms: C_28  and  C_31
REMARK   11  A    between atoms: N_30  and  S_33
REMARK                            x       y       z     vdW  Elec       q    Type
REMARK                         _______ _______ _______ _____ _____    ______ ____
ROOT
ATOM      1  N   UNL     1      34.623 -21.814 -17.974  0.00  0.00    -0.287 N 
ATOM      2  N   UNL     1      35.975 -22.965 -16.393  0.00  0.00    -0.388 NA
ATOM      3  N   UNL     1      34.245 -22.097 -14.364  0.00  0.00    -0.259 NA
ATOM      4  C   UNL     1      34.899 -22.198 -16.654  0.00  0.00    +0.185 C 
ATOM      5  C   UNL     1      34.049 -21.771 -15.658  0.00  0.00    +0.200 C 
ATOM      6  C   UNL     1      36.172 -23.290 -15.100  0.00  0.00    +0.150 C 
ATOM      7  C   UNL     1      35.322 -22.864 -14.103  0.00  0.00    +0.106 C 
ENDROOT
BRANCH   6   8
ATOM      8  C   UNL     1      37.333 -24.114 -14.856  0.00  0.00    +0.031 C 
ATOM      9  C   UNL     1      37.177 -25.441 -14.457  0.00  0.00    +0.003 C 
ATOM     10  C   UNL     1      38.613 -23.582 -15.020  0.00  0.00    +0.003 C 
ATOM     11  C   UNL     1      38.299 -26.236 -14.222  0.00  0.00    +0.000 C 
ATOM     12  C   UNL     1      39.735 -24.376 -14.786  0.00  0.00    +0.000 C 
ATOM     13  C   UNL     1      39.578 -25.704 -14.386  0.00  0.00    +0.000 C 
ENDBRANCH   6   8
BRANCH   7  14
ATOM     14  C   UNL     1      35.501 -23.194 -12.708  0.00  0.00    +0.020 C 
ATOM     15  C   UNL     1      36.535 -22.604 -11.980  0.00  0.00    +0.002 C 
ATOM     16  C   UNL     1      34.641 -24.102 -12.089  0.00  0.00    +0.002 C 
ATOM     17  C   UNL     1      36.709 -22.923 -10.633  0.00  0.00    +0.000 C 
ATOM     18  C   UNL     1      34.815 -24.420 -10.742  0.00  0.00    +0.000 C 
ATOM     19  C   UNL     1      35.849 -23.830 -10.014  0.00  0.00    +0.000 C 
ENDBRANCH   7  14
BRANCH   1  20
ATOM     20  C   UNL     1      33.239 -21.600 -18.399  0.00  0.00    +0.075 C 
ATOM     21  C   UNL     1      33.108 -21.919 -19.882  0.00  0.00    +0.021 C 
ATOM     22  C   UNL     1      32.315 -22.471 -17.559  0.00  0.00    +0.021 C 
ENDBRANCH   1  20
BRANCH   1  23
ATOM     23  C   UNL     1      35.679 -21.635 -18.942  0.00  0.00    +0.093 C 
BRANCH  23  24
ATOM     24  C   UNL     1      36.013 -20.156 -19.119  0.00  0.00    +0.024 C 
BRANCH  24  25
ATOM     25  C   UNL     1      35.541 -19.604 -20.464  0.00  0.00    +0.034 C 
BRANCH  25  26
ATOM     26  C   UNL     1      36.253 -18.305 -20.817  0.00  0.00    +0.143 C 
BRANCH  26  27
ATOM     27  O   UNL     1      35.371 -17.218 -20.573  0.00  0.00    -0.344 OA
BRANCH  27  28
ATOM     28  C   UNL     1      34.750 -16.769 -21.771  0.00  0.00    +0.228 C 
BRANCH  28  31
ATOM     29  O   UNL     1      34.094 -14.832 -20.494  0.00  0.00    -0.271 OA
ATOM     30  N   UNL     1      33.735 -14.794 -22.812  0.00  0.00    -0.187 N 
ATOM     31  C   UNL     1      34.176 -15.384 -21.585  0.00  0.00    +0.271 C 
ATOM     32  H   UNL     1      33.843 -15.326 -23.634  0.00  0.00    +0.176 HD
BRANCH  30  33
ATOM     33  S   UNL     1      33.038 -13.243 -22.968  0.00  0.00    +0.058 S 
ATOM     34  O   UNL     1      31.780 -13.186 -22.249  0.00  0.00    -0.154 OA
ATOM     35  O   UNL     1      34.067 -12.246 -22.746  0.00  0.00    -0.154 OA
ATOM     36  C   UNL     1      32.674 -13.258 -24.706  0.00  0.00    +0.200 C 
ENDBRANCH  30  33
ENDBRANCH  28  31
ENDBRANCH  27  28
ENDBRANCH  26  27
ENDBRANCH  25  26
ENDBRANCH  24  25
ENDBRANCH  23  24
ENDBRANCH   1  23
TORSDOF 11
ENDMDL
MODEL 7
REMARK VINA RESULT:      -8.5      8.593     15.295
REMARK  Name = 9913767
REMARK  11 active torsions:
REMARK  status: ('A' for Active; 'I' for Inactive)
REMARK    1  A    between atoms: N_1  and  C_20
REMARK    2  A    between atoms: N_1  and  C_23
REMARK    3  A    between atoms: C_6  and  C_8
REMARK    4  A    between atoms: C_7  and  C_14
REMARK    5  A    between atoms: C_23  and  C_24
REMARK    6  A    between atoms: C_24  and  C_25
REMARK    7  A    between atoms: C_25  and  C_26
REMARK    8  A    between atoms: C_26  and  O_27
REMARK    9  A    between atoms: O_27  and  C_28
REMARK   10  A    between atoms: C_28  and  C_31
REMARK   11  A    between atoms: N_30  and  S_33
REMARK                            x       y       z     vdW  Elec       q    Type
REMARK                         _______ _______ _______ _____ _____    ______ ____
ROOT
ATOM      1  N   UNL     1      30.634 -23.165 -14.952  0.00  0.00    -0.287 N 
ATOM      2  N   UNL     1      33.001 -22.946 -14.980  0.00  0.00    -0.388 NA
ATOM      3  N   UNL     1      33.095 -24.234 -12.491  0.00  0.00    -0.259 NA
ATOM      4  C   UNL     1      31.886 -23.368 -14.354  0.00  0.00    +0.185 C 
ATOM      5  C   UNL     1      31.931 -24.001 -13.131  0.00  0.00    +0.200 C 
ATOM      6  C   UNL     1      34.164 -23.178 -14.340  0.00  0.00    +0.150 C 
ATOM      7  C   UNL     1      34.210 -23.811 -13.117  0.00  0.00    +0.106 C 
ENDROOT
BRANCH   6   8
ATOM      8  C   UNL     1      35.340 -22.714 -15.040  0.00  0.00    +0.031 C 
ATOM      9  C   UNL     1      36.526 -23.445 -14.975  0.00  0.00    +0.003 C 
ATOM     10  C   UNL     1      35.289 -21.533 -15.782  0.00  0.00    +0.003 C 
ATOM     11  C   UNL     1      37.660 -22.996 -15.651  0.00  0.00    +0.000 C 
ATOM     12  C   UNL     1      36.423 -21.084 -16.458  0.00  0.00    +0.000 C 
ATOM     13  C   UNL     1      37.609 -21.816 -16.392  0.00  0.00    +0.000 C 
ENDBRANCH   6   8
BRANCH   7  14
ATOM     14  C   UNL     1      35.438 -24.078 -12.404  0.00  0.00    +0.020 C 
ATOM     15  C   UNL     1      35.965 -23.116 -11.541  0.00  0.00    +0.002 C 
ATOM     16  C   UNL     1      36.096 -25.296 -12.576  0.00  0.00    +0.002 C 
ATOM     17  C   UNL     1      37.151 -23.372 -10.852  0.00  0.00    +0.000 C 
ATOM     18  C   UNL     1      37.281 -25.552 -11.888  0.00  0.00    +0.000 C 
ATOM     19  C   UNL     1      37.808 -24.590 -11.025  0.00  0.00    +0.000 C 
ENDBRANCH   7  14
BRANCH   1  20
ATOM     20  C   UNL     1      29.545 -24.114 -14.712  0.00  0.00    +0.075 C 
ATOM     21  C   UNL     1      28.217 -23.467 -15.078  0.00  0.00    +0.021 C 
ATOM     22  C   UNL     1      29.792 -25.377 -15.527  0.00  0.00    +0.021 C 
ENDBRANCH   1  20
BRANCH   1  23
ATOM     23  C   UNL     1      30.389 -22.038 -15.820  0.00  0.00    +0.093 C 
BRANCH  23  24
ATOM     24  C   UNL     1      30.748 -22.372 -17.265  0.00  0.00    +0.024 C 
BRANCH  24  25
ATOM     25  C   UNL     1      32.102 -21.797 -17.682  0.00  0.00    +0.034 C 
BRANCH  25  26
ATOM     26  C   UNL     1      33.024 -22.876 -18.231  0.00  0.00    +0.143 C 
BRANCH  26  27
ATOM     27  O   UNL     1      34.080 -22.255 -18.952  0.00  0.00    -0.344 OA
BRANCH  27  28
ATOM     28  C   UNL     1      33.594 -21.241 -19.820  0.00  0.00    +0.228 C 
BRANCH  28  31
ATOM     29  O   UNL     1      35.711 -20.154 -19.431  0.00  0.00    -0.271 OA
ATOM     30  N   UNL     1      34.257 -19.197 -21.004  0.00  0.00    -0.187 N 
ATOM     31  C   UNL     1      34.645 -20.176 -20.034  0.00  0.00    +0.271 C 
ATOM     32  H   UNL     1      33.375 -19.305 -21.427  0.00  0.00    +0.176 HD
BRANCH  30  33
ATOM     33  S   UNL     1      35.201 -17.859 -21.488  0.00  0.00    +0.058 S 
ATOM     34  O   UNL     1      35.034 -16.765 -20.552  0.00  0.00    -0.154 OA
ATOM     35  O   UNL     1      36.522 -18.330 -21.854  0.00  0.00    -0.154 OA
ATOM     36  C   UNL     1      34.353 -17.429 -22.988  0.00  0.00    +0.200 C 
ENDBRANCH  30  33
ENDBRANCH  28  31
ENDBRANCH  27  28
ENDBRANCH  26  27
ENDBRANCH  25  26
ENDBRANCH  24  25
ENDBRANCH  23  24
ENDBRANCH   1  23
TORSDOF 11
ENDMDL
MODEL 8
REMARK VINA RESULT:      -8.4     11.704     15.324
REMARK  Name = 9913767
REMARK  11 active torsions:
REMARK  status: ('A' for Active; 'I' for Inactive)
REMARK    1  A    between atoms: N_1  and  C_20
REMARK    2  A    between atoms: N_1  and  C_23
REMARK    3  A    between atoms: C_6  and  C_8
REMARK    4  A    between atoms: C_7  and  C_14
REMARK    5  A    between atoms: C_23  and  C_24
REMARK    6  A    between atoms: C_24  and  C_25
REMARK    7  A    between atoms: C_25  and  C_26
REMARK    8  A    between atoms: C_26  and  O_27
REMARK    9  A    between atoms: O_27  and  C_28
REMARK   10  A    between atoms: C_28  and  C_31
REMARK   11  A    between atoms: N_30  and  S_33
REMARK                            x       y       z     vdW  Elec       q    Type
REMARK                         _______ _______ _______ _____ _____    ______ ____
ROOT
ATOM      1  N   UNL     1      30.973 -23.807 -14.830  0.00  0.00    -0.287 N 
ATOM      2  N   UNL     1      33.039 -22.939 -15.624  0.00  0.00    -0.388 NA
ATOM      3  N   UNL     1      31.746 -22.179 -17.993  0.00  0.00    -0.259 NA
ATOM      4  C   UNL     1      31.727 -23.170 -15.825  0.00  0.00    +0.185 C 
ATOM      5  C   UNL     1      31.091 -22.797 -16.989  0.00  0.00    +0.200 C 
ATOM      6  C   UNL     1      33.694 -22.323 -16.628  0.00  0.00    +0.150 C 
ATOM      7  C   UNL     1      33.058 -21.950 -17.792  0.00  0.00    +0.106 C 
ENDROOT
BRANCH   6   8
ATOM      8  C   UNL     1      35.097 -22.091 -16.379  0.00  0.00    +0.031 C 
ATOM      9  C   UNL     1      35.696 -20.905 -16.805  0.00  0.00    +0.003 C 
ATOM     10  C   UNL     1      35.856 -23.053 -15.711  0.00  0.00    +0.003 C 
ATOM     11  C   UNL     1      37.051 -20.681 -16.563  0.00  0.00    +0.000 C 
ATOM     12  C   UNL     1      37.211 -22.829 -15.469  0.00  0.00    +0.000 C 
ATOM     13  C   UNL     1      37.809 -21.644 -15.896  0.00  0.00    +0.000 C 
ENDBRANCH   6   8
BRANCH   7  14
ATOM     14  C   UNL     1      33.727 -21.287 -18.887  0.00  0.00    +0.020 C 
ATOM     15  C   UNL     1      33.076 -20.272 -19.589  0.00  0.00    +0.002 C 
ATOM     16  C   UNL     1      35.024 -21.659 -19.242  0.00  0.00    +0.002 C 
ATOM     17  C   UNL     1      33.721 -19.631 -20.647  0.00  0.00    +0.000 C 
ATOM     18  C   UNL     1      35.669 -21.018 -20.299  0.00  0.00    +0.000 C 
ATOM     19  C   UNL     1      35.018 -20.003 -21.002  0.00  0.00    +0.000 C 
ENDBRANCH   7  14
BRANCH   1  20
ATOM     20  C   UNL     1      29.550 -23.498 -14.679  0.00  0.00    +0.075 C 
ATOM     21  C   UNL     1      28.849 -24.657 -13.983  0.00  0.00    +0.021 C 
ATOM     22  C   UNL     1      29.399 -22.203 -13.891  0.00  0.00    +0.021 C 
ENDBRANCH   1  20
BRANCH   1  23
ATOM     23  C   UNL     1      31.571 -24.763 -13.929  0.00  0.00    +0.093 C 
BRANCH  23  24
ATOM     24  C   UNL     1      32.336 -24.058 -12.812  0.00  0.00    +0.024 C 
BRANCH  24  25
ATOM     25  C   UNL     1      33.840 -24.331 -12.867  0.00  0.00    +0.034 C 
BRANCH  25  26
ATOM     26  C   UNL     1      34.621 -23.333 -12.023  0.00  0.00    +0.143 C 
BRANCH  26  27
ATOM     27  O   UNL     1      35.370 -24.043 -11.047  0.00  0.00    -0.344 OA
BRANCH  27  28
ATOM     28  C   UNL     1      36.768 -23.845 -11.214  0.00  0.00    +0.228 C 
BRANCH  28  31
ATOM     29  O   UNL     1      37.078 -26.187 -11.698  0.00  0.00    -0.271 OA
ATOM     30  N   UNL     1      38.381 -24.637 -12.883  0.00  0.00    -0.187 N 
ATOM     31  C   UNL     1      37.390 -25.024 -11.926  0.00  0.00    +0.271 C 
ATOM     32  H   UNL     1      38.559 -23.675 -12.986  0.00  0.00    +0.176 HD
BRANCH  30  33
ATOM     33  S   UNL     1      39.279 -25.711 -13.863  0.00  0.00    +0.058 S 
ATOM     34  O   UNL     1      40.417 -26.226 -13.126  0.00  0.00    -0.154 OA
ATOM     35  O   UNL     1      38.359 -26.606 -14.535  0.00  0.00    -0.154 OA
ATOM     36  C   UNL     1      39.888 -24.562 -15.073  0.00  0.00    +0.200 C 
ENDBRANCH  30  33
ENDBRANCH  28  31
ENDBRANCH  27  28
ENDBRANCH  26  27
ENDBRANCH  25  26
ENDBRANCH  24  25
ENDBRANCH  23  24
ENDBRANCH   1  23
TORSDOF 11
ENDMDL
MODEL 9
REMARK VINA RESULT:      -7.8      6.646     14.491
REMARK  Name = 9913767
REMARK  11 active torsions:
REMARK  status: ('A' for Active; 'I' for Inactive)
REMARK    1  A    between atoms: N_1  and  C_20
REMARK    2  A    between atoms: N_1  and  C_23
REMARK    3  A    between atoms: C_6  and  C_8
REMARK    4  A    between atoms: C_7  and  C_14
REMARK    5  A    between atoms: C_23  and  C_24
REMARK    6  A    between atoms: C_24  and  C_25
REMARK    7  A    between atoms: C_25  and  C_26
REMARK    8  A    between atoms: C_26  and  O_27
REMARK    9  A    between atoms: O_27  and  C_28
REMARK   10  A    between atoms: C_28  and  C_31
REMARK   11  A    between atoms: N_30  and  S_33
REMARK                            x       y       z     vdW  Elec       q    Type
REMARK                         _______ _______ _______ _____ _____    ______ ____
ROOT
ATOM      1  N   UNL     1      34.561 -21.581 -18.635  0.00  0.00    -0.287 N 
ATOM      2  N   UNL     1      34.498 -22.581 -16.479  0.00  0.00    -0.388 NA
ATOM      3  N   UNL     1      31.697 -22.477 -16.574  0.00  0.00    -0.259 NA
ATOM      4  C   UNL     1      33.839 -22.074 -17.539  0.00  0.00    +0.185 C 
ATOM      5  C   UNL     1      32.463 -22.023 -17.586  0.00  0.00    +0.200 C 
ATOM      6  C   UNL     1      33.732 -23.034 -15.466  0.00  0.00    +0.150 C 
ATOM      7  C   UNL     1      32.356 -22.983 -15.513  0.00  0.00    +0.106 C 
ENDROOT
BRANCH   6   8
ATOM      8  C   UNL     1      34.471 -23.571 -14.347  0.00  0.00    +0.031 C 
ATOM      9  C   UNL     1      34.335 -22.999 -13.082  0.00  0.00    +0.003 C 
ATOM     10  C   UNL     1      35.319 -24.663 -14.530  0.00  0.00    +0.003 C 
ATOM     11  C   UNL     1      35.048 -23.518 -12.001  0.00  0.00    +0.000 C 
ATOM     12  C   UNL     1      36.032 -25.182 -13.450  0.00  0.00    +0.000 C 
ATOM     13  C   UNL     1      35.896 -24.609 -12.185  0.00  0.00    +0.000 C 
ENDBRANCH   6   8
BRANCH   7  14
ATOM     14  C   UNL     1      31.505 -23.460 -14.448  0.00  0.00    +0.020 C 
ATOM     15  C   UNL     1      31.258 -22.651 -13.338  0.00  0.00    +0.002 C 
ATOM     16  C   UNL     1      30.930 -24.729 -14.528  0.00  0.00    +0.002 C 
ATOM     17  C   UNL     1      30.436 -23.111 -12.309  0.00  0.00    +0.000 C 
ATOM     18  C   UNL     1      30.109 -25.188 -13.499  0.00  0.00    +0.000 C 
ATOM     19  C   UNL     1      29.861 -24.379 -12.390  0.00  0.00    +0.000 C 
ENDBRANCH   7  14
BRANCH   1  20
ATOM     20  C   UNL     1      33.990 -21.656 -19.981  0.00  0.00    +0.075 C 
ATOM     21  C   UNL     1      33.509 -23.075 -20.250  0.00  0.00    +0.021 C 
ATOM     22  C   UNL     1      32.853 -20.650 -20.101  0.00  0.00    +0.021 C 
ENDBRANCH   1  20
BRANCH   1  23
ATOM     23  C   UNL     1      35.875 -21.005 -18.473  0.00  0.00    +0.093 C 
BRANCH  23  24
ATOM     24  C   UNL     1      36.411 -20.484 -19.803  0.00  0.00    +0.024 C 
BRANCH  24  25
ATOM     25  C   UNL     1      36.368 -18.959 -19.898  0.00  0.00    +0.034 C 
BRANCH  25  26
ATOM     26  C   UNL     1      35.732 -18.496 -21.202  0.00  0.00    +0.143 C 
BRANCH  26  27
ATOM     27  O   UNL     1      35.075 -17.257 -20.978  0.00  0.00    -0.344 OA
BRANCH  27  28
ATOM     28  C   UNL     1      34.745 -16.612 -22.202  0.00  0.00    +0.228 C 
BRANCH  28  31
ATOM     29  O   UNL     1      34.204 -14.699 -20.838  0.00  0.00    -0.271 OA
ATOM     30  N   UNL     1      33.648 -14.618 -23.115  0.00  0.00    -0.187 N 
ATOM     31  C   UNL     1      34.191 -15.230 -21.942  0.00  0.00    +0.271 C 
ATOM     32  H   UNL     1      33.684 -15.134 -23.953  0.00  0.00    +0.176 HD
BRANCH  30  33
ATOM     33  S   UNL     1      32.942 -13.063 -23.182  0.00  0.00    +0.058 S 
ATOM     34  O   UNL     1      31.656 -13.070 -22.512  0.00  0.00    -0.154 OA
ATOM     35  O   UNL     1      33.953 -12.080 -22.845  0.00  0.00    -0.154 OA
ATOM     36  C   UNL     1      32.647 -12.950 -24.929  0.00  0.00    +0.200 C 
ENDBRANCH  30  33
ENDBRANCH  28  31
ENDBRANCH  27  28
ENDBRANCH  26  27
ENDBRANCH  25  26
ENDBRANCH  24  25
ENDBRANCH  23  24
ENDBRANCH   1  23
TORSDOF 11
ENDMDL
