MODEL 1
REMARK VINA RESULT:     -11.4      0.000      0.000
REMARK  Name = 9064
REMARK  6 active torsions:
REMARK  status: ('A' for Active; 'I' for Inactive)
REMARK    1  A    between atoms: C_2  and  O_21
REMARK    2  A    between atoms: C_3  and  C_11
REMARK    3  A    between atoms: C_7  and  O_23
REMARK    4  A    between atoms: C_10  and  O_25
REMARK    5  A    between atoms: C_14  and  O_17
REMARK    6  A    between atoms: C_16  and  O_19
REMARK                            x       y       z     vdW  Elec       q    Type
REMARK                         _______ _______ _______ _____ _____    ______ ____
ROOT
ATOM      1  O   UNL     1      33.619 -19.063 -20.764  0.00  0.00    -0.472 OA
ATOM      2  C   UNL     1      36.047 -19.002 -21.195  0.00  0.00    +0.159 C 
ATOM      3  C   UNL     1      34.745 -18.207 -21.014  0.00  0.00    +0.215 C 
ATOM      4  C   UNL     1      36.330 -19.801 -19.927  0.00  0.00    +0.066 C 
ATOM      5  C   UNL     1      35.089 -20.476 -19.425  0.00  0.00    +0.048 C 
ATOM      6  C   UNL     1      33.823 -20.067 -19.857  0.00  0.00    +0.141 C 
ATOM      7  C   UNL     1      35.188 -21.514 -18.489  0.00  0.00    +0.136 C 
ATOM      8  C   UNL     1      32.676 -20.713 -19.388  0.00  0.00    +0.073 C 
ATOM      9  C   UNL     1      34.042 -22.150 -18.013  0.00  0.00    +0.073 C 
ATOM     10  C   UNL     1      32.786 -21.753 -18.465  0.00  0.00    +0.140 C 
ENDROOT
BRANCH   3  11
ATOM     11  C   UNL     1      34.412 -17.380 -22.242  0.00  0.00    +0.023 C 
ATOM     12  C   UNL     1      34.505 -15.991 -22.187  0.00  0.00    +0.039 C 
ATOM     13  C   UNL     1      34.015 -18.012 -23.419  0.00  0.00    +0.003 C 
ATOM     14  C   UNL     1      34.198 -15.229 -23.316  0.00  0.00    +0.167 C 
ATOM     15  C   UNL     1      33.709 -17.250 -24.547  0.00  0.00    +0.040 C 
ATOM     16  C   UNL     1      33.801 -15.859 -24.495  0.00  0.00    +0.167 C 
BRANCH  14  17
ATOM     17  O   UNL     1      34.293 -13.872 -23.254  0.00  0.00    -0.503 OA
ATOM     18  H   UNL     1      33.821 -13.399 -22.597  0.00  0.00    +0.292 HD
ENDBRANCH  14  17
BRANCH  16  19
ATOM     19  O   UNL     1      33.501 -15.127 -25.604  0.00  0.00    -0.503 OA
ATOM     20  H   UNL     1      33.618 -15.498 -26.456  0.00  0.00    +0.292 HD
ENDBRANCH  16  19
ENDBRANCH   3  11
BRANCH   2  21
ATOM     21  O   UNL     1      37.131 -18.109 -21.425  0.00  0.00    -0.380 OA
ATOM     22  H   UNL     1      37.438 -17.748 -20.577  0.00  0.00    +0.211 HD
ENDBRANCH   2  21
BRANCH   7  23
ATOM     23  O   UNL     1      36.404 -21.924 -18.025  0.00  0.00    -0.506 OA
ATOM     24  H   UNL     1      37.190 -21.590 -18.410  0.00  0.00    +0.292 HD
ENDBRANCH   7  23
BRANCH  10  25
ATOM     25  O   UNL     1      31.668 -22.376 -18.004  0.00  0.00    -0.505 OA
ATOM     26  H   UNL     1      31.113 -21.943 -17.385  0.00  0.00    +0.292 HD
ENDBRANCH  10  25
TORSDOF 6
ENDMDL
MODEL 2
REMARK VINA RESULT:     -10.8      0.644      1.480
REMARK  Name = 9064
REMARK  6 active torsions:
REMARK  status: ('A' for Active; 'I' for Inactive)
REMARK    1  A    between atoms: C_2  and  O_21
REMARK    2  A    between atoms: C_3  and  C_11
REMARK    3  A    between atoms: C_7  and  O_23
REMARK    4  A    between atoms: C_10  and  O_25
REMARK    5  A    between atoms: C_14  and  O_17
REMARK    6  A    between atoms: C_16  and  O_19
REMARK                            x       y       z     vdW  Elec       q    Type
REMARK                         _______ _______ _______ _____ _____    ______ ____
ROOT
ATOM      1  O   UNL     1      33.605 -19.100 -20.742  0.00  0.00    -0.472 OA
ATOM      2  C   UNL     1      36.029 -19.027 -21.195  0.00  0.00    +0.159 C 
ATOM      3  C   UNL     1      34.724 -18.240 -21.007  0.00  0.00    +0.215 C 
ATOM      4  C   UNL     1      36.328 -19.817 -19.924  0.00  0.00    +0.066 C 
ATOM      5  C   UNL     1      35.095 -20.496 -19.407  0.00  0.00    +0.048 C 
ATOM      6  C   UNL     1      33.823 -20.098 -19.831  0.00  0.00    +0.141 C 
ATOM      7  C   UNL     1      35.209 -21.528 -18.465  0.00  0.00    +0.136 C 
ATOM      8  C   UNL     1      32.684 -20.747 -19.347  0.00  0.00    +0.073 C 
ATOM      9  C   UNL     1      34.071 -22.168 -17.976  0.00  0.00    +0.073 C 
ATOM     10  C   UNL     1      32.809 -21.781 -18.420  0.00  0.00    +0.140 C 
ENDROOT
BRANCH   3  11
ATOM     11  C   UNL     1      34.375 -17.422 -22.237  0.00  0.00    +0.023 C 
ATOM     12  C   UNL     1      33.645 -18.003 -23.272  0.00  0.00    +0.039 C 
ATOM     13  C   UNL     1      34.787 -16.094 -22.328  0.00  0.00    +0.003 C 
ATOM     14  C   UNL     1      33.324 -17.252 -24.403  0.00  0.00    +0.167 C 
ATOM     15  C   UNL     1      34.467 -15.343 -23.459  0.00  0.00    +0.040 C 
ATOM     16  C   UNL     1      33.735 -15.922 -24.496  0.00  0.00    +0.167 C 
BRANCH  14  17
ATOM     17  O   UNL     1      32.608 -17.827 -25.408  0.00  0.00    -0.503 OA
ATOM     18  H   UNL     1      33.049 -18.167 -26.162  0.00  0.00    +0.292 HD
ENDBRANCH  14  17
BRANCH  16  19
ATOM     19  O   UNL     1      33.427 -15.178 -25.595  0.00  0.00    -0.503 OA
ATOM     20  H   UNL     1      33.007 -15.580 -26.330  0.00  0.00    +0.292 HD
ENDBRANCH  16  19
ENDBRANCH   3  11
BRANCH   2  21
ATOM     21  O   UNL     1      37.106 -18.129 -21.439  0.00  0.00    -0.380 OA
ATOM     22  H   UNL     1      36.884 -17.253 -21.086  0.00  0.00    +0.211 HD
ENDBRANCH   2  21
BRANCH   7  23
ATOM     23  O   UNL     1      36.432 -21.928 -18.010  0.00  0.00    -0.506 OA
ATOM     24  H   UNL     1      36.514 -22.727 -17.529  0.00  0.00    +0.292 HD
ENDBRANCH   7  23
BRANCH  10  25
ATOM     25  O   UNL     1      31.698 -22.408 -17.945  0.00  0.00    -0.505 OA
ATOM     26  H   UNL     1      31.314 -22.130 -17.137  0.00  0.00    +0.292 HD
ENDBRANCH  10  25
TORSDOF 6
ENDMDL
MODEL 3
REMARK VINA RESULT:     -10.6      1.664      3.491
REMARK  Name = 9064
REMARK  6 active torsions:
REMARK  status: ('A' for Active; 'I' for Inactive)
REMARK    1  A    between atoms: C_2  and  O_21
REMARK    2  A    between atoms: C_3  and  C_11
REMARK    3  A    between atoms: C_7  and  O_23
REMARK    4  A    between atoms: C_10  and  O_25
REMARK    5  A    between atoms: C_14  and  O_17
REMARK    6  A    between atoms: C_16  and  O_19
REMARK                            x       y       z     vdW  Elec       q    Type
REMARK                         _______ _______ _______ _____ _____    ______ ____
ROOT
ATOM      1  O   UNL     1      35.312 -20.198 -19.486  0.00  0.00    -0.472 OA
ATOM      2  C   UNL     1      32.855 -20.311 -19.683  0.00  0.00    +0.159 C 
ATOM      3  C   UNL     1      34.211 -20.284 -20.404  0.00  0.00    +0.215 C 
ATOM      4  C   UNL     1      32.800 -21.524 -18.760  0.00  0.00    +0.066 C 
ATOM      5  C   UNL     1      34.076 -21.676 -17.989  0.00  0.00    +0.048 C 
ATOM      6  C   UNL     1      35.245 -21.024 -18.396  0.00  0.00    +0.141 C 
ATOM      7  C   UNL     1      34.115 -22.504 -16.859  0.00  0.00    +0.136 C 
ATOM      8  C   UNL     1      36.424 -21.168 -17.661  0.00  0.00    +0.073 C 
ATOM      9  C   UNL     1      35.295 -22.655 -16.133  0.00  0.00    +0.073 C 
ATOM     10  C   UNL     1      36.449 -21.984 -16.530  0.00  0.00    +0.140 C 
ENDROOT
BRANCH   3  11
ATOM     11  C   UNL     1      34.326 -19.102 -21.349  0.00  0.00    +0.023 C 
ATOM     12  C   UNL     1      33.810 -19.194 -22.640  0.00  0.00    +0.039 C 
ATOM     13  C   UNL     1      34.948 -17.930 -20.923  0.00  0.00    +0.003 C 
ATOM     14  C   UNL     1      33.916 -18.107 -23.509  0.00  0.00    +0.167 C 
ATOM     15  C   UNL     1      35.053 -16.844 -21.791  0.00  0.00    +0.040 C 
ATOM     16  C   UNL     1      34.537 -16.932 -23.084  0.00  0.00    +0.167 C 
BRANCH  14  17
ATOM     17  O   UNL     1      33.407 -18.204 -24.768  0.00  0.00    -0.503 OA
ATOM     18  H   UNL     1      32.554 -18.569 -24.902  0.00  0.00    +0.292 HD
ENDBRANCH  14  17
BRANCH  16  19
ATOM     19  O   UNL     1      34.645 -15.864 -23.923  0.00  0.00    -0.503 OA
ATOM     20  H   UNL     1      35.464 -15.417 -24.009  0.00  0.00    +0.292 HD
ENDBRANCH  16  19
ENDBRANCH   3  11
BRANCH   2  21
ATOM     21  O   UNL     1      31.802 -20.411 -20.635  0.00  0.00    -0.380 OA
ATOM     22  H   UNL     1      31.499 -19.522 -20.878  0.00  0.00    +0.211 HD
ENDBRANCH   2  21
BRANCH   7  23
ATOM     23  O   UNL     1      33.002 -23.176 -16.445  0.00  0.00    -0.506 OA
ATOM     24  H   UNL     1      32.660 -23.880 -16.961  0.00  0.00    +0.292 HD
ENDBRANCH   7  23
BRANCH  10  25
ATOM     25  O   UNL     1      37.601 -22.128 -15.820  0.00  0.00    -0.505 OA
ATOM     26  H   UNL     1      37.582 -22.084 -14.884  0.00  0.00    +0.292 HD
ENDBRANCH  10  25
TORSDOF 6
ENDMDL
MODEL 4
REMARK VINA RESULT:     -10.4      2.109      4.304
REMARK  Name = 9064
REMARK  6 active torsions:
REMARK  status: ('A' for Active; 'I' for Inactive)
REMARK    1  A    between atoms: C_2  and  O_21
REMARK    2  A    between atoms: C_3  and  C_11
REMARK    3  A    between atoms: C_7  and  O_23
REMARK    4  A    between atoms: C_10  and  O_25
REMARK    5  A    between atoms: C_14  and  O_17
REMARK    6  A    between atoms: C_16  and  O_19
REMARK                            x       y       z     vdW  Elec       q    Type
REMARK                         _______ _______ _______ _____ _____    ______ ____
ROOT
ATOM      1  O   UNL     1      35.593 -20.984 -18.313  0.00  0.00    -0.472 OA
ATOM      2  C   UNL     1      33.176 -21.218 -18.749  0.00  0.00    +0.159 C 
ATOM      3  C   UNL     1      34.599 -21.188 -19.329  0.00  0.00    +0.215 C 
ATOM      4  C   UNL     1      33.067 -22.358 -17.741  0.00  0.00    +0.066 C 
ATOM      5  C   UNL     1      34.260 -22.394 -16.834  0.00  0.00    +0.048 C 
ATOM      6  C   UNL     1      35.441 -21.725 -17.172  0.00  0.00    +0.141 C 
ATOM      7  C   UNL     1      34.209 -23.129 -15.642  0.00  0.00    +0.136 C 
ATOM      8  C   UNL     1      36.541 -21.760 -16.311  0.00  0.00    +0.073 C 
ATOM      9  C   UNL     1      35.311 -23.172 -14.789  0.00  0.00    +0.073 C 
ATOM     10  C   UNL     1      36.476 -22.484 -15.121  0.00  0.00    +0.140 C 
ENDROOT
BRANCH   3  11
ATOM     11  C   UNL     1      34.770 -20.079 -20.350  0.00  0.00    +0.023 C 
ATOM     12  C   UNL     1      36.017 -19.479 -20.518  0.00  0.00    +0.039 C 
ATOM     13  C   UNL     1      33.682 -19.664 -21.115  0.00  0.00    +0.003 C 
ATOM     14  C   UNL     1      36.175 -18.459 -21.457  0.00  0.00    +0.167 C 
ATOM     15  C   UNL     1      33.841 -18.645 -22.053  0.00  0.00    +0.040 C 
ATOM     16  C   UNL     1      35.087 -18.042 -22.224  0.00  0.00    +0.167 C 
BRANCH  14  17
ATOM     17  O   UNL     1      37.397 -17.879 -21.616  0.00  0.00    -0.503 OA
ATOM     18  H   UNL     1      37.714 -17.682 -22.475  0.00  0.00    +0.292 HD
ENDBRANCH  14  17
BRANCH  16  19
ATOM     19  O   UNL     1      35.230 -17.048 -23.145  0.00  0.00    -0.503 OA
ATOM     20  H   UNL     1      35.008 -17.205 -24.042  0.00  0.00    +0.292 HD
ENDBRANCH  16  19
ENDBRANCH   3  11
BRANCH   2  21
ATOM     21  O   UNL     1      32.233 -21.438 -19.792  0.00  0.00    -0.380 OA
ATOM     22  H   UNL     1      32.119 -22.392 -19.931  0.00  0.00    +0.211 HD
ENDBRANCH   2  21
BRANCH   7  23
ATOM     23  O   UNL     1      33.083 -23.815 -15.290  0.00  0.00    -0.506 OA
ATOM     24  H   UNL     1      32.323 -23.779 -15.836  0.00  0.00    +0.292 HD
ENDBRANCH   7  23
BRANCH  10  25
ATOM     25  O   UNL     1      37.551 -22.523 -14.288  0.00  0.00    -0.505 OA
ATOM     26  H   UNL     1      38.412 -22.638 -14.640  0.00  0.00    +0.292 HD
ENDBRANCH  10  25
TORSDOF 6
ENDMDL
MODEL 5
REMARK VINA RESULT:      -9.7      3.808      6.876
REMARK  Name = 9064
REMARK  6 active torsions:
REMARK  status: ('A' for Active; 'I' for Inactive)
REMARK    1  A    between atoms: C_2  and  O_21
REMARK    2  A    between atoms: C_3  and  C_11
REMARK    3  A    between atoms: C_7  and  O_23
REMARK    4  A    between atoms: C_10  and  O_25
REMARK    5  A    between atoms: C_14  and  O_17
REMARK    6  A    between atoms: C_16  and  O_19
REMARK                            x       y       z     vdW  Elec       q    Type
REMARK                         _______ _______ _______ _____ _____    ______ ____
ROOT
ATOM      1  O   UNL     1      33.649 -13.638 -22.250  0.00  0.00    -0.472 OA
ATOM      2  C   UNL     1      32.482 -13.597 -24.423  0.00  0.00    +0.159 C 
ATOM      3  C   UNL     1      33.371 -12.850 -23.418  0.00  0.00    +0.215 C 
ATOM      4  C   UNL     1      33.190 -14.873 -24.870  0.00  0.00    +0.066 C 
ATOM      5  C   UNL     1      33.791 -15.594 -23.701  0.00  0.00    +0.048 C 
ATOM      6  C   UNL     1      33.995 -14.943 -22.480  0.00  0.00    +0.141 C 
ATOM      7  C   UNL     1      34.185 -16.933 -23.834  0.00  0.00    +0.136 C 
ATOM      8  C   UNL     1      34.547 -15.631 -21.397  0.00  0.00    +0.073 C 
ATOM      9  C   UNL     1      34.746 -17.616 -22.756  0.00  0.00    +0.073 C 
ATOM     10  C   UNL     1      34.924 -16.967 -21.536  0.00  0.00    +0.140 C 
ENDROOT
BRANCH   3  11
ATOM     11  C   UNL     1      32.726 -11.561 -22.942  0.00  0.00    +0.023 C 
ATOM     12  C   UNL     1      33.209 -10.336 -23.395  0.00  0.00    +0.039 C 
ATOM     13  C   UNL     1      31.654 -11.608 -22.053  0.00  0.00    +0.003 C 
ATOM     14  C   UNL     1      32.616  -9.150 -22.958  0.00  0.00    +0.167 C 
ATOM     15  C   UNL     1      31.061 -10.423 -21.616  0.00  0.00    +0.040 C 
ATOM     16  C   UNL     1      31.543  -9.195 -22.068  0.00  0.00    +0.167 C 
BRANCH  14  17
ATOM     17  O   UNL     1      33.094  -7.957 -23.407  0.00  0.00    -0.503 OA
ATOM     18  H   UNL     1      32.532  -7.208 -23.435  0.00  0.00    +0.292 HD
ENDBRANCH  14  17
BRANCH  16  19
ATOM     19  O   UNL     1      30.955  -8.045 -21.635  0.00  0.00    -0.503 OA
ATOM     20  H   UNL     1      30.159  -8.083 -21.141  0.00  0.00    +0.292 HD
ENDBRANCH  16  19
ENDBRANCH   3  11
BRANCH   2  21
ATOM     21  O   UNL     1      32.250 -12.780 -25.565  0.00  0.00    -0.380 OA
ATOM     22  H   UNL     1      31.746 -13.282 -26.226  0.00  0.00    +0.211 HD
ENDBRANCH   2  21
BRANCH   7  23
ATOM     23  O   UNL     1      34.026 -17.595 -25.016  0.00  0.00    -0.506 OA
ATOM     24  H   UNL     1      34.776 -17.901 -25.487  0.00  0.00    +0.292 HD
ENDBRANCH   7  23
BRANCH  10  25
ATOM     25  O   UNL     1      35.469 -17.634 -20.482  0.00  0.00    -0.505 OA
ATOM     26  H   UNL     1      35.336 -17.319 -19.610  0.00  0.00    +0.292 HD
ENDBRANCH  10  25
TORSDOF 6
ENDMDL
MODEL 6
REMARK VINA RESULT:      -9.6      2.731      5.297
REMARK  Name = 9064
REMARK  6 active torsions:
REMARK  status: ('A' for Active; 'I' for Inactive)
REMARK    1  A    between atoms: C_2  and  O_21
REMARK    2  A    between atoms: C_3  and  C_11
REMARK    3  A    between atoms: C_7  and  O_23
REMARK    4  A    between atoms: C_10  and  O_25
REMARK    5  A    between atoms: C_14  and  O_17
REMARK    6  A    between atoms: C_16  and  O_19
REMARK                            x       y       z     vdW  Elec       q    Type
REMARK                         _______ _______ _______ _____ _____    ______ ____
ROOT
ATOM      1  O   UNL     1      34.244 -15.376 -22.195  0.00  0.00    -0.472 OA
ATOM      2  C   UNL     1      33.030 -15.583 -24.333  0.00  0.00    +0.159 C 
ATOM      3  C   UNL     1      33.965 -14.741 -23.453  0.00  0.00    +0.215 C 
ATOM      4  C   UNL     1      33.684 -16.932 -24.617  0.00  0.00    +0.066 C 
ATOM      5  C   UNL     1      34.288 -17.512 -23.374  0.00  0.00    +0.048 C 
ATOM      6  C   UNL     1      34.541 -16.711 -22.255  0.00  0.00    +0.141 C 
ATOM      7  C   UNL     1      34.634 -18.870 -23.334  0.00  0.00    +0.136 C 
ATOM      8  C   UNL     1      35.095 -17.269 -21.100  0.00  0.00    +0.073 C 
ATOM      9  C   UNL     1      35.197 -19.422 -22.184  0.00  0.00    +0.073 C 
ATOM     10  C   UNL     1      35.424 -18.624 -21.066  0.00  0.00    +0.140 C 
ENDROOT
BRANCH   3  11
ATOM     11  C   UNL     1      33.374 -13.378 -23.141  0.00  0.00    +0.023 C 
ATOM     12  C   UNL     1      32.636 -13.193 -21.974  0.00  0.00    +0.039 C 
ATOM     13  C   UNL     1      33.571 -12.318 -24.023  0.00  0.00    +0.003 C 
ATOM     14  C   UNL     1      32.092 -11.940 -21.688  0.00  0.00    +0.167 C 
ATOM     15  C   UNL     1      33.028 -11.065 -23.737  0.00  0.00    +0.040 C 
ATOM     16  C   UNL     1      32.288 -10.877 -22.569  0.00  0.00    +0.167 C 
BRANCH  14  17
ATOM     17  O   UNL     1      31.373 -11.768 -20.544  0.00  0.00    -0.503 OA
ATOM     18  H   UNL     1      31.323 -10.922 -20.145  0.00  0.00    +0.292 HD
ENDBRANCH  14  17
BRANCH  16  19
ATOM     19  O   UNL     1      31.764  -9.649 -22.299  0.00  0.00    -0.503 OA
ATOM     20  H   UNL     1      32.052  -9.172 -21.546  0.00  0.00    +0.292 HD
ENDBRANCH  16  19
ENDBRANCH   3  11
BRANCH   2  21
ATOM     21  O   UNL     1      32.798 -14.917 -25.569  0.00  0.00    -0.380 OA
ATOM     22  H   UNL     1      31.907 -14.532 -25.568  0.00  0.00    +0.211 HD
ENDBRANCH   2  21
BRANCH   7  23
ATOM     23  O   UNL     1      34.426 -19.677 -24.414  0.00  0.00    -0.506 OA
ATOM     24  H   UNL     1      34.641 -20.587 -24.367  0.00  0.00    +0.292 HD
ENDBRANCH   7  23
BRANCH  10  25
ATOM     25  O   UNL     1      35.971 -19.164 -19.943  0.00  0.00    -0.505 OA
ATOM     26  H   UNL     1      35.584 -18.995 -19.106  0.00  0.00    +0.292 HD
ENDBRANCH  10  25
TORSDOF 6
ENDMDL
MODEL 7
REMARK VINA RESULT:      -9.6      3.994      9.601
REMARK  Name = 9064
REMARK  6 active torsions:
REMARK  status: ('A' for Active; 'I' for Inactive)
REMARK    1  A    between atoms: C_2  and  O_21
REMARK    2  A    between atoms: C_3  and  C_11
REMARK    3  A    between atoms: C_7  and  O_23
REMARK    4  A    between atoms: C_10  and  O_25
REMARK    5  A    between atoms: C_14  and  O_17
REMARK    6  A    between atoms: C_16  and  O_19
REMARK                            x       y       z     vdW  Elec       q    Type
REMARK                         _______ _______ _______ _____ _____    ______ ____
ROOT
ATOM      1  O   UNL     1      35.367 -22.307 -16.460  0.00  0.00    -0.472 OA
ATOM      2  C   UNL     1      33.181 -23.419 -16.194  0.00  0.00    +0.159 C 
ATOM      3  C   UNL     1      34.352 -22.690 -15.519  0.00  0.00    +0.215 C 
ATOM      4  C   UNL     1      32.544 -22.499 -17.231  0.00  0.00    +0.066 C 
ATOM      5  C   UNL     1      33.589 -21.809 -18.055  0.00  0.00    +0.048 C 
ATOM      6  C   UNL     1      34.919 -21.743 -17.624  0.00  0.00    +0.141 C 
ATOM      7  C   UNL     1      33.233 -21.195 -19.263  0.00  0.00    +0.136 C 
ATOM      8  C   UNL     1      35.883 -21.105 -18.408  0.00  0.00    +0.073 C 
ATOM      9  C   UNL     1      34.194 -20.549 -20.039  0.00  0.00    +0.073 C 
ATOM     10  C   UNL     1      35.520 -20.508 -19.615  0.00  0.00    +0.140 C 
ENDROOT
BRANCH   3  11
ATOM     11  C   UNL     1      35.023 -23.551 -14.465  0.00  0.00    +0.023 C 
ATOM     12  C   UNL     1      34.538 -23.552 -13.159  0.00  0.00    +0.039 C 
ATOM     13  C   UNL     1      36.121 -24.337 -14.807  0.00  0.00    +0.003 C 
ATOM     14  C   UNL     1      35.155 -24.344 -12.189  0.00  0.00    +0.167 C 
ATOM     15  C   UNL     1      36.738 -25.129 -13.838  0.00  0.00    +0.040 C 
ATOM     16  C   UNL     1      36.254 -25.132 -12.529  0.00  0.00    +0.167 C 
BRANCH  14  17
ATOM     17  O   UNL     1      34.673 -24.340 -10.916  0.00  0.00    -0.503 OA
ATOM     18  H   UNL     1      34.478 -25.149 -10.486  0.00  0.00    +0.292 HD
ENDBRANCH  14  17
BRANCH  16  19
ATOM     19  O   UNL     1      36.864 -25.911 -11.592  0.00  0.00    -0.503 OA
ATOM     20  H   UNL     1      37.328 -25.512 -10.882  0.00  0.00    +0.292 HD
ENDBRANCH  16  19
ENDBRANCH   3  11
BRANCH   2  21
ATOM     21  O   UNL     1      32.199 -23.762 -15.222  0.00  0.00    -0.380 OA
ATOM     22  H   UNL     1      31.624 -24.461 -15.575  0.00  0.00    +0.211 HD
ENDBRANCH   2  21
BRANCH   7  23
ATOM     23  O   UNL     1      31.942 -21.216 -19.705  0.00  0.00    -0.506 OA
ATOM     24  H   UNL     1      31.561 -20.445 -20.078  0.00  0.00    +0.292 HD
ENDBRANCH   7  23
BRANCH  10  25
ATOM     25  O   UNL     1      36.460 -19.880 -20.374  0.00  0.00    -0.505 OA
ATOM     26  H   UNL     1      37.360 -19.900 -20.115  0.00  0.00    +0.292 HD
ENDBRANCH  10  25
TORSDOF 6
ENDMDL
MODEL 8
REMARK VINA RESULT:      -9.5      1.428      7.160
REMARK  Name = 9064
REMARK  6 active torsions:
REMARK  status: ('A' for Active; 'I' for Inactive)
REMARK    1  A    between atoms: C_2  and  O_21
REMARK    2  A    between atoms: C_3  and  C_11
REMARK    3  A    between atoms: C_7  and  O_23
REMARK    4  A    between atoms: C_10  and  O_25
REMARK    5  A    between atoms: C_14  and  O_17
REMARK    6  A    between atoms: C_16  and  O_19
REMARK                            x       y       z     vdW  Elec       q    Type
REMARK                         _______ _______ _______ _____ _____    ______ ____
ROOT
ATOM      1  O   UNL     1      34.244 -16.720 -21.467  0.00  0.00    -0.472 OA
ATOM      2  C   UNL     1      34.454 -18.266 -23.378  0.00  0.00    +0.159 C 
ATOM      3  C   UNL     1      33.938 -18.038 -21.949  0.00  0.00    +0.215 C 
ATOM      4  C   UNL     1      33.803 -17.254 -24.316  0.00  0.00    +0.066 C 
ATOM      5  C   UNL     1      33.805 -15.880 -23.715  0.00  0.00    +0.048 C 
ATOM      6  C   UNL     1      34.011 -15.695 -22.344  0.00  0.00    +0.141 C 
ATOM      7  C   UNL     1      33.571 -14.762 -24.527  0.00  0.00    +0.136 C 
ATOM      8  C   UNL     1      34.020 -14.408 -21.800  0.00  0.00    +0.073 C 
ATOM      9  C   UNL     1      33.570 -13.479 -23.982  0.00  0.00    +0.073 C 
ATOM     10  C   UNL     1      33.798 -13.301 -22.620  0.00  0.00    +0.140 C 
ENDROOT
BRANCH   3  11
ATOM     11  C   UNL     1      34.542 -19.023 -20.965  0.00  0.00    +0.023 C 
ATOM     12  C   UNL     1      33.733 -19.981 -20.359  0.00  0.00    +0.039 C 
ATOM     13  C   UNL     1      35.903 -18.966 -20.672  0.00  0.00    +0.003 C 
ATOM     14  C   UNL     1      34.288 -20.887 -19.454  0.00  0.00    +0.167 C 
ATOM     15  C   UNL     1      36.458 -19.872 -19.768  0.00  0.00    +0.040 C 
ATOM     16  C   UNL     1      35.650 -20.832 -19.159  0.00  0.00    +0.167 C 
BRANCH  14  17
ATOM     17  O   UNL     1      33.489 -21.821 -18.867  0.00  0.00    -0.503 OA
ATOM     18  H   UNL     1      33.489 -21.919 -17.935  0.00  0.00    +0.292 HD
ENDBRANCH  14  17
BRANCH  16  19
ATOM     19  O   UNL     1      36.204 -21.712 -18.279  0.00  0.00    -0.503 OA
ATOM     20  H   UNL     1      36.455 -21.424 -17.424  0.00  0.00    +0.292 HD
ENDBRANCH  16  19
ENDBRANCH   3  11
BRANCH   2  21
ATOM     21  O   UNL     1      34.113 -19.577 -23.812  0.00  0.00    -0.380 OA
ATOM     22  H   UNL     1      33.486 -19.521 -24.551  0.00  0.00    +0.211 HD
ENDBRANCH   2  21
BRANCH   7  23
ATOM     23  O   UNL     1      33.342 -14.905 -25.865  0.00  0.00    -0.506 OA
ATOM     24  H   UNL     1      32.688 -15.503 -26.167  0.00  0.00    +0.292 HD
ENDBRANCH   7  23
BRANCH  10  25
ATOM     25  O   UNL     1      33.800 -12.048 -22.087  0.00  0.00    -0.505 OA
ATOM     26  H   UNL     1      33.990 -11.927 -21.178  0.00  0.00    +0.292 HD
ENDBRANCH  10  25
TORSDOF 6
ENDMDL
MODEL 9
REMARK VINA RESULT:      -9.5      3.726      6.897
REMARK  Name = 9064
REMARK  6 active torsions:
REMARK  status: ('A' for Active; 'I' for Inactive)
REMARK    1  A    between atoms: C_2  and  O_21
REMARK    2  A    between atoms: C_3  and  C_11
REMARK    3  A    between atoms: C_7  and  O_23
REMARK    4  A    between atoms: C_10  and  O_25
REMARK    5  A    between atoms: C_14  and  O_17
REMARK    6  A    between atoms: C_16  and  O_19
REMARK                            x       y       z     vdW  Elec       q    Type
REMARK                         _______ _______ _______ _____ _____    ______ ____
ROOT
ATOM      1  O   UNL     1      35.666 -22.717 -16.148  0.00  0.00    -0.472 OA
ATOM      2  C   UNL     1      33.255 -22.511 -15.669  0.00  0.00    +0.159 C 
ATOM      3  C   UNL     1      34.345 -22.852 -16.695  0.00  0.00    +0.215 C 
ATOM      4  C   UNL     1      33.373 -23.455 -14.476  0.00  0.00    +0.066 C 
ATOM      5  C   UNL     1      34.802 -23.608 -14.048  0.00  0.00    +0.048 C 
ATOM      6  C   UNL     1      35.851 -23.247 -14.900  0.00  0.00    +0.141 C 
ATOM      7  C   UNL     1      35.100 -24.147 -12.789  0.00  0.00    +0.136 C 
ATOM      8  C   UNL     1      37.177 -23.387 -14.482  0.00  0.00    +0.073 C 
ATOM      9  C   UNL     1      36.424 -24.296 -12.378  0.00  0.00    +0.073 C 
ATOM     10  C   UNL     1      37.463 -23.913 -13.222  0.00  0.00    +0.140 C 
ENDROOT
BRANCH   3  11
ATOM     11  C   UNL     1      34.274 -21.952 -17.915  0.00  0.00    +0.023 C 
ATOM     12  C   UNL     1      33.043 -21.686 -18.510  0.00  0.00    +0.039 C 
ATOM     13  C   UNL     1      35.441 -21.396 -18.437  0.00  0.00    +0.003 C 
ATOM     14  C   UNL     1      32.977 -20.859 -19.632  0.00  0.00    +0.167 C 
ATOM     15  C   UNL     1      35.375 -20.569 -19.558  0.00  0.00    +0.040 C 
ATOM     16  C   UNL     1      34.143 -20.300 -20.155  0.00  0.00    +0.167 C 
BRANCH  14  17
ATOM     17  O   UNL     1      31.769 -20.603 -20.205  0.00  0.00    -0.503 OA
ATOM     18  H   UNL     1      31.008 -20.497 -19.669  0.00  0.00    +0.292 HD
ENDBRANCH  14  17
BRANCH  16  19
ATOM     19  O   UNL     1      34.092 -19.490 -21.249  0.00  0.00    -0.503 OA
ATOM     20  H   UNL     1      34.207 -19.852 -22.106  0.00  0.00    +0.292 HD
ENDBRANCH  16  19
ENDBRANCH   3  11
BRANCH   2  21
ATOM     21  O   UNL     1      31.969 -22.674 -16.255  0.00  0.00    -0.380 OA
ATOM     22  H   UNL     1      31.455 -23.314 -15.736  0.00  0.00    +0.211 HD
ENDBRANCH   2  21
BRANCH   7  23
ATOM     23  O   UNL     1      34.104 -24.534 -11.940  0.00  0.00    -0.506 OA
ATOM     24  H   UNL     1      34.057 -24.174 -11.076  0.00  0.00    +0.292 HD
ENDBRANCH   7  23
BRANCH  10  25
ATOM     25  O   UNL     1      38.755 -24.055 -12.821  0.00  0.00    -0.505 OA
ATOM     26  H   UNL     1      39.047 -23.647 -12.030  0.00  0.00    +0.292 HD
ENDBRANCH  10  25
TORSDOF 6
ENDMDL
