MODEL 1
REMARK VINA RESULT:     -11.1      0.000      0.000
REMARK  Name = 16117309
REMARK  14 active torsions:
REMARK  status: ('A' for Active; 'I' for Inactive)
REMARK    1  A    between atoms: C_1  and  C_5
REMARK    2  A    between atoms: C_1  and  C_24
REMARK    3  A    between atoms: C_2  and  C_14
REMARK    4  A    between atoms: N_4  and  C_7
REMARK    5  A    between atoms: C_7  and  C_8
REMARK    6  A    between atoms: C_8  and  C_9
REMARK    7  A    between atoms: C_9  and  N_10
REMARK    8  A    between atoms: C_14  and  C_15
REMARK    9  A    between atoms: C_15  and  C_16
REMARK   10  A    between atoms: C_16  and  C_17
REMARK   11  A    between atoms: C_17  and  C_20
REMARK   12  A    between atoms: N_19  and  O_22
REMARK   13  A    between atoms: C_24  and  O_25
REMARK   14  A    between atoms: O_25  and  C_26
REMARK                            x       y       z     vdW  Elec       q    Type
REMARK                         _______ _______ _______ _____ _____    ______ ____
ROOT
ATOM      1  C   UNL     1      35.680 -22.666 -15.818  0.00  0.00    +0.070 C 
ATOM      2  C   UNL     1      34.545 -23.213 -15.344  0.00  0.00    -0.022 C 
ENDROOT
BRANCH   1   5
ATOM      3  O   UNL     1      38.015 -22.604 -15.417  0.00  0.00    -0.270 OA
ATOM      4  N   UNL     1      36.866 -24.560 -14.905  0.00  0.00    -0.301 N 
ATOM      5  C   UNL     1      36.974 -23.253 -15.345  0.00  0.00    +0.245 C 
ATOM      6  H   UNL     1      35.976 -24.982 -14.889  0.00  0.00    +0.150 HD
BRANCH   4   7
ATOM      7  C   UNL     1      38.005 -25.334 -14.468  0.00  0.00    +0.088 C 
BRANCH   7   8
ATOM      8  C   UNL     1      38.270 -25.192 -12.970  0.00  0.00    -0.002 C 
BRANCH   8   9
ATOM      9  C   UNL     1      37.080 -25.560 -12.079  0.00  0.00    -0.076 C 
BRANCH   9  10
ATOM     10  N   UNL     1      36.550 -24.400 -11.373  0.00  0.00    +0.384 N 
ATOM     11  C   UNL     1      35.167 -24.137 -11.778  0.00  0.00    -0.101 C 
ATOM     12  C   UNL     1      37.383 -23.221 -11.617  0.00  0.00    -0.101 C 
ATOM     13  H   UNL     1      36.561 -24.603 -10.373  0.00  0.00    -0.080 HD
ENDBRANCH   9  10
ENDBRANCH   8   9
ENDBRANCH   7   8
ENDBRANCH   4   7
ENDBRANCH   1   5
BRANCH   2  14
ATOM     14  C   UNL     1      33.135 -22.788 -15.640  0.00  0.00    +0.026 C 
BRANCH  14  15
ATOM     15  C   UNL     1      32.162 -23.150 -14.512  0.00  0.00    +0.005 C 
BRANCH  15  16
ATOM     16  C   UNL     1      30.929 -22.238 -14.473  0.00  0.00    +0.010 C 
BRANCH  16  17
ATOM     17  C   UNL     1      29.624 -23.023 -14.609  0.00  0.00    +0.087 C 
BRANCH  17  20
ATOM     18  O   UNL     1      29.330 -22.065 -16.813  0.00  0.00    -0.273 OA
ATOM     19  N   UNL     1      27.914 -23.752 -16.119  0.00  0.00    -0.197 N 
ATOM     20  C   UNL     1      28.965 -22.879 -15.969  0.00  0.00    +0.244 C 
ATOM     21  H   UNL     1      27.658 -24.387 -15.412  0.00  0.00    +0.182 HD
BRANCH  19  22
ATOM     22  O   UNL     1      27.229 -23.679 -17.338  0.00  0.00    -0.295 OA
ATOM     23  H   UNL     1      27.412 -22.826 -17.762  0.00  0.00    +0.241 HD
ENDBRANCH  19  22
ENDBRANCH  17  20
ENDBRANCH  16  17
ENDBRANCH  15  16
ENDBRANCH  14  15
ENDBRANCH   2  14
BRANCH   1  24
ATOM     24  C   UNL     1      35.800 -21.483 -16.732  0.00  0.00    +0.236 C 
BRANCH  24  25
ATOM     25  O   UNL     1      35.645 -21.918 -18.078  0.00  0.00    -0.470 OA
BRANCH  25  26
ATOM     26  C   UNL     1      34.645 -21.329 -18.805  0.00  0.00    +0.139 C 
ATOM     27  C   UNL     1      34.918 -20.313 -19.734  0.00  0.00    +0.034 C 
ATOM     28  C   UNL     1      33.849 -19.734 -20.461  0.00  0.00    +0.003 C 
ATOM     29  C   UNL     1      33.338 -21.768 -18.594  0.00  0.00    +0.037 C 
ATOM     30  C   UNL     1      36.228 -19.857 -19.959  0.00  0.00    +0.003 C 
ATOM     31  C   UNL     1      32.540 -20.189 -20.236  0.00  0.00    +0.000 C 
ATOM     32  C   UNL     1      32.288 -21.200 -19.308  0.00  0.00    +0.003 C 
ATOM     33  C   UNL     1      34.123 -18.717 -21.390  0.00  0.00    +0.000 C 
ATOM     34  C   UNL     1      36.480 -18.846 -20.887  0.00  0.00    +0.000 C 
ATOM     35  C   UNL     1      35.430 -18.277 -21.600  0.00  0.00    +0.000 C 
ENDBRANCH  25  26
ENDBRANCH  24  25
ENDBRANCH   1  24
TORSDOF 14
ENDMDL
MODEL 2
REMARK VINA RESULT:     -10.8      1.814      3.459
REMARK  Name = 16117309
REMARK  14 active torsions:
REMARK  status: ('A' for Active; 'I' for Inactive)
REMARK    1  A    between atoms: C_1  and  C_5
REMARK    2  A    between atoms: C_1  and  C_24
REMARK    3  A    between atoms: C_2  and  C_14
REMARK    4  A    between atoms: N_4  and  C_7
REMARK    5  A    between atoms: C_7  and  C_8
REMARK    6  A    between atoms: C_8  and  C_9
REMARK    7  A    between atoms: C_9  and  N_10
REMARK    8  A    between atoms: C_14  and  C_15
REMARK    9  A    between atoms: C_15  and  C_16
REMARK   10  A    between atoms: C_16  and  C_17
REMARK   11  A    between atoms: C_17  and  C_20
REMARK   12  A    between atoms: N_19  and  O_22
REMARK   13  A    between atoms: C_24  and  O_25
REMARK   14  A    between atoms: O_25  and  C_26
REMARK                            x       y       z     vdW  Elec       q    Type
REMARK                         _______ _______ _______ _____ _____    ______ ____
ROOT
ATOM      1  C   UNL     1      33.064 -23.703 -13.413  0.00  0.00    +0.070 C 
ATOM      2  C   UNL     1      32.033 -24.544 -13.210  0.00  0.00    -0.022 C 
ENDROOT
BRANCH   1   5
ATOM      3  O   UNL     1      34.134 -24.488 -11.450  0.00  0.00    -0.270 OA
ATOM      4  N   UNL     1      35.263 -22.940 -12.769  0.00  0.00    -0.301 N 
ATOM      5  C   UNL     1      34.207 -23.775 -12.448  0.00  0.00    +0.245 C 
ATOM      6  H   UNL     1      35.212 -22.413 -13.600  0.00  0.00    +0.150 HD
BRANCH   4   7
ATOM      7  C   UNL     1      36.435 -22.808 -11.936  0.00  0.00    +0.088 C 
BRANCH   7   8
ATOM      8  C   UNL     1      37.622 -23.611 -12.464  0.00  0.00    -0.002 C 
BRANCH   8   9
ATOM      9  C   UNL     1      37.569 -25.107 -12.138  0.00  0.00    -0.076 C 
BRANCH   9  10
ATOM     10  N   UNL     1      37.998 -25.925 -13.266  0.00  0.00    +0.384 N 
ATOM     11  C   UNL     1      38.876 -25.161 -14.154  0.00  0.00    -0.101 C 
ATOM     12  C   UNL     1      36.841 -26.430 -14.007  0.00  0.00    -0.101 C 
ATOM     13  H   UNL     1      38.522 -26.721 -12.901  0.00  0.00    -0.080 HD
ENDBRANCH   9  10
ENDBRANCH   8   9
ENDBRANCH   7   8
ENDBRANCH   4   7
ENDBRANCH   1   5
BRANCH   2  14
ATOM     14  C   UNL     1      30.766 -24.645 -14.012  0.00  0.00    +0.026 C 
BRANCH  14  15
ATOM     15  C   UNL     1      29.724 -23.600 -13.599  0.00  0.00    +0.005 C 
BRANCH  15  16
ATOM     16  C   UNL     1      29.504 -22.524 -14.671  0.00  0.00    +0.010 C 
BRANCH  16  17
ATOM     17  C   UNL     1      29.091 -23.121 -16.015  0.00  0.00    +0.087 C 
BRANCH  17  20
ATOM     18  O   UNL     1      27.073 -23.445 -17.314  0.00  0.00    -0.273 OA
ATOM     19  N   UNL     1      26.997 -22.122 -15.423  0.00  0.00    -0.197 N 
ATOM     20  C   UNL     1      27.619 -22.935 -16.339  0.00  0.00    +0.244 C 
ATOM     21  H   UNL     1      27.477 -21.736 -14.655  0.00  0.00    +0.182 HD
BRANCH  19  22
ATOM     22  O   UNL     1      25.636 -21.876 -15.650  0.00  0.00    -0.295 OA
ATOM     23  H   UNL     1      25.173 -22.717 -15.781  0.00  0.00    +0.241 HD
ENDBRANCH  19  22
ENDBRANCH  17  20
ENDBRANCH  16  17
ENDBRANCH  15  16
ENDBRANCH  14  15
ENDBRANCH   2  14
BRANCH   1  24
ATOM     24  C   UNL     1      33.175 -22.648 -14.472  0.00  0.00    +0.236 C 
BRANCH  24  25
ATOM     25  O   UNL     1      33.638 -23.246 -15.677  0.00  0.00    -0.470 OA
BRANCH  25  26
ATOM     26  C   UNL     1      34.571 -22.545 -16.394  0.00  0.00    +0.139 C 
ATOM     27  C   UNL     1      34.248 -21.940 -17.619  0.00  0.00    +0.034 C 
ATOM     28  C   UNL     1      35.247 -21.226 -18.323  0.00  0.00    +0.003 C 
ATOM     29  C   UNL     1      35.861 -22.449 -15.871  0.00  0.00    +0.037 C 
ATOM     30  C   UNL     1      32.955 -22.026 -18.161  0.00  0.00    +0.003 C 
ATOM     31  C   UNL     1      36.540 -21.140 -17.782  0.00  0.00    +0.000 C 
ATOM     32  C   UNL     1      36.843 -21.748 -16.564  0.00  0.00    +0.003 C 
ATOM     33  C   UNL     1      34.923 -20.621 -19.549  0.00  0.00    +0.000 C 
ATOM     34  C   UNL     1      32.651 -21.418 -19.379  0.00  0.00    +0.000 C 
ATOM     35  C   UNL     1      33.634 -20.717 -20.072  0.00  0.00    +0.000 C 
ENDBRANCH  25  26
ENDBRANCH  24  25
ENDBRANCH   1  24
TORSDOF 14
ENDMDL
MODEL 3
REMARK VINA RESULT:     -10.7      3.009      6.813
REMARK  Name = 16117309
REMARK  14 active torsions:
REMARK  status: ('A' for Active; 'I' for Inactive)
REMARK    1  A    between atoms: C_1  and  C_5
REMARK    2  A    between atoms: C_1  and  C_24
REMARK    3  A    between atoms: C_2  and  C_14
REMARK    4  A    between atoms: N_4  and  C_7
REMARK    5  A    between atoms: C_7  and  C_8
REMARK    6  A    between atoms: C_8  and  C_9
REMARK    7  A    between atoms: C_9  and  N_10
REMARK    8  A    between atoms: C_14  and  C_15
REMARK    9  A    between atoms: C_15  and  C_16
REMARK   10  A    between atoms: C_16  and  C_17
REMARK   11  A    between atoms: C_17  and  C_20
REMARK   12  A    between atoms: N_19  and  O_22
REMARK   13  A    between atoms: C_24  and  O_25
REMARK   14  A    between atoms: O_25  and  C_26
REMARK                            x       y       z     vdW  Elec       q    Type
REMARK                         _______ _______ _______ _____ _____    ______ ____
ROOT
ATOM      1  C   UNL     1      35.291 -22.323 -16.408  0.00  0.00    +0.070 C 
ATOM      2  C   UNL     1      35.573 -21.564 -17.483  0.00  0.00    -0.022 C 
ENDROOT
BRANCH   1   5
ATOM      3  O   UNL     1      37.488 -22.223 -15.527  0.00  0.00    -0.270 OA
ATOM      4  N   UNL     1      35.724 -22.510 -14.040  0.00  0.00    -0.301 N 
ATOM      5  C   UNL     1      36.287 -22.325 -15.290  0.00  0.00    +0.245 C 
ATOM      6  H   UNL     1      34.744 -22.579 -13.969  0.00  0.00    +0.150 HD
BRANCH   4   7
ATOM      7  C   UNL     1      36.513 -22.609 -12.834  0.00  0.00    +0.088 C 
BRANCH   7   8
ATOM      8  C   UNL     1      36.854 -24.054 -12.475  0.00  0.00    -0.002 C 
BRANCH   8   9
ATOM      9  C   UNL     1      38.303 -24.454 -12.767  0.00  0.00    -0.076 C 
BRANCH   9  10
ATOM     10  N   UNL     1      38.481 -24.887 -14.148  0.00  0.00    +0.384 N 
ATOM     11  C   UNL     1      37.531 -25.950 -14.482  0.00  0.00    -0.101 C 
ATOM     12  C   UNL     1      39.853 -25.345 -14.372  0.00  0.00    -0.101 C 
ATOM     13  H   UNL     1      38.301 -24.090 -14.758  0.00  0.00    -0.080 HD
ENDBRANCH   9  10
ENDBRANCH   8   9
ENDBRANCH   7   8
ENDBRANCH   4   7
ENDBRANCH   1   5
BRANCH   2  14
ATOM     14  C   UNL     1      34.758 -21.418 -18.737  0.00  0.00    +0.026 C 
BRANCH  14  15
ATOM     15  C   UNL     1      35.426 -20.507 -19.771  0.00  0.00    +0.005 C 
BRANCH  15  16
ATOM     16  C   UNL     1      34.418 -19.650 -20.550  0.00  0.00    +0.010 C 
BRANCH  16  17
ATOM     17  C   UNL     1      35.063 -18.930 -21.733  0.00  0.00    +0.087 C 
BRANCH  17  20
ATOM     18  O   UNL     1      34.989 -16.821 -20.546  0.00  0.00    -0.273 OA
ATOM     19  N   UNL     1      35.020 -16.814 -22.855  0.00  0.00    -0.197 N 
ATOM     20  C   UNL     1      35.026 -17.416 -21.620  0.00  0.00    +0.244 C 
ATOM     21  H   UNL     1      35.051 -17.335 -23.690  0.00  0.00    +0.182 HD
BRANCH  19  22
ATOM     22  O   UNL     1      34.966 -15.415 -22.852  0.00  0.00    -0.295 OA
ATOM     23  H   UNL     1      35.601 -15.065 -23.496  0.00  0.00    +0.241 HD
ENDBRANCH  19  22
ENDBRANCH  17  20
ENDBRANCH  16  17
ENDBRANCH  15  16
ENDBRANCH  14  15
ENDBRANCH   2  14
BRANCH   1  24
ATOM     24  C   UNL     1      34.107 -23.225 -16.224  0.00  0.00    +0.236 C 
BRANCH  24  25
ATOM     25  O   UNL     1      33.048 -22.486 -15.627  0.00  0.00    -0.470 OA
BRANCH  25  26
ATOM     26  C   UNL     1      32.131 -23.199 -14.901  0.00  0.00    +0.139 C 
ATOM     27  C   UNL     1      30.762 -23.153 -15.207  0.00  0.00    +0.034 C 
ATOM     28  C   UNL     1      29.853 -23.908 -14.427  0.00  0.00    +0.003 C 
ATOM     29  C   UNL     1      32.598 -23.976 -13.841  0.00  0.00    +0.037 C 
ATOM     30  C   UNL     1      30.273 -22.376 -16.271  0.00  0.00    +0.003 C 
ATOM     31  C   UNL     1      30.340 -24.685 -13.364  0.00  0.00    +0.000 C 
ATOM     32  C   UNL     1      31.705 -24.717 -13.074  0.00  0.00    +0.003 C 
ATOM     33  C   UNL     1      28.483 -23.861 -14.734  0.00  0.00    +0.000 C 
ATOM     34  C   UNL     1      28.909 -22.343 -16.560  0.00  0.00    +0.000 C 
ATOM     35  C   UNL     1      28.016 -23.084 -15.793  0.00  0.00    +0.000 C 
ENDBRANCH  25  26
ENDBRANCH  24  25
ENDBRANCH   1  24
TORSDOF 14
ENDMDL
MODEL 4
REMARK VINA RESULT:     -10.7      2.399      6.984
REMARK  Name = 16117309
REMARK  14 active torsions:
REMARK  status: ('A' for Active; 'I' for Inactive)
REMARK    1  A    between atoms: C_1  and  C_5
REMARK    2  A    between atoms: C_1  and  C_24
REMARK    3  A    between atoms: C_2  and  C_14
REMARK    4  A    between atoms: N_4  and  C_7
REMARK    5  A    between atoms: C_7  and  C_8
REMARK    6  A    between atoms: C_8  and  C_9
REMARK    7  A    between atoms: C_9  and  N_10
REMARK    8  A    between atoms: C_14  and  C_15
REMARK    9  A    between atoms: C_15  and  C_16
REMARK   10  A    between atoms: C_16  and  C_17
REMARK   11  A    between atoms: C_17  and  C_20
REMARK   12  A    between atoms: N_19  and  O_22
REMARK   13  A    between atoms: C_24  and  O_25
REMARK   14  A    between atoms: O_25  and  C_26
REMARK                            x       y       z     vdW  Elec       q    Type
REMARK                         _______ _______ _______ _____ _____    ______ ____
ROOT
ATOM      1  C   UNL     1      33.570 -23.719 -13.189  0.00  0.00    +0.070 C 
ATOM      2  C   UNL     1      34.205 -23.349 -12.061  0.00  0.00    -0.022 C 
ENDROOT
BRANCH   1   5
ATOM      3  O   UNL     1      31.466 -22.795 -12.610  0.00  0.00    -0.270 OA
ATOM      4  N   UNL     1      31.496 -24.819 -13.757  0.00  0.00    -0.301 N 
ATOM      5  C   UNL     1      32.072 -23.708 -13.166  0.00  0.00    +0.245 C 
ATOM      6  H   UNL     1      32.084 -25.489 -14.175  0.00  0.00    +0.150 HD
BRANCH   4   7
ATOM      7  C   UNL     1      30.069 -25.037 -13.784  0.00  0.00    +0.088 C 
BRANCH   7   8
ATOM      8  C   UNL     1      29.454 -24.724 -15.147  0.00  0.00    -0.002 C 
BRANCH   8   9
ATOM      9  C   UNL     1      28.206 -23.839 -15.091  0.00  0.00    -0.076 C 
BRANCH   9  10
ATOM     10  N   UNL     1      28.429 -22.541 -15.715  0.00  0.00    +0.384 N 
ATOM     11  C   UNL     1      27.448 -22.302 -16.775  0.00  0.00    -0.101 C 
ATOM     12  C   UNL     1      29.788 -22.454 -16.253  0.00  0.00    -0.101 C 
ATOM     13  H   UNL     1      28.317 -21.821 -15.001  0.00  0.00    -0.080 HD
ENDBRANCH   9  10
ENDBRANCH   8   9
ENDBRANCH   7   8
ENDBRANCH   4   7
ENDBRANCH   1   5
BRANCH   2  14
ATOM     14  C   UNL     1      35.688 -23.307 -11.822  0.00  0.00    +0.026 C 
BRANCH  14  15
ATOM     15  C   UNL     1      36.245 -24.650 -11.338  0.00  0.00    +0.005 C 
BRANCH  15  16
ATOM     16  C   UNL     1      37.665 -24.925 -11.852  0.00  0.00    +0.010 C 
BRANCH  16  17
ATOM     17  C   UNL     1      37.895 -24.353 -13.251  0.00  0.00    +0.087 C 
BRANCH  17  20
ATOM     18  O   UNL     1      38.079 -26.505 -14.345  0.00  0.00    -0.273 OA
ATOM     19  N   UNL     1      39.532 -24.810 -14.938  0.00  0.00    -0.197 N 
ATOM     20  C   UNL     1      38.487 -25.352 -14.228  0.00  0.00    +0.244 C 
ATOM     21  H   UNL     1      39.823 -23.879 -14.809  0.00  0.00    +0.182 HD
BRANCH  19  22
ATOM     22  O   UNL     1      40.157 -25.666 -15.854  0.00  0.00    -0.295 OA
ATOM     23  H   UNL     1      40.958 -26.039 -15.453  0.00  0.00    +0.241 HD
ENDBRANCH  19  22
ENDBRANCH  17  20
ENDBRANCH  16  17
ENDBRANCH  15  16
ENDBRANCH  14  15
ENDBRANCH   2  14
BRANCH   1  24
ATOM     24  C   UNL     1      34.196 -24.204 -14.462  0.00  0.00    +0.236 C 
BRANCH  24  25
ATOM     25  O   UNL     1      33.748 -23.389 -15.539  0.00  0.00    -0.470 OA
BRANCH  25  26
ATOM     26  C   UNL     1      34.698 -22.645 -16.186  0.00  0.00    +0.139 C 
ATOM     27  C   UNL     1      34.435 -22.044 -17.427  0.00  0.00    +0.034 C 
ATOM     28  C   UNL     1      35.450 -21.284 -18.057  0.00  0.00    +0.003 C 
ATOM     29  C   UNL     1      35.943 -22.499 -15.574  0.00  0.00    +0.037 C 
ATOM     30  C   UNL     1      33.187 -22.179 -18.059  0.00  0.00    +0.003 C 
ATOM     31  C   UNL     1      36.697 -21.148 -17.426  0.00  0.00    +0.000 C 
ATOM     32  C   UNL     1      36.941 -21.753 -16.193  0.00  0.00    +0.003 C 
ATOM     33  C   UNL     1      35.187 -20.683 -19.299  0.00  0.00    +0.000 C 
ATOM     34  C   UNL     1      32.944 -21.575 -19.292  0.00  0.00    +0.000 C 
ATOM     35  C   UNL     1      33.942 -20.828 -19.911  0.00  0.00    +0.000 C 
ENDBRANCH  25  26
ENDBRANCH  24  25
ENDBRANCH   1  24
TORSDOF 14
ENDMDL
MODEL 5
REMARK VINA RESULT:     -10.6      2.656      7.073
REMARK  Name = 16117309
REMARK  14 active torsions:
REMARK  status: ('A' for Active; 'I' for Inactive)
REMARK    1  A    between atoms: C_1  and  C_5
REMARK    2  A    between atoms: C_1  and  C_24
REMARK    3  A    between atoms: C_2  and  C_14
REMARK    4  A    between atoms: N_4  and  C_7
REMARK    5  A    between atoms: C_7  and  C_8
REMARK    6  A    between atoms: C_8  and  C_9
REMARK    7  A    between atoms: C_9  and  N_10
REMARK    8  A    between atoms: C_14  and  C_15
REMARK    9  A    between atoms: C_15  and  C_16
REMARK   10  A    between atoms: C_16  and  C_17
REMARK   11  A    between atoms: C_17  and  C_20
REMARK   12  A    between atoms: N_19  and  O_22
REMARK   13  A    between atoms: C_24  and  O_25
REMARK   14  A    between atoms: O_25  and  C_26
REMARK                            x       y       z     vdW  Elec       q    Type
REMARK                         _______ _______ _______ _____ _____    ______ ____
ROOT
ATOM      1  C   UNL     1      32.347 -22.744 -16.978  0.00  0.00    +0.070 C 
ATOM      2  C   UNL     1      31.149 -22.317 -16.540  0.00  0.00    -0.022 C 
ENDROOT
BRANCH   1   5
ATOM      3  O   UNL     1      33.547 -23.018 -19.004  0.00  0.00    -0.270 OA
ATOM      4  N   UNL     1      32.223 -21.120 -18.762  0.00  0.00    -0.301 N 
ATOM      5  C   UNL     1      32.758 -22.331 -18.358  0.00  0.00    +0.245 C 
ATOM      6  H   UNL     1      31.598 -20.656 -18.159  0.00  0.00    +0.150 HD
BRANCH   4   7
ATOM      7  C   UNL     1      32.543 -20.509 -20.031  0.00  0.00    +0.088 C 
BRANCH   7   8
ATOM      8  C   UNL     1      33.983 -20.000 -20.088  0.00  0.00    -0.002 C 
BRANCH   8   9
ATOM      9  C   UNL     1      34.266 -19.033 -21.241  0.00  0.00    -0.076 C 
BRANCH   9  10
ATOM     10  N   UNL     1      35.225 -18.001 -20.863  0.00  0.00    +0.384 N 
ATOM     11  C   UNL     1      34.715 -16.672 -21.206  0.00  0.00    -0.101 C 
ATOM     12  C   UNL     1      36.516 -18.233 -21.514  0.00  0.00    -0.101 C 
ATOM     13  H   UNL     1      35.359 -18.046 -19.852  0.00  0.00    -0.080 HD
ENDBRANCH   9  10
ENDBRANCH   8   9
ENDBRANCH   7   8
ENDBRANCH   4   7
ENDBRANCH   1   5
BRANCH   2  14
ATOM     14  C   UNL     1      30.502 -22.618 -15.217  0.00  0.00    +0.026 C 
BRANCH  14  15
ATOM     15  C   UNL     1      29.922 -24.035 -15.154  0.00  0.00    +0.005 C 
BRANCH  15  16
ATOM     16  C   UNL     1      28.387 -24.049 -15.128  0.00  0.00    +0.010 C 
BRANCH  16  17
ATOM     17  C   UNL     1      27.781 -23.544 -16.437  0.00  0.00    +0.087 C 
BRANCH  17  20
ATOM     18  O   UNL     1      27.094 -21.535 -15.274  0.00  0.00    -0.273 OA
ATOM     19  N   UNL     1      26.573 -21.776 -17.510  0.00  0.00    -0.197 N 
ATOM     20  C   UNL     1      27.127 -22.178 -16.319  0.00  0.00    +0.244 C 
ATOM     21  H   UNL     1      26.626 -22.329 -18.324  0.00  0.00    +0.182 HD
BRANCH  19  22
ATOM     22  O   UNL     1      25.928 -20.533 -17.494  0.00  0.00    -0.295 OA
ATOM     23  H   UNL     1      25.387 -20.460 -16.693  0.00  0.00    +0.241 HD
ENDBRANCH  19  22
ENDBRANCH  17  20
ENDBRANCH  16  17
ENDBRANCH  15  16
ENDBRANCH  14  15
ENDBRANCH   2  14
BRANCH   1  24
ATOM     24  C   UNL     1      33.306 -23.644 -16.259  0.00  0.00    +0.236 C 
BRANCH  24  25
ATOM     25  O   UNL     1      33.995 -22.892 -15.267  0.00  0.00    -0.470 OA
BRANCH  25  26
ATOM     26  C   UNL     1      35.358 -22.820 -15.385  0.00  0.00    +0.139 C 
ATOM     27  C   UNL     1      36.201 -23.657 -14.636  0.00  0.00    +0.034 C 
ATOM     28  C   UNL     1      37.604 -23.544 -14.792  0.00  0.00    +0.003 C 
ATOM     29  C   UNL     1      35.889 -21.886 -16.274  0.00  0.00    +0.037 C 
ATOM     30  C   UNL     1      35.685 -24.603 -13.736  0.00  0.00    +0.003 C 
ATOM     31  C   UNL     1      38.121 -22.598 -15.692  0.00  0.00    +0.000 C 
ATOM     32  C   UNL     1      37.267 -21.775 -16.427  0.00  0.00    +0.003 C 
ATOM     33  C   UNL     1      38.447 -24.380 -14.042  0.00  0.00    +0.000 C 
ATOM     34  C   UNL     1      36.538 -25.426 -13.000  0.00  0.00    +0.000 C 
ATOM     35  C   UNL     1      37.916 -25.314 -13.153  0.00  0.00    +0.000 C 
ENDBRANCH  25  26
ENDBRANCH  24  25
ENDBRANCH   1  24
TORSDOF 14
ENDMDL
MODEL 6
REMARK VINA RESULT:     -10.6      2.551      7.776
REMARK  Name = 16117309
REMARK  14 active torsions:
REMARK  status: ('A' for Active; 'I' for Inactive)
REMARK    1  A    between atoms: C_1  and  C_5
REMARK    2  A    between atoms: C_1  and  C_24
REMARK    3  A    between atoms: C_2  and  C_14
REMARK    4  A    between atoms: N_4  and  C_7
REMARK    5  A    between atoms: C_7  and  C_8
REMARK    6  A    between atoms: C_8  and  C_9
REMARK    7  A    between atoms: C_9  and  N_10
REMARK    8  A    between atoms: C_14  and  C_15
REMARK    9  A    between atoms: C_15  and  C_16
REMARK   10  A    between atoms: C_16  and  C_17
REMARK   11  A    between atoms: C_17  and  C_20
REMARK   12  A    between atoms: N_19  and  O_22
REMARK   13  A    between atoms: C_24  and  O_25
REMARK   14  A    between atoms: O_25  and  C_26
REMARK                            x       y       z     vdW  Elec       q    Type
REMARK                         _______ _______ _______ _____ _____    ______ ____
ROOT
ATOM      1  C   UNL     1      35.481 -22.345 -16.003  0.00  0.00    +0.070 C 
ATOM      2  C   UNL     1      36.189 -22.296 -14.860  0.00  0.00    -0.022 C 
ENDROOT
BRANCH   1   5
ATOM      3  O   UNL     1      36.856 -20.672 -16.966  0.00  0.00    -0.270 OA
ATOM      4  N   UNL     1      35.232 -21.660 -18.306  0.00  0.00    -0.301 N 
ATOM      5  C   UNL     1      35.949 -21.484 -17.136  0.00  0.00    +0.245 C 
ATOM      6  H   UNL     1      34.523 -22.344 -18.326  0.00  0.00    +0.150 HD
BRANCH   4   7
ATOM      7  C   UNL     1      35.477 -20.881 -19.497  0.00  0.00    +0.088 C 
BRANCH   7   8
ATOM      8  C   UNL     1      34.220 -20.177 -20.006  0.00  0.00    -0.002 C 
BRANCH   8   9
ATOM      9  C   UNL     1      34.458 -19.233 -21.187  0.00  0.00    -0.076 C 
BRANCH   9  10
ATOM     10  N   UNL     1      35.333 -18.123 -20.830  0.00  0.00    +0.384 N 
ATOM     11  C   UNL     1      34.670 -16.842 -21.081  0.00  0.00    -0.101 C 
ATOM     12  C   UNL     1      36.591 -18.198 -21.576  0.00  0.00    -0.101 C 
ATOM     13  H   UNL     1      35.542 -18.190 -19.834  0.00  0.00    -0.080 HD
ENDBRANCH   9  10
ENDBRANCH   8   9
ENDBRANCH   7   8
ENDBRANCH   4   7
ENDBRANCH   1   5
BRANCH   2  14
ATOM     14  C   UNL     1      35.909 -23.034 -13.581  0.00  0.00    +0.026 C 
BRANCH  14  15
ATOM     15  C   UNL     1      37.139 -23.125 -12.672  0.00  0.00    +0.005 C 
BRANCH  15  16
ATOM     16  C   UNL     1      37.552 -24.572 -12.373  0.00  0.00    +0.010 C 
BRANCH  16  17
ATOM     17  C   UNL     1      36.527 -25.584 -12.884  0.00  0.00    +0.087 C 
BRANCH  17  20
ATOM     18  O   UNL     1      38.120 -26.732 -14.301  0.00  0.00    -0.273 OA
ATOM     19  N   UNL     1      35.947 -26.466 -15.034  0.00  0.00    -0.197 N 
ATOM     20  C   UNL     1      36.973 -26.327 -14.131  0.00  0.00    +0.244 C 
ATOM     21  H   UNL     1      35.042 -26.124 -14.852  0.00  0.00    +0.182 HD
BRANCH  19  22
ATOM     22  O   UNL     1      36.269 -27.123 -16.228  0.00  0.00    -0.295 OA
ATOM     23  H   UNL     1      37.218 -27.028 -16.403  0.00  0.00    +0.241 HD
ENDBRANCH  19  22
ENDBRANCH  17  20
ENDBRANCH  16  17
ENDBRANCH  15  16
ENDBRANCH  14  15
ENDBRANCH   2  14
BRANCH   1  24
ATOM     24  C   UNL     1      34.229 -23.128 -16.259  0.00  0.00    +0.236 C 
BRANCH  24  25
ATOM     25  O   UNL     1      33.121 -22.427 -15.704  0.00  0.00    -0.470 OA
BRANCH  25  26
ATOM     26  C   UNL     1      32.242 -23.160 -14.953  0.00  0.00    +0.139 C 
ATOM     27  C   UNL     1      30.865 -23.151 -15.225  0.00  0.00    +0.034 C 
ATOM     28  C   UNL     1      29.995 -23.925 -14.419  0.00  0.00    +0.003 C 
ATOM     29  C   UNL     1      32.755 -23.920 -13.901  0.00  0.00    +0.037 C 
ATOM     30  C   UNL     1      30.330 -22.393 -16.280  0.00  0.00    +0.003 C 
ATOM     31  C   UNL     1      30.529 -24.684 -13.365  0.00  0.00    +0.000 C 
ATOM     32  C   UNL     1      31.900 -24.680 -13.109  0.00  0.00    +0.003 C 
ATOM     33  C   UNL     1      28.617 -23.916 -14.692  0.00  0.00    +0.000 C 
ATOM     34  C   UNL     1      28.958 -22.397 -16.536  0.00  0.00    +0.000 C 
ATOM     35  C   UNL     1      28.104 -23.157 -15.743  0.00  0.00    +0.000 C 
ENDBRANCH  25  26
ENDBRANCH  24  25
ENDBRANCH   1  24
TORSDOF 14
ENDMDL
MODEL 7
REMARK VINA RESULT:     -10.3      2.913      7.209
REMARK  Name = 16117309
REMARK  14 active torsions:
REMARK  status: ('A' for Active; 'I' for Inactive)
REMARK    1  A    between atoms: C_1  and  C_5
REMARK    2  A    between atoms: C_1  and  C_24
REMARK    3  A    between atoms: C_2  and  C_14
REMARK    4  A    between atoms: N_4  and  C_7
REMARK    5  A    between atoms: C_7  and  C_8
REMARK    6  A    between atoms: C_8  and  C_9
REMARK    7  A    between atoms: C_9  and  N_10
REMARK    8  A    between atoms: C_14  and  C_15
REMARK    9  A    between atoms: C_15  and  C_16
REMARK   10  A    between atoms: C_16  and  C_17
REMARK   11  A    between atoms: C_17  and  C_20
REMARK   12  A    between atoms: N_19  and  O_22
REMARK   13  A    between atoms: C_24  and  O_25
REMARK   14  A    between atoms: O_25  and  C_26
REMARK                            x       y       z     vdW  Elec       q    Type
REMARK                         _______ _______ _______ _____ _____    ______ ____
ROOT
ATOM      1  C   UNL     1      32.280 -22.675 -17.020  0.00  0.00    +0.070 C 
ATOM      2  C   UNL     1      31.136 -22.108 -16.595  0.00  0.00    -0.022 C 
ENDROOT
BRANCH   1   5
ATOM      3  O   UNL     1      33.551 -23.053 -18.984  0.00  0.00    -0.270 OA
ATOM      4  N   UNL     1      32.209 -21.155 -18.896  0.00  0.00    -0.301 N 
ATOM      5  C   UNL     1      32.737 -22.337 -18.406  0.00  0.00    +0.245 C 
ATOM      6  H   UNL     1      31.561 -20.662 -18.342  0.00  0.00    +0.150 HD
BRANCH   4   7
ATOM      7  C   UNL     1      32.572 -20.613 -20.185  0.00  0.00    +0.088 C 
BRANCH   7   8
ATOM      8  C   UNL     1      33.961 -19.979 -20.183  0.00  0.00    -0.002 C 
BRANCH   8   9
ATOM      9  C   UNL     1      34.202 -18.978 -21.318  0.00  0.00    -0.076 C 
BRANCH   9  10
ATOM     10  N   UNL     1      35.123 -17.919 -20.924  0.00  0.00    +0.384 N 
ATOM     11  C   UNL     1      34.829 -16.683 -21.651  0.00  0.00    -0.101 C 
ATOM     12  C   UNL     1      36.509 -18.328 -21.159  0.00  0.00    -0.101 C 
ATOM     13  H   UNL     1      35.001 -17.745 -19.926  0.00  0.00    -0.080 HD
ENDBRANCH   9  10
ENDBRANCH   8   9
ENDBRANCH   7   8
ENDBRANCH   4   7
ENDBRANCH   1   5
BRANCH   2  14
ATOM     14  C   UNL     1      30.457 -22.310 -15.269  0.00  0.00    +0.026 C 
BRANCH  14  15
ATOM     15  C   UNL     1      29.182 -23.153 -15.383  0.00  0.00    +0.005 C 
BRANCH  15  16
ATOM     16  C   UNL     1      29.466 -24.660 -15.421  0.00  0.00    +0.010 C 
BRANCH  16  17
ATOM     17  C   UNL     1      29.491 -25.279 -14.023  0.00  0.00    +0.087 C 
BRANCH  17  20
ATOM     18  O   UNL     1      30.160 -23.895 -12.153  0.00  0.00    -0.273 OA
ATOM     19  N   UNL     1      31.783 -24.938 -13.421  0.00  0.00    -0.197 N 
ATOM     20  C   UNL     1      30.489 -24.625 -13.084  0.00  0.00    +0.244 C 
ATOM     21  H   UNL     1      31.997 -25.530 -14.178  0.00  0.00    +0.182 HD
BRANCH  19  22
ATOM     22  O   UNL     1      32.779 -24.363 -12.621  0.00  0.00    -0.295 OA
ATOM     23  H   UNL     1      32.451 -24.272 -11.712  0.00  0.00    +0.241 HD
ENDBRANCH  19  22
ENDBRANCH  17  20
ENDBRANCH  16  17
ENDBRANCH  15  16
ENDBRANCH  14  15
ENDBRANCH   2  14
BRANCH   1  24
ATOM     24  C   UNL     1      33.129 -23.664 -16.281  0.00  0.00    +0.236 C 
BRANCH  24  25
ATOM     25  O   UNL     1      33.830 -22.990 -15.242  0.00  0.00    -0.470 OA
BRANCH  25  26
ATOM     26  C   UNL     1      35.175 -22.806 -15.424  0.00  0.00    +0.139 C 
ATOM     27  C   UNL     1      36.115 -23.672 -14.843  0.00  0.00    +0.034 C 
ATOM     28  C   UNL     1      37.495 -23.440 -15.060  0.00  0.00    +0.003 C 
ATOM     29  C   UNL     1      35.588 -21.728 -16.207  0.00  0.00    +0.037 C 
ATOM     30  C   UNL     1      35.719 -24.763 -14.052  0.00  0.00    +0.003 C 
ATOM     31  C   UNL     1      37.893 -22.350 -15.850  0.00  0.00    +0.000 C 
ATOM     32  C   UNL     1      36.944 -21.500 -16.419  0.00  0.00    +0.003 C 
ATOM     33  C   UNL     1      38.436 -24.306 -14.478  0.00  0.00    +0.000 C 
ATOM     34  C   UNL     1      36.667 -25.612 -13.482  0.00  0.00    +0.000 C 
ATOM     35  C   UNL     1      38.023 -25.384 -13.695  0.00  0.00    +0.000 C 
ENDBRANCH  25  26
ENDBRANCH  24  25
ENDBRANCH   1  24
TORSDOF 14
ENDMDL
MODEL 8
REMARK VINA RESULT:     -10.3      3.138      8.919
REMARK  Name = 16117309
REMARK  14 active torsions:
REMARK  status: ('A' for Active; 'I' for Inactive)
REMARK    1  A    between atoms: C_1  and  C_5
REMARK    2  A    between atoms: C_1  and  C_24
REMARK    3  A    between atoms: C_2  and  C_14
REMARK    4  A    between atoms: N_4  and  C_7
REMARK    5  A    between atoms: C_7  and  C_8
REMARK    6  A    between atoms: C_8  and  C_9
REMARK    7  A    between atoms: C_9  and  N_10
REMARK    8  A    between atoms: C_14  and  C_15
REMARK    9  A    between atoms: C_15  and  C_16
REMARK   10  A    between atoms: C_16  and  C_17
REMARK   11  A    between atoms: C_17  and  C_20
REMARK   12  A    between atoms: N_19  and  O_22
REMARK   13  A    between atoms: C_24  and  O_25
REMARK   14  A    between atoms: O_25  and  C_26
REMARK                            x       y       z     vdW  Elec       q    Type
REMARK                         _______ _______ _______ _____ _____    ______ ____
ROOT
ATOM      1  C   UNL     1      33.956 -21.461 -18.862  0.00  0.00    +0.070 C 
ATOM      2  C   UNL     1      35.232 -21.142 -18.579  0.00  0.00    -0.022 C 
ENDROOT
BRANCH   1   5
ATOM      3  O   UNL     1      31.998 -20.551 -19.840  0.00  0.00    -0.270 OA
ATOM      4  N   UNL     1      34.059 -19.893 -20.695  0.00  0.00    -0.301 N 
ATOM      5  C   UNL     1      33.227 -20.579 -19.828  0.00  0.00    +0.245 C 
ATOM      6  H   UNL     1      35.033 -19.991 -20.591  0.00  0.00    +0.150 HD
BRANCH   4   7
ATOM      7  C   UNL     1      33.558 -19.039 -21.747  0.00  0.00    +0.088 C 
BRANCH   7   8
ATOM      8  C   UNL     1      34.676 -18.440 -22.597  0.00  0.00    -0.002 C 
BRANCH   8   9
ATOM      9  C   UNL     1      35.282 -17.153 -22.031  0.00  0.00    -0.076 C 
BRANCH   9  10
ATOM     10  N   UNL     1      34.920 -15.985 -22.824  0.00  0.00    +0.384 N 
ATOM     11  C   UNL     1      34.139 -15.039 -22.024  0.00  0.00    -0.101 C 
ATOM     12  C   UNL     1      34.168 -16.384 -24.016  0.00  0.00    -0.101 C 
ATOM     13  H   UNL     1      35.779 -15.524 -23.123  0.00  0.00    -0.080 HD
ENDBRANCH   9  10
ENDBRANCH   8   9
ENDBRANCH   7   8
ENDBRANCH   4   7
ENDBRANCH   1   5
BRANCH   2  14
ATOM     14  C   UNL     1      36.159 -21.845 -17.627  0.00  0.00    +0.026 C 
BRANCH  14  15
ATOM     15  C   UNL     1      36.728 -20.906 -16.559  0.00  0.00    +0.005 C 
BRANCH  15  16
ATOM     16  C   UNL     1      36.989 -21.613 -15.222  0.00  0.00    +0.010 C 
BRANCH  16  17
ATOM     17  C   UNL     1      36.958 -23.135 -15.357  0.00  0.00    +0.087 C 
BRANCH  17  20
ATOM     18  O   UNL     1      37.822 -23.424 -13.114  0.00  0.00    -0.273 OA
ATOM     19  N   UNL     1      38.255 -25.040 -14.706  0.00  0.00    -0.197 N 
ATOM     20  C   UNL     1      37.710 -23.861 -14.256  0.00  0.00    +0.244 C 
ATOM     21  H   UNL     1      38.138 -25.349 -15.633  0.00  0.00    +0.182 HD
BRANCH  19  22
ATOM     22  O   UNL     1      38.988 -25.772 -13.762  0.00  0.00    -0.295 OA
ATOM     23  H   UNL     1      38.886 -26.720 -13.940  0.00  0.00    +0.241 HD
ENDBRANCH  19  22
ENDBRANCH  17  20
ENDBRANCH  16  17
ENDBRANCH  15  16
ENDBRANCH  14  15
ENDBRANCH   2  14
BRANCH   1  24
ATOM     24  C   UNL     1      33.150 -22.577 -18.268  0.00  0.00    +0.236 C 
BRANCH  24  25
ATOM     25  O   UNL     1      32.311 -22.052 -17.246  0.00  0.00    -0.470 OA
BRANCH  25  26
ATOM     26  C   UNL     1      32.260 -22.752 -16.070  0.00  0.00    +0.139 C 
ATOM     27  C   UNL     1      31.050 -23.266 -15.577  0.00  0.00    +0.034 C 
ATOM     28  C   UNL     1      31.048 -23.982 -14.356  0.00  0.00    +0.003 C 
ATOM     29  C   UNL     1      33.451 -22.941 -15.369  0.00  0.00    +0.037 C 
ATOM     30  C   UNL     1      29.840 -23.086 -16.269  0.00  0.00    +0.003 C 
ATOM     31  C   UNL     1      32.257 -24.163 -13.664  0.00  0.00    +0.000 C 
ATOM     32  C   UNL     1      33.450 -23.645 -14.169  0.00  0.00    +0.003 C 
ATOM     33  C   UNL     1      29.837 -24.496 -13.863  0.00  0.00    +0.000 C 
ATOM     34  C   UNL     1      28.647 -23.604 -15.764  0.00  0.00    +0.000 C 
ATOM     35  C   UNL     1      28.646 -24.307 -14.564  0.00  0.00    +0.000 C 
ENDBRANCH  25  26
ENDBRANCH  24  25
ENDBRANCH   1  24
TORSDOF 14
ENDMDL
MODEL 9
REMARK VINA RESULT:     -10.2      2.406      7.191
REMARK  Name = 16117309
REMARK  14 active torsions:
REMARK  status: ('A' for Active; 'I' for Inactive)
REMARK    1  A    between atoms: C_1  and  C_5
REMARK    2  A    between atoms: C_1  and  C_24
REMARK    3  A    between atoms: C_2  and  C_14
REMARK    4  A    between atoms: N_4  and  C_7
REMARK    5  A    between atoms: C_7  and  C_8
REMARK    6  A    between atoms: C_8  and  C_9
REMARK    7  A    between atoms: C_9  and  N_10
REMARK    8  A    between atoms: C_14  and  C_15
REMARK    9  A    between atoms: C_15  and  C_16
REMARK   10  A    between atoms: C_16  and  C_17
REMARK   11  A    between atoms: C_17  and  C_20
REMARK   12  A    between atoms: N_19  and  O_22
REMARK   13  A    between atoms: C_24  and  O_25
REMARK   14  A    between atoms: O_25  and  C_26
REMARK                            x       y       z     vdW  Elec       q    Type
REMARK                         _______ _______ _______ _____ _____    ______ ____
ROOT
ATOM      1  C   UNL     1      32.857 -22.835 -16.565  0.00  0.00    +0.070 C 
ATOM      2  C   UNL     1      31.740 -22.399 -15.953  0.00  0.00    -0.022 C 
ENDROOT
BRANCH   1   5
ATOM      3  O   UNL     1      33.408 -23.451 -18.786  0.00  0.00    -0.270 OA
ATOM      4  N   UNL     1      32.620 -21.295 -18.411  0.00  0.00    -0.301 N 
ATOM      5  C   UNL     1      32.975 -22.579 -18.037  0.00  0.00    +0.245 C 
ATOM      6  H   UNL     1      32.283 -20.678 -17.722  0.00  0.00    +0.150 HD
BRANCH   4   7
ATOM      7  C   UNL     1      32.724 -20.822 -19.772  0.00  0.00    +0.088 C 
BRANCH   7   8
ATOM      8  C   UNL     1      34.108 -20.261 -20.093  0.00  0.00    -0.002 C 
BRANCH   8   9
ATOM      9  C   UNL     1      34.108 -19.121 -21.114  0.00  0.00    -0.076 C 
BRANCH   9  10
ATOM     10  N   UNL     1      35.073 -18.083 -20.771  0.00  0.00    +0.384 N 
ATOM     11  C   UNL     1      34.840 -16.878 -21.571  0.00  0.00    -0.101 C 
ATOM     12  C   UNL     1      36.441 -18.565 -20.967  0.00  0.00    -0.101 C 
ATOM     13  H   UNL     1      34.950 -17.846 -19.786  0.00  0.00    -0.080 HD
ENDBRANCH   9  10
ENDBRANCH   8   9
ENDBRANCH   7   8
ENDBRANCH   4   7
ENDBRANCH   1   5
BRANCH   2  14
ATOM     14  C   UNL     1      31.373 -22.558 -14.505  0.00  0.00    +0.026 C 
BRANCH  14  15
ATOM     15  C   UNL     1      30.753 -23.927 -14.202  0.00  0.00    +0.005 C 
BRANCH  15  16
ATOM     16  C   UNL     1      29.220 -23.916 -14.278  0.00  0.00    +0.010 C 
BRANCH  16  17
ATOM     17  C   UNL     1      28.703 -24.483 -15.600  0.00  0.00    +0.087 C 
BRANCH  17  20
ATOM     18  O   UNL     1      27.117 -23.856 -17.318  0.00  0.00    -0.273 OA
ATOM     19  N   UNL     1      27.961 -22.228 -15.915  0.00  0.00    -0.197 N 
ATOM     20  C   UNL     1      27.831 -23.514 -16.380  0.00  0.00    +0.244 C 
ATOM     21  H   UNL     1      28.548 -22.003 -15.157  0.00  0.00    +0.182 HD
BRANCH  19  22
ATOM     22  O   UNL     1      27.208 -21.257 -16.587  0.00  0.00    -0.295 OA
ATOM     23  H   UNL     1      27.558 -21.140 -17.484  0.00  0.00    +0.241 HD
ENDBRANCH  19  22
ENDBRANCH  17  20
ENDBRANCH  16  17
ENDBRANCH  15  16
ENDBRANCH  14  15
ENDBRANCH   2  14
BRANCH   1  24
ATOM     24  C   UNL     1      33.983 -23.607 -15.949  0.00  0.00    +0.236 C 
BRANCH  24  25
ATOM     25  O   UNL     1      34.680 -22.766 -15.038  0.00  0.00    -0.470 OA
BRANCH  25  26
ATOM     26  C   UNL     1      35.209 -23.365 -13.925  0.00  0.00    +0.139 C 
ATOM     27  C   UNL     1      36.546 -23.792 -13.891  0.00  0.00    +0.034 C 
ATOM     28  C   UNL     1      37.046 -24.407 -12.717  0.00  0.00    +0.003 C 
ATOM     29  C   UNL     1      34.376 -23.541 -12.820  0.00  0.00    +0.037 C 
ATOM     30  C   UNL     1      37.399 -23.622 -14.994  0.00  0.00    +0.003 C 
ATOM     31  C   UNL     1      36.194 -24.576 -11.614  0.00  0.00    +0.000 C 
ATOM     32  C   UNL     1      34.867 -24.146 -11.667  0.00  0.00    +0.003 C 
ATOM     33  C   UNL     1      38.383 -24.834 -12.683  0.00  0.00    +0.000 C 
ATOM     34  C   UNL     1      38.725 -24.053 -14.941  0.00  0.00    +0.000 C 
ATOM     35  C   UNL     1      39.216 -24.657 -13.789  0.00  0.00    +0.000 C 
ENDBRANCH  25  26
ENDBRANCH  24  25
ENDBRANCH   1  24
TORSDOF 14
ENDMDL
