MODEL 1
REMARK VINA RESULT:     -10.1      0.000      0.000
REMARK  Name = 11462174
REMARK  5 active torsions:
REMARK  status: ('A' for Active; 'I' for Inactive)
REMARK    1  A    between atoms: N_2  and  C_23
REMARK    2  A    between atoms: C_3  and  C_12
REMARK    3  A    between atoms: C_12  and  C_14
REMARK    4  A    between atoms: C_23  and  C_25
REMARK    5  A    between atoms: C_25  and  O_26
REMARK                            x       y       z     vdW  Elec       q    Type
REMARK                         _______ _______ _______ _____ _____    ______ ____
ROOT
ATOM      1  F   UNL     1      28.340 -22.692 -15.969  0.00  0.00    -0.204 F 
ATOM      2  N   UNL     1      33.654 -22.649 -14.721  0.00  0.00    -0.321 N 
ATOM      3  C   UNL     1      33.205 -23.060 -16.831  0.00  0.00    -0.002 A 
ATOM      4  C   UNL     1      34.223 -22.918 -15.937  0.00  0.00    +0.034 A 
ATOM      5  C   UNL     1      31.974 -22.877 -16.171  0.00  0.00    +0.016 A 
ATOM      6  C   UNL     1      32.282 -22.617 -14.835  0.00  0.00    +0.060 A 
ATOM      7  C   UNL     1      35.687 -23.012 -16.114  0.00  0.00    +0.050 C 
ATOM      8  C   UNL     1      30.621 -22.903 -16.563  0.00  0.00    +0.031 C 
ATOM      9  C   UNL     1      31.301 -22.382 -13.865  0.00  0.00    +0.019 C 
ATOM     10  C   UNL     1      29.629 -22.668 -15.605  0.00  0.00    +0.140 C 
ATOM     11  C   UNL     1      29.966 -22.412 -14.277  0.00  0.00    +0.031 C 
ENDROOT
BRANCH   3  12
ATOM     12  C   UNL     1      33.372 -23.364 -18.293  0.00  0.00    +0.086 C 
BRANCH  12  14
ATOM     13  N   UNL     1      34.771 -21.635 -19.249  0.00  0.00    -0.410 NA
ATOM     14  C   UNL     1      33.509 -22.058 -19.002  0.00  0.00    +0.113 C 
ATOM     15  C   UNL     1      32.375 -21.360 -19.363  0.00  0.00    +0.028 C 
ATOM     16  C   UNL     1      34.935 -20.461 -19.888  0.00  0.00    +0.113 C 
ATOM     17  C   UNL     1      33.836 -19.676 -20.297  0.00  0.00    +0.026 C 
ATOM     18  C   UNL     1      32.548 -20.151 -20.021  0.00  0.00    +0.005 C 
ATOM     19  C   UNL     1      36.215 -19.989 -20.162  0.00  0.00    +0.085 C 
ATOM     20  C   UNL     1      34.045 -18.456 -20.961  0.00  0.00    +0.002 C 
ATOM     21  C   UNL     1      36.423 -18.775 -20.822  0.00  0.00    -0.019 C 
ATOM     22  C   UNL     1      35.337 -18.007 -21.222  0.00  0.00    -0.004 C 
ENDBRANCH  12  14
ENDBRANCH   3  12
BRANCH   2  23
ATOM     23  C   UNL     1      34.388 -22.428 -13.492  0.00  0.00    +0.216 C 
BRANCH  23  25
ATOM     24  O   UNL     1      35.871 -24.238 -12.811  0.00  0.00    -0.248 OA
ATOM     25  C   UNL     1      34.766 -23.716 -12.812  0.00  0.00    +0.337 C 
BRANCH  25  26
ATOM     26  O   UNL     1      33.685 -24.241 -12.180  0.00  0.00    -0.479 OA
ATOM     27  H   UNL     1      33.393 -23.875 -11.369  0.00  0.00    +0.295 HD
ENDBRANCH  25  26
ENDBRANCH  23  25
ENDBRANCH   2  23
TORSDOF 5
ENDMDL
MODEL 2
REMARK VINA RESULT:     -10.0      2.167      3.501
REMARK  Name = 11462174
REMARK  5 active torsions:
REMARK  status: ('A' for Active; 'I' for Inactive)
REMARK    1  A    between atoms: N_2  and  C_23
REMARK    2  A    between atoms: C_3  and  C_12
REMARK    3  A    between atoms: C_12  and  C_14
REMARK    4  A    between atoms: C_23  and  C_25
REMARK    5  A    between atoms: C_25  and  O_26
REMARK                            x       y       z     vdW  Elec       q    Type
REMARK                         _______ _______ _______ _____ _____    ______ ____
ROOT
ATOM      1  F   UNL     1      38.024 -22.630 -15.616  0.00  0.00    -0.204 F 
ATOM      2  N   UNL     1      32.608 -22.621 -14.937  0.00  0.00    -0.321 N 
ATOM      3  C   UNL     1      33.278 -22.969 -16.999  0.00  0.00    -0.002 A 
ATOM      4  C   UNL     1      32.171 -22.854 -16.214  0.00  0.00    +0.034 A 
ATOM      5  C   UNL     1      34.432 -22.807 -16.207  0.00  0.00    +0.016 A 
ATOM      6  C   UNL     1      33.984 -22.587 -14.904  0.00  0.00    +0.060 A 
ATOM      7  C   UNL     1      30.734 -22.941 -16.547  0.00  0.00    +0.050 C 
ATOM      8  C   UNL     1      35.819 -22.822 -16.455  0.00  0.00    +0.031 C 
ATOM      9  C   UNL     1      34.857 -22.381 -13.829  0.00  0.00    +0.019 C 
ATOM     10  C   UNL     1      36.704 -22.618 -15.390  0.00  0.00    +0.140 C 
ATOM     11  C   UNL     1      36.228 -22.401 -14.098  0.00  0.00    +0.031 C 
ENDROOT
BRANCH   3  12
ATOM     12  C   UNL     1      33.268 -23.227 -18.479  0.00  0.00    +0.086 C 
BRANCH  12  14
ATOM     13  N   UNL     1      34.728 -21.526 -19.392  0.00  0.00    -0.410 NA
ATOM     14  C   UNL     1      33.452 -21.911 -19.157  0.00  0.00    +0.113 C 
ATOM     15  C   UNL     1      32.343 -21.165 -19.503  0.00  0.00    +0.028 C 
ATOM     16  C   UNL     1      34.934 -20.344 -20.003  0.00  0.00    +0.113 C 
ATOM     17  C   UNL     1      33.865 -19.512 -20.395  0.00  0.00    +0.026 C 
ATOM     18  C   UNL     1      32.560 -19.948 -20.132  0.00  0.00    +0.005 C 
ATOM     19  C   UNL     1      36.231 -19.910 -20.265  0.00  0.00    +0.085 C 
ATOM     20  C   UNL     1      34.117 -18.284 -21.030  0.00  0.00    +0.002 C 
ATOM     21  C   UNL     1      36.482 -18.690 -20.896  0.00  0.00    -0.019 C 
ATOM     22  C   UNL     1      35.424 -17.875 -21.280  0.00  0.00    -0.004 C 
ENDBRANCH  12  14
ENDBRANCH   3  12
BRANCH   2  23
ATOM     23  C   UNL     1      31.747 -22.436 -13.786  0.00  0.00    +0.216 C 
BRANCH  23  25
ATOM     24  O   UNL     1      30.057 -24.094 -13.208  0.00  0.00    -0.248 OA
ATOM     25  C   UNL     1      31.226 -23.740 -13.246  0.00  0.00    +0.337 C 
BRANCH  25  26
ATOM     26  O   UNL     1      32.257 -24.498 -12.790  0.00  0.00    -0.479 OA
ATOM     27  H   UNL     1      33.138 -24.193 -12.881  0.00  0.00    +0.295 HD
ENDBRANCH  25  26
ENDBRANCH  23  25
ENDBRANCH   2  23
TORSDOF 5
ENDMDL
MODEL 3
REMARK VINA RESULT:      -9.9      6.213      9.913
REMARK  Name = 11462174
REMARK  5 active torsions:
REMARK  status: ('A' for Active; 'I' for Inactive)
REMARK    1  A    between atoms: N_2  and  C_23
REMARK    2  A    between atoms: C_3  and  C_12
REMARK    3  A    between atoms: C_12  and  C_14
REMARK    4  A    between atoms: C_23  and  C_25
REMARK    5  A    between atoms: C_25  and  O_26
REMARK                            x       y       z     vdW  Elec       q    Type
REMARK                         _______ _______ _______ _____ _____    ______ ____
ROOT
ATOM      1  F   UNL     1      32.738 -13.084 -27.006  0.00  0.00    -0.204 F 
ATOM      2  N   UNL     1      33.789 -14.234 -21.774  0.00  0.00    -0.321 N 
ATOM      3  C   UNL     1      34.095 -15.905 -23.165  0.00  0.00    -0.002 A 
ATOM      4  C   UNL     1      34.167 -15.547 -21.853  0.00  0.00    +0.034 A 
ATOM      5  C   UNL     1      33.665 -14.801 -23.928  0.00  0.00    +0.016 A 
ATOM      6  C   UNL     1      33.476 -13.753 -23.026  0.00  0.00    +0.060 A 
ATOM      7  C   UNL     1      34.559 -16.323 -20.658  0.00  0.00    +0.050 C 
ATOM      8  C   UNL     1      33.412 -14.574 -25.295  0.00  0.00    +0.031 C 
ATOM      9  C   UNL     1      33.045 -12.482 -23.424  0.00  0.00    +0.019 C 
ATOM     10  C   UNL     1      32.981 -13.309 -25.708  0.00  0.00    +0.140 C 
ATOM     11  C   UNL     1      32.802 -12.280 -24.785  0.00  0.00    +0.031 C 
ENDROOT
BRANCH   3  12
ATOM     12  C   UNL     1      34.423 -17.266 -23.712  0.00  0.00    +0.086 C 
BRANCH  12  14
ATOM     13  N   UNL     1      33.762 -18.831 -21.988  0.00  0.00    -0.410 NA
ATOM     14  C   UNL     1      34.776 -18.133 -22.550  0.00  0.00    +0.113 C 
ATOM     15  C   UNL     1      36.084 -18.182 -22.114  0.00  0.00    +0.028 C 
ATOM     16  C   UNL     1      34.042 -19.626 -20.937  0.00  0.00    +0.113 C 
ATOM     17  C   UNL     1      35.350 -19.742 -20.419  0.00  0.00    +0.026 C 
ATOM     18  C   UNL     1      36.369 -19.002 -21.031  0.00  0.00    +0.005 C 
ATOM     19  C   UNL     1      33.029 -20.362 -20.329  0.00  0.00    +0.085 C 
ATOM     20  C   UNL     1      35.605 -20.581 -19.321  0.00  0.00    +0.002 C 
ATOM     21  C   UNL     1      33.283 -21.196 -19.237  0.00  0.00    -0.019 C 
ATOM     22  C   UNL     1      34.573 -21.306 -18.733  0.00  0.00    -0.004 C 
ENDBRANCH  12  14
ENDBRANCH   3  12
BRANCH   2  23
ATOM     23  C   UNL     1      33.725 -13.460 -20.551  0.00  0.00    +0.216 C 
BRANCH  23  25
ATOM     24  O   UNL     1      31.812 -11.989 -20.213  0.00  0.00    -0.248 OA
ATOM     25  C   UNL     1      32.313 -13.103 -20.172  0.00  0.00    +0.337 C 
BRANCH  25  26
ATOM     26  O   UNL     1      31.647 -14.215 -19.766  0.00  0.00    -0.479 OA
ATOM     27  H   UNL     1      30.904 -14.518 -20.249  0.00  0.00    +0.295 HD
ENDBRANCH  25  26
ENDBRANCH  23  25
ENDBRANCH   2  23
TORSDOF 5
ENDMDL
MODEL 4
REMARK VINA RESULT:      -9.4      3.533      6.759
REMARK  Name = 11462174
REMARK  5 active torsions:
REMARK  status: ('A' for Active; 'I' for Inactive)
REMARK    1  A    between atoms: N_2  and  C_23
REMARK    2  A    between atoms: C_3  and  C_12
REMARK    3  A    between atoms: C_12  and  C_14
REMARK    4  A    between atoms: C_23  and  C_25
REMARK    5  A    between atoms: C_25  and  O_26
REMARK                            x       y       z     vdW  Elec       q    Type
REMARK                         _______ _______ _______ _____ _____    ______ ____
ROOT
ATOM      1  F   UNL     1      35.765 -21.434 -17.890  0.00  0.00    -0.204 F 
ATOM      2  N   UNL     1      31.328 -23.471 -15.447  0.00  0.00    -0.321 N 
ATOM      3  C   UNL     1      33.134 -23.436 -14.198  0.00  0.00    -0.002 A 
ATOM      4  C   UNL     1      31.817 -23.781 -14.206  0.00  0.00    +0.034 A 
ATOM      5  C   UNL     1      33.484 -22.899 -15.453  0.00  0.00    +0.016 A 
ATOM      6  C   UNL     1      32.324 -22.931 -16.229  0.00  0.00    +0.060 A 
ATOM      7  C   UNL     1      30.966 -24.378 -13.156  0.00  0.00    +0.050 C 
ATOM      8  C   UNL     1      34.667 -22.386 -16.021  0.00  0.00    +0.031 C 
ATOM      9  C   UNL     1      32.287 -22.473 -17.551  0.00  0.00    +0.019 C 
ATOM     10  C   UNL     1      34.645 -21.924 -17.341  0.00  0.00    +0.140 C 
ATOM     11  C   UNL     1      33.472 -21.968 -18.093  0.00  0.00    +0.031 C 
ENDROOT
BRANCH   3  12
ATOM     12  C   UNL     1      34.067 -23.603 -13.032  0.00  0.00    +0.086 C 
BRANCH  12  14
ATOM     13  N   UNL     1      36.474 -23.844 -13.122  0.00  0.00    -0.410 NA
ATOM     14  C   UNL     1      35.277 -24.318 -13.536  0.00  0.00    +0.113 C 
ATOM     15  C   UNL     1      35.122 -25.401 -14.378  0.00  0.00    +0.028 C 
ATOM     16  C   UNL     1      37.589 -24.464 -13.554  0.00  0.00    +0.113 C 
ATOM     17  C   UNL     1      37.533 -25.579 -14.417  0.00  0.00    +0.026 C 
ATOM     18  C   UNL     1      36.273 -26.037 -14.822  0.00  0.00    +0.005 C 
ATOM     19  C   UNL     1      38.841 -24.009 -13.152  0.00  0.00    +0.085 C 
ATOM     20  C   UNL     1      38.716 -26.200 -14.849  0.00  0.00    +0.002 C 
ATOM     21  C   UNL     1      40.018 -24.627 -13.582  0.00  0.00    -0.019 C 
ATOM     22  C   UNL     1      39.956 -25.725 -14.431  0.00  0.00    -0.004 C 
ENDBRANCH  12  14
ENDBRANCH   3  12
BRANCH   2  23
ATOM     23  C   UNL     1      29.960 -23.681 -15.877  0.00  0.00    +0.216 C 
BRANCH  23  25
ATOM     24  O   UNL     1      28.845 -21.920 -14.615  0.00  0.00    -0.248 OA
ATOM     25  C   UNL     1      29.105 -22.459 -15.680  0.00  0.00    +0.337 C 
BRANCH  25  26
ATOM     26  O   UNL     1      28.644 -22.018 -16.880  0.00  0.00    -0.479 OA
ATOM     27  H   UNL     1      29.187 -21.478 -17.419  0.00  0.00    +0.295 HD
ENDBRANCH  25  26
ENDBRANCH  23  25
ENDBRANCH   2  23
TORSDOF 5
ENDMDL
MODEL 5
REMARK VINA RESULT:      -9.0      2.990      5.988
REMARK  Name = 11462174
REMARK  5 active torsions:
REMARK  status: ('A' for Active; 'I' for Inactive)
REMARK    1  A    between atoms: N_2  and  C_23
REMARK    2  A    between atoms: C_3  and  C_12
REMARK    3  A    between atoms: C_12  and  C_14
REMARK    4  A    between atoms: C_23  and  C_25
REMARK    5  A    between atoms: C_25  and  O_26
REMARK                            x       y       z     vdW  Elec       q    Type
REMARK                         _______ _______ _______ _____ _____    ______ ____
ROOT
ATOM      1  F   UNL     1      32.721 -22.205 -18.698  0.00  0.00    -0.204 F 
ATOM      2  N   UNL     1      35.638 -23.107 -14.173  0.00  0.00    -0.321 N 
ATOM      3  C   UNL     1      33.614 -23.960 -14.151  0.00  0.00    -0.002 A 
ATOM      4  C   UNL     1      34.753 -23.829 -13.417  0.00  0.00    +0.034 A 
ATOM      5  C   UNL     1      33.780 -23.311 -15.391  0.00  0.00    +0.016 A 
ATOM      6  C   UNL     1      35.070 -22.777 -15.383  0.00  0.00    +0.060 A 
ATOM      7  C   UNL     1      35.096 -24.318 -12.065  0.00  0.00    +0.050 C 
ATOM      8  C   UNL     1      32.971 -23.116 -16.528  0.00  0.00    +0.031 C 
ATOM      9  C   UNL     1      35.595 -22.054 -16.460  0.00  0.00    +0.019 C 
ATOM     10  C   UNL     1      33.483 -22.396 -17.613  0.00  0.00    +0.140 C 
ATOM     11  C   UNL     1      34.775 -21.874 -17.578  0.00  0.00    +0.031 C 
ENDROOT
BRANCH   3  12
ATOM     12  C   UNL     1      32.374 -24.683 -13.707  0.00  0.00    +0.086 C 
BRANCH  12  14
ATOM     13  N   UNL     1      30.370 -24.379 -15.030  0.00  0.00    -0.410 NA
ATOM     14  C   UNL     1      31.207 -23.845 -14.111  0.00  0.00    +0.113 C 
ATOM     15  C   UNL     1      31.040 -22.598 -13.544  0.00  0.00    +0.028 C 
ATOM     16  C   UNL     1      29.305 -23.653 -15.419  0.00  0.00    +0.113 C 
ATOM     17  C   UNL     1      29.049 -22.368 -14.897  0.00  0.00    +0.026 C 
ATOM     18  C   UNL     1      29.941 -21.852 -13.948  0.00  0.00    +0.005 C 
ATOM     19  C   UNL     1      28.418 -24.165 -16.362  0.00  0.00    +0.085 C 
ATOM     20  C   UNL     1      27.928 -21.638 -15.326  0.00  0.00    +0.002 C 
ATOM     21  C   UNL     1      27.303 -23.439 -16.789  0.00  0.00    -0.019 C 
ATOM     22  C   UNL     1      27.058 -22.174 -16.270  0.00  0.00    -0.004 C 
ENDBRANCH  12  14
ENDBRANCH   3  12
BRANCH   2  23
ATOM     23  C   UNL     1      36.978 -22.741 -13.760  0.00  0.00    +0.216 C 
BRANCH  23  25
ATOM     24  O   UNL     1      38.285 -24.793 -13.634  0.00  0.00    -0.248 OA
ATOM     25  C   UNL     1      38.006 -23.747 -14.200  0.00  0.00    +0.337 C 
BRANCH  25  26
ATOM     26  O   UNL     1      38.604 -23.327 -15.345  0.00  0.00    -0.479 OA
ATOM     27  H   UNL     1      38.224 -22.632 -15.844  0.00  0.00    +0.295 HD
ENDBRANCH  25  26
ENDBRANCH  23  25
ENDBRANCH   2  23
TORSDOF 5
ENDMDL
MODEL 6
REMARK VINA RESULT:      -9.0      3.311      6.958
REMARK  Name = 11462174
REMARK  5 active torsions:
REMARK  status: ('A' for Active; 'I' for Inactive)
REMARK    1  A    between atoms: N_2  and  C_23
REMARK    2  A    between atoms: C_3  and  C_12
REMARK    3  A    between atoms: C_12  and  C_14
REMARK    4  A    between atoms: C_23  and  C_25
REMARK    5  A    between atoms: C_25  and  O_26
REMARK                            x       y       z     vdW  Elec       q    Type
REMARK                         _______ _______ _______ _____ _____    ______ ____
ROOT
ATOM      1  F   UNL     1      32.639 -23.485 -13.386  0.00  0.00    -0.204 F 
ATOM      2  N   UNL     1      34.054 -21.867 -18.404  0.00  0.00    -0.321 N 
ATOM      3  C   UNL     1      35.620 -21.632 -16.883  0.00  0.00    -0.002 A 
ATOM      4  C   UNL     1      35.340 -21.444 -18.202  0.00  0.00    +0.034 A 
ATOM      5  C   UNL     1      34.494 -22.183 -16.240  0.00  0.00    +0.016 A 
ATOM      6  C   UNL     1      33.513 -22.323 -17.223  0.00  0.00    +0.060 A 
ATOM      7  C   UNL     1      36.167 -20.901 -19.300  0.00  0.00    +0.050 C 
ATOM      8  C   UNL     1      34.197 -22.581 -14.922  0.00  0.00    +0.031 C 
ATOM      9  C   UNL     1      32.242 -22.845 -16.953  0.00  0.00    +0.019 C 
ATOM     10  C   UNL     1      32.931 -23.105 -14.637  0.00  0.00    +0.140 C 
ATOM     11  C   UNL     1      31.970 -23.233 -15.638  0.00  0.00    +0.031 C 
ENDROOT
BRANCH   3  12
ATOM     12  C   UNL     1      36.927 -21.302 -16.218  0.00  0.00    +0.086 C 
BRANCH  12  14
ATOM     13  N   UNL     1      36.667 -22.149 -13.966  0.00  0.00    -0.410 NA
ATOM     14  C   UNL     1      37.182 -22.362 -15.199  0.00  0.00    +0.113 C 
ATOM     15  C   UNL     1      37.911 -23.479 -15.550  0.00  0.00    +0.028 C 
ATOM     16  C   UNL     1      36.876 -23.084 -13.018  0.00  0.00    +0.113 C 
ATOM     17  C   UNL     1      37.609 -24.260 -13.283  0.00  0.00    +0.026 C 
ATOM     18  C   UNL     1      38.125 -24.440 -14.572  0.00  0.00    +0.005 C 
ATOM     19  C   UNL     1      36.364 -22.905 -11.737  0.00  0.00    +0.085 C 
ATOM     20  C   UNL     1      37.807 -25.214 -12.270  0.00  0.00    +0.002 C 
ATOM     21  C   UNL     1      36.561 -23.853 -10.730  0.00  0.00    -0.019 C 
ATOM     22  C   UNL     1      37.284 -25.009 -10.997  0.00  0.00    -0.004 C 
ENDBRANCH  12  14
ENDBRANCH   3  12
BRANCH   2  23
ATOM     23  C   UNL     1      33.360 -21.839 -19.676  0.00  0.00    +0.216 C 
BRANCH  23  25
ATOM     24  O   UNL     1      31.583 -20.206 -19.342  0.00  0.00    -0.248 OA
ATOM     25  C   UNL     1      32.617 -20.549 -19.894  0.00  0.00    +0.337 C 
BRANCH  25  26
ATOM     26  O   UNL     1      33.267 -19.791 -20.815  0.00  0.00    -0.479 OA
ATOM     27  H   UNL     1      33.174 -18.859 -20.804  0.00  0.00    +0.295 HD
ENDBRANCH  25  26
ENDBRANCH  23  25
ENDBRANCH   2  23
TORSDOF 5
ENDMDL
MODEL 7
REMARK VINA RESULT:      -8.8      3.509      6.384
REMARK  Name = 11462174
REMARK  5 active torsions:
REMARK  status: ('A' for Active; 'I' for Inactive)
REMARK    1  A    between atoms: N_2  and  C_23
REMARK    2  A    between atoms: C_3  and  C_12
REMARK    3  A    between atoms: C_12  and  C_14
REMARK    4  A    between atoms: C_23  and  C_25
REMARK    5  A    between atoms: C_25  and  O_26
REMARK                            x       y       z     vdW  Elec       q    Type
REMARK                         _______ _______ _______ _____ _____    ______ ____
ROOT
ATOM      1  F   UNL     1      29.687 -23.445 -13.422  0.00  0.00    -0.204 F 
ATOM      2  N   UNL     1      33.359 -22.396 -17.323  0.00  0.00    -0.321 N 
ATOM      3  C   UNL     1      34.149 -22.345 -15.275  0.00  0.00    -0.002 A 
ATOM      4  C   UNL     1      34.493 -22.190 -16.584  0.00  0.00    +0.034 A 
ATOM      5  C   UNL     1      32.778 -22.654 -15.185  0.00  0.00    +0.016 A 
ATOM      6  C   UNL     1      32.297 -22.681 -16.495  0.00  0.00    +0.060 A 
ATOM      7  C   UNL     1      35.790 -21.865 -17.213  0.00  0.00    +0.050 C 
ATOM      8  C   UNL     1      31.884 -22.916 -14.128  0.00  0.00    +0.031 C 
ATOM      9  C   UNL     1      30.959 -22.958 -16.803  0.00  0.00    +0.019 C 
ATOM     10  C   UNL     1      30.544 -23.195 -14.421  0.00  0.00    +0.140 C 
ATOM     11  C   UNL     1      30.092 -23.215 -15.739  0.00  0.00    +0.031 C 
ENDROOT
BRANCH   3  12
ATOM     12  C   UNL     1      35.088 -22.207 -14.110  0.00  0.00    +0.086 C 
BRANCH  12  14
ATOM     13  N   UNL     1      37.342 -23.087 -14.197  0.00  0.00    -0.410 NA
ATOM     14  C   UNL     1      36.020 -23.373 -14.155  0.00  0.00    +0.113 C 
ATOM     15  C   UNL     1      35.504 -24.653 -14.153  0.00  0.00    +0.028 C 
ATOM     16  C   UNL     1      38.214 -24.113 -14.238  0.00  0.00    +0.113 C 
ATOM     17  C   UNL     1      37.783 -25.456 -14.239  0.00  0.00    +0.026 C 
ATOM     18  C   UNL     1      36.405 -25.707 -14.196  0.00  0.00    +0.005 C 
ATOM     19  C   UNL     1      39.582 -23.864 -14.281  0.00  0.00    +0.085 C 
ATOM     20  C   UNL     1      38.720 -26.502 -14.282  0.00  0.00    +0.002 C 
ATOM     21  C   UNL     1      40.515 -24.904 -14.324  0.00  0.00    -0.019 C 
ATOM     22  C   UNL     1      40.084 -26.225 -14.325  0.00  0.00    -0.004 C 
ENDBRANCH  12  14
ENDBRANCH   3  12
BRANCH   2  23
ATOM     23  C   UNL     1      33.285 -22.324 -18.768  0.00  0.00    +0.216 C 
BRANCH  23  25
ATOM     24  O   UNL     1      31.725 -20.497 -19.174  0.00  0.00    -0.248 OA
ATOM     25  C   UNL     1      32.850 -20.968 -19.253  0.00  0.00    +0.337 C 
BRANCH  25  26
ATOM     26  O   UNL     1      33.903 -20.314 -19.808  0.00  0.00    -0.479 OA
ATOM     27  H   UNL     1      34.682 -20.785 -20.031  0.00  0.00    +0.295 HD
ENDBRANCH  25  26
ENDBRANCH  23  25
ENDBRANCH   2  23
TORSDOF 5
ENDMDL
MODEL 8
REMARK VINA RESULT:      -8.7     11.690     15.044
REMARK  Name = 11462174
REMARK  5 active torsions:
REMARK  status: ('A' for Active; 'I' for Inactive)
REMARK    1  A    between atoms: N_2  and  C_23
REMARK    2  A    between atoms: C_3  and  C_12
REMARK    3  A    between atoms: C_12  and  C_14
REMARK    4  A    between atoms: C_23  and  C_25
REMARK    5  A    between atoms: C_25  and  O_26
REMARK                            x       y       z     vdW  Elec       q    Type
REMARK                         _______ _______ _______ _____ _____    ______ ____
ROOT
ATOM      1  F   UNL     1      31.547  -6.590 -26.482  0.00  0.00    -0.204 F 
ATOM      2  N   UNL     1      32.178  -6.955 -21.071  0.00  0.00    -0.321 N 
ATOM      3  C   UNL     1      31.083  -8.624 -21.988  0.00  0.00    -0.002 A 
ATOM      4  C   UNL     1      31.544  -8.139 -20.801  0.00  0.00    +0.034 A 
ATOM      5  C   UNL     1      31.430  -7.735 -23.023  0.00  0.00    +0.016 A 
ATOM      6  C   UNL     1      32.123  -6.684 -22.420  0.00  0.00    +0.060 A 
ATOM      7  C   UNL     1      31.447  -8.681 -19.430  0.00  0.00    +0.050 C 
ATOM      8  C   UNL     1      31.231  -7.705 -24.418  0.00  0.00    +0.031 C 
ATOM      9  C   UNL     1      32.630  -5.599 -23.145  0.00  0.00    +0.019 C 
ATOM     10  C   UNL     1      31.733  -6.627 -25.155  0.00  0.00    +0.140 C 
ATOM     11  C   UNL     1      32.421  -5.591 -24.526  0.00  0.00    +0.031 C 
ENDROOT
BRANCH   3  12
ATOM     12  C   UNL     1      30.322  -9.908 -22.162  0.00  0.00    +0.086 C 
BRANCH  12  14
ATOM     13  N   UNL     1      31.418 -11.856 -21.231  0.00  0.00    -0.410 NA
ATOM     14  C   UNL     1      31.329 -11.004 -22.279  0.00  0.00    +0.113 C 
ATOM     15  C   UNL     1      32.102 -11.095 -23.418  0.00  0.00    +0.028 C 
ATOM     16  C   UNL     1      32.315 -12.859 -21.300  0.00  0.00    +0.113 C 
ATOM     17  C   UNL     1      33.149 -13.034 -22.424  0.00  0.00    +0.026 C 
ATOM     18  C   UNL     1      33.025 -12.129 -23.486  0.00  0.00    +0.005 C 
ATOM     19  C   UNL     1      32.439 -13.758 -20.245  0.00  0.00    +0.085 C 
ATOM     20  C   UNL     1      34.074 -14.091 -22.462  0.00  0.00    +0.002 C 
ATOM     21  C   UNL     1      33.358 -14.809 -20.283  0.00  0.00    -0.019 C 
ATOM     22  C   UNL     1      34.177 -14.976 -21.393  0.00  0.00    -0.004 C 
ENDBRANCH  12  14
ENDBRANCH   3  12
BRANCH   2  23
ATOM     23  C   UNL     1      32.814  -6.109 -20.082  0.00  0.00    +0.216 C 
BRANCH  23  25
ATOM     24  O   UNL     1      30.881  -4.627 -20.165  0.00  0.00    -0.248 OA
ATOM     25  C   UNL     1      31.921  -4.985 -19.632  0.00  0.00    +0.337 C 
BRANCH  25  26
ATOM     26  O   UNL     1      32.439  -4.399 -18.522  0.00  0.00    -0.479 OA
ATOM     27  H   UNL     1      32.545  -3.468 -18.490  0.00  0.00    +0.295 HD
ENDBRANCH  25  26
ENDBRANCH  23  25
ENDBRANCH   2  23
TORSDOF 5
ENDMDL
MODEL 9
REMARK VINA RESULT:      -8.6      3.808      6.928
REMARK  Name = 11462174
REMARK  5 active torsions:
REMARK  status: ('A' for Active; 'I' for Inactive)
REMARK    1  A    between atoms: N_2  and  C_23
REMARK    2  A    between atoms: C_3  and  C_12
REMARK    3  A    between atoms: C_12  and  C_14
REMARK    4  A    between atoms: C_23  and  C_25
REMARK    5  A    between atoms: C_25  and  O_26
REMARK                            x       y       z     vdW  Elec       q    Type
REMARK                         _______ _______ _______ _____ _____    ______ ____
ROOT
ATOM      1  F   UNL     1      36.008 -21.522 -16.961  0.00  0.00    -0.204 F 
ATOM      2  N   UNL     1      31.285 -23.632 -15.215  0.00  0.00    -0.321 N 
ATOM      3  C   UNL     1      32.799 -23.339 -13.651  0.00  0.00    -0.002 A 
ATOM      4  C   UNL     1      31.530 -23.780 -13.877  0.00  0.00    +0.034 A 
ATOM      5  C   UNL     1      33.365 -22.904 -14.866  0.00  0.00    +0.016 A 
ATOM      6  C   UNL     1      32.388 -23.099 -15.844  0.00  0.00    +0.060 A 
ATOM      7  C   UNL     1      30.518 -24.332 -12.952  0.00  0.00    +0.050 C 
ATOM      8  C   UNL     1      34.609 -22.363 -15.246  0.00  0.00    +0.031 C 
ATOM      9  C   UNL     1      32.594 -22.778 -17.191  0.00  0.00    +0.019 C 
ATOM     10  C   UNL     1      34.828 -22.037 -16.589  0.00  0.00    +0.140 C 
ATOM     11  C   UNL     1      33.835 -22.242 -17.545  0.00  0.00    +0.031 C 
ENDROOT
BRANCH   3  12
ATOM     12  C   UNL     1      33.486 -23.320 -12.315  0.00  0.00    +0.086 C 
BRANCH  12  14
ATOM     13  N   UNL     1      35.202 -24.706 -13.312  0.00  0.00    -0.410 NA
ATOM     14  C   UNL     1      34.928 -23.616 -12.558  0.00  0.00    +0.113 C 
ATOM     15  C   UNL     1      35.890 -22.788 -12.017  0.00  0.00    +0.028 C 
ATOM     16  C   UNL     1      36.493 -25.005 -13.553  0.00  0.00    +0.113 C 
ATOM     17  C   UNL     1      37.547 -24.217 -13.043  0.00  0.00    +0.026 C 
ATOM     18  C   UNL     1      37.219 -23.099 -12.267  0.00  0.00    +0.005 C 
ATOM     19  C   UNL     1      36.820 -26.116 -14.325  0.00  0.00    +0.085 C 
ATOM     20  C   UNL     1      38.883 -24.559 -13.315  0.00  0.00    +0.002 C 
ATOM     21  C   UNL     1      38.148 -26.457 -14.595  0.00  0.00    -0.019 C 
ATOM     22  C   UNL     1      39.181 -25.677 -14.090  0.00  0.00    -0.004 C 
ENDBRANCH  12  14
ENDBRANCH   3  12
BRANCH   2  23
ATOM     23  C   UNL     1      30.045 -23.984 -15.877  0.00  0.00    +0.216 C 
BRANCH  23  25
ATOM     24  O   UNL     1      29.212 -21.919 -16.867  0.00  0.00    -0.248 OA
ATOM     25  C   UNL     1      29.124 -22.805 -16.030  0.00  0.00    +0.337 C 
BRANCH  25  26
ATOM     26  O   UNL     1      28.149 -22.853 -15.085  0.00  0.00    -0.479 OA
ATOM     27  H   UNL     1      28.183 -22.276 -14.348  0.00  0.00    +0.295 HD
ENDBRANCH  25  26
ENDBRANCH  23  25
ENDBRANCH   2  23
TORSDOF 5
ENDMDL
