MODEL 1
REMARK VINA RESULT:     -11.9      0.000      0.000
REMARK  Name = 449015
REMARK  8 active torsions:
REMARK  status: ('A' for Active; 'I' for Inactive)
REMARK    1  A    between atoms: C_1  and  N_2
REMARK    2  A    between atoms: C_1  and  C_12
REMARK    3  A    between atoms: C_1  and  C_16
REMARK    4  A    between atoms: C_6  and  C_9
REMARK    5  A    between atoms: C_12  and  O_14
REMARK    6  A    between atoms: C_16  and  C_17
REMARK    7  A    between atoms: C_17  and  O_18
REMARK    8  A    between atoms: O_18  and  C_19
REMARK                            x       y       z     vdW  Elec       q    Type
REMARK                         _______ _______ _______ _____ _____    ______ ____
ROOT
ATOM      1  C   UNL     1      35.240 -23.701 -15.031  0.00  0.00    +0.090 C 
ENDROOT
BRANCH   1   2
ATOM      2  N   UNL     1      36.446 -24.508 -14.789  0.00  0.00    -0.246 NA
ATOM      3  N   UNL     1      37.704 -26.280 -14.482  0.00  0.00    -0.251 NA
ATOM      4  C   UNL     1      37.692 -24.017 -14.619  0.00  0.00    +0.125 C 
ATOM      5  C   UNL     1      36.479 -25.855 -14.703  0.00  0.00    +0.201 C 
ATOM      6  C   UNL     1      38.465 -25.138 -14.428  0.00  0.00    +0.124 C 
BRANCH   6   9
ATOM      7  O   UNL     1      40.573 -24.116 -14.185  0.00  0.00    -0.269 OA
ATOM      8  N   UNL     1      40.500 -26.399 -13.976  0.00  0.00    -0.324 N 
ATOM      9  C   UNL     1      39.878 -25.162 -14.203  0.00  0.00    +0.257 C 
ATOM     10  H   UNL     1      41.471 -26.440 -13.819  0.00  0.00    +0.145 HD
ATOM     11  H   UNL     1      39.965 -27.226 -13.973  0.00  0.00    +0.145 HD
ENDBRANCH   6   9
ENDBRANCH   1   2
BRANCH   1  12
ATOM     12  C   UNL     1      34.173 -23.916 -13.927  0.00  0.00    +0.125 C 
ATOM     13  C   UNL     1      32.771 -23.481 -14.349  0.00  0.00    +0.033 C 
BRANCH  12  14
ATOM     14  O   UNL     1      34.526 -23.163 -12.765  0.00  0.00    -0.383 OA
ATOM     15  H   UNL     1      35.450 -23.341 -12.533  0.00  0.00    +0.210 HD
ENDBRANCH  12  14
ENDBRANCH   1  12
BRANCH   1  16
ATOM     16  C   UNL     1      35.569 -22.202 -15.225  0.00  0.00    +0.066 C 
BRANCH  16  17
ATOM     17  C   UNL     1      35.978 -21.851 -16.654  0.00  0.00    +0.207 C 
BRANCH  17  18
ATOM     18  O   UNL     1      34.927 -22.229 -17.534  0.00  0.00    -0.475 OA
BRANCH  18  19
ATOM     19  C   UNL     1      34.668 -21.388 -18.584  0.00  0.00    +0.139 C 
ATOM     20  C   UNL     1      35.703 -20.647 -19.145  0.00  0.00    +0.037 C 
ATOM     21  C   UNL     1      35.452 -19.781 -20.221  0.00  0.00    +0.003 C 
ATOM     22  C   UNL     1      34.136 -19.668 -20.728  0.00  0.00    +0.000 C 
ATOM     23  C   UNL     1      33.375 -21.284 -19.076  0.00  0.00    +0.037 C 
ATOM     24  C   UNL     1      33.109 -20.427 -20.144  0.00  0.00    +0.003 C 
ATOM     25  C   UNL     1      36.480 -19.022 -20.806  0.00  0.00    +0.000 C 
ATOM     26  C   UNL     1      33.885 -18.802 -21.805  0.00  0.00    +0.000 C 
ATOM     27  C   UNL     1      36.213 -18.166 -21.874  0.00  0.00    +0.000 C 
ATOM     28  C   UNL     1      34.918 -18.056 -22.373  0.00  0.00    +0.000 C 
ENDBRANCH  18  19
ENDBRANCH  17  18
ENDBRANCH  16  17
ENDBRANCH   1  16
TORSDOF 8
ENDMDL
MODEL 2
REMARK VINA RESULT:     -11.8      1.151      1.517
REMARK  Name = 449015
REMARK  8 active torsions:
REMARK  status: ('A' for Active; 'I' for Inactive)
REMARK    1  A    between atoms: C_1  and  N_2
REMARK    2  A    between atoms: C_1  and  C_12
REMARK    3  A    between atoms: C_1  and  C_16
REMARK    4  A    between atoms: C_6  and  C_9
REMARK    5  A    between atoms: C_12  and  O_14
REMARK    6  A    between atoms: C_16  and  C_17
REMARK    7  A    between atoms: C_17  and  O_18
REMARK    8  A    between atoms: O_18  and  C_19
REMARK                            x       y       z     vdW  Elec       q    Type
REMARK                         _______ _______ _______ _____ _____    ______ ____
ROOT
ATOM      1  C   UNL     1      34.092 -23.842 -14.899  0.00  0.00    +0.090 C 
ENDROOT
BRANCH   1   2
ATOM      2  N   UNL     1      35.558 -23.825 -14.792  0.00  0.00    -0.246 NA
ATOM      3  N   UNL     1      37.610 -23.045 -14.809  0.00  0.00    -0.251 NA
ATOM      4  C   UNL     1      36.332 -24.892 -14.496  0.00  0.00    +0.125 C 
ATOM      5  C   UNL     1      36.341 -22.740 -14.973  0.00  0.00    +0.201 C 
ATOM      6  C   UNL     1      37.611 -24.386 -14.512  0.00  0.00    +0.124 C 
BRANCH   6   9
ATOM      7  O   UNL     1      38.991 -25.766 -13.195  0.00  0.00    -0.269 OA
ATOM      8  N   UNL     1      39.815 -25.128 -15.238  0.00  0.00    -0.324 N 
ATOM      9  C   UNL     1      38.812 -25.119 -14.256  0.00  0.00    +0.257 C 
ATOM     10  H   UNL     1      40.650 -25.626 -15.083  0.00  0.00    +0.145 HD
ATOM     11  H   UNL     1      39.683 -24.637 -16.081  0.00  0.00    +0.145 HD
ENDBRANCH   6   9
ENDBRANCH   1   2
BRANCH   1  12
ATOM     12  C   UNL     1      33.417 -24.101 -13.527  0.00  0.00    +0.125 C 
ATOM     13  C   UNL     1      31.895 -23.991 -13.573  0.00  0.00    +0.033 C 
BRANCH  12  14
ATOM     14  O   UNL     1      33.890 -23.149 -12.572  0.00  0.00    -0.383 OA
ATOM     15  H   UNL     1      34.716 -23.469 -12.179  0.00  0.00    +0.210 HD
ENDBRANCH  12  14
ENDBRANCH   1  12
BRANCH   1  16
ATOM     16  C   UNL     1      33.540 -22.565 -15.576  0.00  0.00    +0.066 C 
BRANCH  16  17
ATOM     17  C   UNL     1      33.063 -22.796 -17.007  0.00  0.00    +0.207 C 
BRANCH  17  18
ATOM     18  O   UNL     1      34.174 -22.665 -17.885  0.00  0.00    -0.475 OA
BRANCH  18  19
ATOM     19  C   UNL     1      34.122 -21.647 -18.800  0.00  0.00    +0.139 C 
ATOM     20  C   UNL     1      35.294 -21.002 -19.180  0.00  0.00    +0.037 C 
ATOM     21  C   UNL     1      35.256 -19.957 -20.117  0.00  0.00    +0.003 C 
ATOM     22  C   UNL     1      34.014 -19.566 -20.670  0.00  0.00    +0.000 C 
ATOM     23  C   UNL     1      32.900 -21.270 -19.339  0.00  0.00    +0.037 C 
ATOM     24  C   UNL     1      32.845 -20.234 -20.270  0.00  0.00    +0.003 C 
ATOM     25  C   UNL     1      36.427 -19.290 -20.518  0.00  0.00    +0.000 C 
ATOM     26  C   UNL     1      33.977 -18.521 -21.607  0.00  0.00    +0.000 C 
ATOM     27  C   UNL     1      36.371 -18.253 -21.449  0.00  0.00    +0.000 C 
ATOM     28  C   UNL     1      35.149 -17.870 -21.994  0.00  0.00    +0.000 C 
ENDBRANCH  18  19
ENDBRANCH  17  18
ENDBRANCH  16  17
ENDBRANCH   1  16
TORSDOF 8
ENDMDL
MODEL 3
REMARK VINA RESULT:     -11.1      2.587      3.135
REMARK  Name = 449015
REMARK  8 active torsions:
REMARK  status: ('A' for Active; 'I' for Inactive)
REMARK    1  A    between atoms: C_1  and  N_2
REMARK    2  A    between atoms: C_1  and  C_12
REMARK    3  A    between atoms: C_1  and  C_16
REMARK    4  A    between atoms: C_6  and  C_9
REMARK    5  A    between atoms: C_12  and  O_14
REMARK    6  A    between atoms: C_16  and  C_17
REMARK    7  A    between atoms: C_17  and  O_18
REMARK    8  A    between atoms: O_18  and  C_19
REMARK                            x       y       z     vdW  Elec       q    Type
REMARK                         _______ _______ _______ _____ _____    ______ ____
ROOT
ATOM      1  C   UNL     1      32.693 -23.683 -14.831  0.00  0.00    +0.090 C 
ENDROOT
BRANCH   1   2
ATOM      2  N   UNL     1      33.790 -23.916 -13.879  0.00  0.00    -0.246 NA
ATOM      3  N   UNL     1      35.762 -24.517 -13.125  0.00  0.00    -0.251 NA
ATOM      4  C   UNL     1      33.746 -23.648 -12.557  0.00  0.00    +0.125 C 
ATOM      5  C   UNL     1      34.998 -24.432 -14.192  0.00  0.00    +0.201 C 
ATOM      6  C   UNL     1      34.987 -24.030 -12.102  0.00  0.00    +0.124 C 
BRANCH   6   9
ATOM      7  O   UNL     1      35.077 -24.745  -9.860  0.00  0.00    -0.269 OA
ATOM      8  N   UNL     1      36.380 -22.945 -10.424  0.00  0.00    -0.324 N 
ATOM      9  C   UNL     1      35.454 -23.946 -10.752  0.00  0.00    +0.257 C 
ATOM     10  H   UNL     1      36.716 -22.868  -9.501  0.00  0.00    +0.145 HD
ATOM     11  H   UNL     1      36.695 -22.319 -11.116  0.00  0.00    +0.145 HD
ENDBRANCH   6   9
ENDBRANCH   1   2
BRANCH   1  12
ATOM     12  C   UNL     1      31.341 -23.458 -14.107  0.00  0.00    +0.125 C 
ATOM     13  C   UNL     1      30.487 -24.720 -14.016  0.00  0.00    +0.033 C 
BRANCH  12  14
ATOM     14  O   UNL     1      30.580 -22.472 -14.808  0.00  0.00    -0.383 OA
ATOM     15  H   UNL     1      31.175 -21.788 -15.152  0.00  0.00    +0.210 HD
ENDBRANCH  12  14
ENDBRANCH   1  12
BRANCH   1  16
ATOM     16  C   UNL     1      33.011 -22.537 -15.820  0.00  0.00    +0.066 C 
BRANCH  16  17
ATOM     17  C   UNL     1      33.004 -22.978 -17.281  0.00  0.00    +0.207 C 
BRANCH  17  18
ATOM     18  O   UNL     1      34.232 -22.587 -17.882  0.00  0.00    -0.475 OA
BRANCH  18  19
ATOM     19  C   UNL     1      34.172 -21.586 -18.815  0.00  0.00    +0.139 C 
ATOM     20  C   UNL     1      35.340 -20.942 -19.210  0.00  0.00    +0.037 C 
ATOM     21  C   UNL     1      35.295 -19.914 -20.165  0.00  0.00    +0.003 C 
ATOM     22  C   UNL     1      34.049 -19.538 -20.720  0.00  0.00    +0.000 C 
ATOM     23  C   UNL     1      32.946 -21.223 -19.355  0.00  0.00    +0.037 C 
ATOM     24  C   UNL     1      32.884 -20.203 -20.304  0.00  0.00    +0.003 C 
ATOM     25  C   UNL     1      36.461 -19.249 -20.582  0.00  0.00    +0.000 C 
ATOM     26  C   UNL     1      34.003 -18.509 -21.675  0.00  0.00    +0.000 C 
ATOM     27  C   UNL     1      36.397 -18.229 -21.532  0.00  0.00    +0.000 C 
ATOM     28  C   UNL     1      35.171 -17.860 -22.078  0.00  0.00    +0.000 C 
ENDBRANCH  18  19
ENDBRANCH  17  18
ENDBRANCH  16  17
ENDBRANCH   1  16
TORSDOF 8
ENDMDL
MODEL 4
REMARK VINA RESULT:     -11.1      1.505      2.453
REMARK  Name = 449015
REMARK  8 active torsions:
REMARK  status: ('A' for Active; 'I' for Inactive)
REMARK    1  A    between atoms: C_1  and  N_2
REMARK    2  A    between atoms: C_1  and  C_12
REMARK    3  A    between atoms: C_1  and  C_16
REMARK    4  A    between atoms: C_6  and  C_9
REMARK    5  A    between atoms: C_12  and  O_14
REMARK    6  A    between atoms: C_16  and  C_17
REMARK    7  A    between atoms: C_17  and  O_18
REMARK    8  A    between atoms: O_18  and  C_19
REMARK                            x       y       z     vdW  Elec       q    Type
REMARK                         _______ _______ _______ _____ _____    ______ ____
ROOT
ATOM      1  C   UNL     1      33.215 -23.604 -15.076  0.00  0.00    +0.090 C 
ENDROOT
BRANCH   1   2
ATOM      2  N   UNL     1      34.677 -23.657 -14.922  0.00  0.00    -0.246 NA
ATOM      3  N   UNL     1      36.756 -22.965 -14.809  0.00  0.00    -0.251 NA
ATOM      4  C   UNL     1      35.397 -24.776 -14.696  0.00  0.00    +0.125 C 
ATOM      5  C   UNL     1      35.507 -22.594 -14.985  0.00  0.00    +0.201 C 
ATOM      6  C   UNL     1      36.694 -24.324 -14.629  0.00  0.00    +0.124 C 
BRANCH   6   9
ATOM      7  O   UNL     1      37.896 -26.015 -13.513  0.00  0.00    -0.269 OA
ATOM      8  N   UNL     1      38.984 -24.920 -15.209  0.00  0.00    -0.324 N 
ATOM      9  C   UNL     1      37.857 -25.126 -14.399  0.00  0.00    +0.257 C 
ATOM     10  H   UNL     1      39.796 -25.460 -15.070  0.00  0.00    +0.145 HD
ATOM     11  H   UNL     1      38.964 -24.237 -15.917  0.00  0.00    +0.145 HD
ENDBRANCH   6   9
ENDBRANCH   1   2
BRANCH   1  12
ATOM     12  C   UNL     1      32.501 -23.357 -13.722  0.00  0.00    +0.125 C 
ATOM     13  C   UNL     1      31.522 -24.466 -13.344  0.00  0.00    +0.033 C 
BRANCH  12  14
ATOM     14  O   UNL     1      31.765 -22.134 -13.782  0.00  0.00    -0.383 OA
ATOM     15  H   UNL     1      30.832 -22.308 -13.584  0.00  0.00    +0.210 HD
ENDBRANCH  12  14
ENDBRANCH   1  12
BRANCH   1  16
ATOM     16  C   UNL     1      32.776 -22.578 -16.149  0.00  0.00    +0.066 C 
BRANCH  16  17
ATOM     17  C   UNL     1      32.815 -23.133 -17.570  0.00  0.00    +0.207 C 
BRANCH  17  18
ATOM     18  O   UNL     1      32.414 -22.109 -18.471  0.00  0.00    -0.475 OA
BRANCH  18  19
ATOM     19  C   UNL     1      33.412 -21.370 -19.050  0.00  0.00    +0.139 C 
ATOM     20  C   UNL     1      33.099 -20.451 -20.046  0.00  0.00    +0.037 C 
ATOM     21  C   UNL     1      34.111 -19.688 -20.650  0.00  0.00    +0.003 C 
ATOM     22  C   UNL     1      35.452 -19.862 -20.234  0.00  0.00    +0.000 C 
ATOM     23  C   UNL     1      34.725 -21.547 -18.637  0.00  0.00    +0.037 C 
ATOM     24  C   UNL     1      35.742 -20.796 -19.226  0.00  0.00    +0.003 C 
ATOM     25  C   UNL     1      33.821 -18.752 -21.657  0.00  0.00    +0.000 C 
ATOM     26  C   UNL     1      36.465 -19.098 -20.838  0.00  0.00    +0.000 C 
ATOM     27  C   UNL     1      34.838 -18.002 -22.246  0.00  0.00    +0.000 C 
ATOM     28  C   UNL     1      36.158 -18.174 -21.837  0.00  0.00    +0.000 C 
ENDBRANCH  18  19
ENDBRANCH  17  18
ENDBRANCH  16  17
ENDBRANCH   1  16
TORSDOF 8
ENDMDL
MODEL 5
REMARK VINA RESULT:     -10.9      5.212      9.755
REMARK  Name = 449015
REMARK  8 active torsions:
REMARK  status: ('A' for Active; 'I' for Inactive)
REMARK    1  A    between atoms: C_1  and  N_2
REMARK    2  A    between atoms: C_1  and  C_12
REMARK    3  A    between atoms: C_1  and  C_16
REMARK    4  A    between atoms: C_6  and  C_9
REMARK    5  A    between atoms: C_12  and  O_14
REMARK    6  A    between atoms: C_16  and  C_17
REMARK    7  A    between atoms: C_17  and  O_18
REMARK    8  A    between atoms: O_18  and  C_19
REMARK                            x       y       z     vdW  Elec       q    Type
REMARK                         _______ _______ _______ _____ _____    ______ ____
ROOT
ATOM      1  C   UNL     1      34.739 -18.746 -21.689  0.00  0.00    +0.090 C 
ENDROOT
BRANCH   1   2
ATOM      2  N   UNL     1      34.232 -17.959 -22.823  0.00  0.00    -0.246 NA
ATOM      3  N   UNL     1      33.365 -17.515 -24.790  0.00  0.00    -0.251 NA
ATOM      4  C   UNL     1      34.189 -16.611 -22.881  0.00  0.00    +0.125 C 
ATOM      5  C   UNL     1      33.737 -18.473 -23.969  0.00  0.00    +0.201 C 
ATOM      6  C   UNL     1      33.645 -16.352 -24.117  0.00  0.00    +0.124 C 
BRANCH   6   9
ATOM      7  O   UNL     1      33.058 -14.895 -25.872  0.00  0.00    -0.269 OA
ATOM      8  N   UNL     1      33.476 -13.938 -23.830  0.00  0.00    -0.324 N 
ATOM      9  C   UNL     1      33.383 -15.059 -24.670  0.00  0.00    +0.257 C 
ATOM     10  H   UNL     1      33.300 -13.038 -24.188  0.00  0.00    +0.145 HD
ATOM     11  H   UNL     1      33.716 -14.053 -22.882  0.00  0.00    +0.145 HD
ENDBRANCH   6   9
ENDBRANCH   1   2
BRANCH   1  12
ATOM     12  C   UNL     1      36.032 -18.132 -21.094  0.00  0.00    +0.125 C 
ATOM     13  C   UNL     1      37.211 -18.151 -22.063  0.00  0.00    +0.033 C 
BRANCH  12  14
ATOM     14  O   UNL     1      36.420 -18.864 -19.929  0.00  0.00    -0.383 OA
ATOM     15  H   UNL     1      37.366 -18.731 -19.763  0.00  0.00    +0.210 HD
ENDBRANCH  12  14
ENDBRANCH   1  12
BRANCH   1  16
ATOM     16  C   UNL     1      33.659 -18.969 -20.602  0.00  0.00    +0.066 C 
BRANCH  16  17
ATOM     17  C   UNL     1      33.362 -20.442 -20.336  0.00  0.00    +0.207 C 
BRANCH  17  18
ATOM     18  O   UNL     1      34.560 -21.079 -19.911  0.00  0.00    -0.475 OA
BRANCH  18  19
ATOM     19  C   UNL     1      34.576 -21.575 -18.634  0.00  0.00    +0.139 C 
ATOM     20  C   UNL     1      35.748 -21.518 -17.887  0.00  0.00    +0.037 C 
ATOM     21  C   UNL     1      35.779 -22.022 -16.577  0.00  0.00    +0.003 C 
ATOM     22  C   UNL     1      34.607 -22.590 -16.025  0.00  0.00    +0.000 C 
ATOM     23  C   UNL     1      33.422 -22.130 -18.099  0.00  0.00    +0.037 C 
ATOM     24  C   UNL     1      33.437 -22.636 -16.799  0.00  0.00    +0.003 C 
ATOM     25  C   UNL     1      36.951 -21.975 -15.802  0.00  0.00    +0.000 C 
ATOM     26  C   UNL     1      34.639 -23.094 -14.714  0.00  0.00    +0.000 C 
ATOM     27  C   UNL     1      36.965 -22.481 -14.502  0.00  0.00    +0.000 C 
ATOM     28  C   UNL     1      35.811 -23.039 -13.959  0.00  0.00    +0.000 C 
ENDBRANCH  18  19
ENDBRANCH  17  18
ENDBRANCH  16  17
ENDBRANCH   1  16
TORSDOF 8
ENDMDL
MODEL 6
REMARK VINA RESULT:     -10.8      2.932      4.383
REMARK  Name = 449015
REMARK  8 active torsions:
REMARK  status: ('A' for Active; 'I' for Inactive)
REMARK    1  A    between atoms: C_1  and  N_2
REMARK    2  A    between atoms: C_1  and  C_12
REMARK    3  A    between atoms: C_1  and  C_16
REMARK    4  A    between atoms: C_6  and  C_9
REMARK    5  A    between atoms: C_12  and  O_14
REMARK    6  A    between atoms: C_16  and  C_17
REMARK    7  A    between atoms: C_17  and  O_18
REMARK    8  A    between atoms: O_18  and  C_19
REMARK                            x       y       z     vdW  Elec       q    Type
REMARK                         _______ _______ _______ _____ _____    ______ ____
ROOT
ATOM      1  C   UNL     1      30.668 -23.594 -15.534  0.00  0.00    +0.090 C 
ENDROOT
BRANCH   1   2
ATOM      2  N   UNL     1      31.573 -23.454 -14.383  0.00  0.00    -0.246 NA
ATOM      3  N   UNL     1      32.331 -22.783 -12.436  0.00  0.00    -0.251 NA
ATOM      4  C   UNL     1      32.774 -24.058 -14.258  0.00  0.00    +0.125 C 
ATOM      5  C   UNL     1      31.333 -22.702 -13.288  0.00  0.00    +0.201 C 
ATOM      6  C   UNL     1      33.234 -23.627 -13.035  0.00  0.00    +0.124 C 
BRANCH   6   9
ATOM      7  O   UNL     1      34.544 -24.462 -11.265  0.00  0.00    -0.269 OA
ATOM      8  N   UNL     1      35.659 -23.817 -13.163  0.00  0.00    -0.324 N 
ATOM      9  C   UNL     1      34.477 -23.986 -12.426  0.00  0.00    +0.257 C 
ATOM     10  H   UNL     1      36.527 -24.057 -12.764  0.00  0.00    +0.145 HD
ATOM     11  H   UNL     1      35.621 -23.458 -14.079  0.00  0.00    +0.145 HD
ENDBRANCH   6   9
ENDBRANCH   1   2
BRANCH   1  12
ATOM     12  C   UNL     1      29.187 -23.710 -15.091  0.00  0.00    +0.125 C 
ATOM     13  C   UNL     1      28.864 -25.033 -14.402  0.00  0.00    +0.033 C 
BRANCH  12  14
ATOM     14  O   UNL     1      28.335 -23.600 -16.233  0.00  0.00    -0.383 OA
ATOM     15  H   UNL     1      27.504 -24.070 -16.064  0.00  0.00    +0.210 HD
ENDBRANCH  12  14
ENDBRANCH   1  12
BRANCH   1  16
ATOM     16  C   UNL     1      30.868 -22.467 -16.575  0.00  0.00    +0.066 C 
BRANCH  16  17
ATOM     17  C   UNL     1      32.253 -22.473 -17.217  0.00  0.00    +0.207 C 
BRANCH  17  18
ATOM     18  O   UNL     1      32.133 -22.035 -18.565  0.00  0.00    -0.475 OA
BRANCH  18  19
ATOM     19  C   UNL     1      33.192 -21.340 -19.085  0.00  0.00    +0.139 C 
ATOM     20  C   UNL     1      32.970 -20.373 -20.060  0.00  0.00    +0.037 C 
ATOM     21  C   UNL     1      34.046 -19.653 -20.602  0.00  0.00    +0.003 C 
ATOM     22  C   UNL     1      35.359 -19.921 -20.148  0.00  0.00    +0.000 C 
ATOM     23  C   UNL     1      34.477 -21.608 -18.634  0.00  0.00    +0.037 C 
ATOM     24  C   UNL     1      35.557 -20.902 -19.163  0.00  0.00    +0.003 C 
ATOM     25  C   UNL     1      33.848 -18.671 -21.587  0.00  0.00    +0.000 C 
ATOM     26  C   UNL     1      36.435 -19.200 -20.691  0.00  0.00    +0.000 C 
ATOM     27  C   UNL     1      34.928 -17.964 -22.116  0.00  0.00    +0.000 C 
ATOM     28  C   UNL     1      36.220 -18.228 -21.668  0.00  0.00    +0.000 C 
ENDBRANCH  18  19
ENDBRANCH  17  18
ENDBRANCH  16  17
ENDBRANCH   1  16
TORSDOF 8
ENDMDL
MODEL 7
REMARK VINA RESULT:     -10.8      7.745     12.332
REMARK  Name = 449015
REMARK  8 active torsions:
REMARK  status: ('A' for Active; 'I' for Inactive)
REMARK    1  A    between atoms: C_1  and  N_2
REMARK    2  A    between atoms: C_1  and  C_12
REMARK    3  A    between atoms: C_1  and  C_16
REMARK    4  A    between atoms: C_6  and  C_9
REMARK    5  A    between atoms: C_12  and  O_14
REMARK    6  A    between atoms: C_16  and  C_17
REMARK    7  A    between atoms: C_17  and  O_18
REMARK    8  A    between atoms: O_18  and  C_19
REMARK                            x       y       z     vdW  Elec       q    Type
REMARK                         _______ _______ _______ _____ _____    ______ ____
ROOT
ATOM      1  C   UNL     1      32.883 -14.139 -23.357  0.00  0.00    +0.090 C 
ENDROOT
BRANCH   1   2
ATOM      2  N   UNL     1      32.641 -12.718 -23.064  0.00  0.00    -0.246 NA
ATOM      3  N   UNL     1      32.865 -10.537 -23.153  0.00  0.00    -0.251 NA
ATOM      4  C   UNL     1      31.715 -12.245 -22.204  0.00  0.00    +0.125 C 
ATOM      5  C   UNL     1      33.311 -11.684 -23.616  0.00  0.00    +0.201 C 
ATOM      6  C   UNL     1      31.870 -10.880 -22.271  0.00  0.00    +0.124 C 
BRANCH   6   9
ATOM      7  O   UNL     1      30.029 -10.186 -20.976  0.00  0.00    -0.269 OA
ATOM      8  N   UNL     1      31.620  -8.602 -21.445  0.00  0.00    -0.324 N 
ATOM      9  C   UNL     1      31.115  -9.908 -21.543  0.00  0.00    +0.257 C 
ATOM     10  H   UNL     1      31.117  -7.916 -20.949  0.00  0.00    +0.145 HD
ATOM     11  H   UNL     1      32.476  -8.372 -21.872  0.00  0.00    +0.145 HD
ENDBRANCH   6   9
ENDBRANCH   1   2
BRANCH   1  12
ATOM     12  C   UNL     1      33.281 -14.364 -24.838  0.00  0.00    +0.125 C 
ATOM     13  C   UNL     1      32.723 -13.301 -25.781  0.00  0.00    +0.033 C 
BRANCH  12  14
ATOM     14  O   UNL     1      32.792 -15.632 -25.279  0.00  0.00    -0.383 OA
ATOM     15  H   UNL     1      33.118 -15.810 -26.175  0.00  0.00    +0.210 HD
ENDBRANCH  12  14
ENDBRANCH   1  12
BRANCH   1  16
ATOM     16  C   UNL     1      33.910 -14.770 -22.386  0.00  0.00    +0.066 C 
BRANCH  16  17
ATOM     17  C   UNL     1      34.881 -15.729 -23.070  0.00  0.00    +0.207 C 
BRANCH  17  18
ATOM     18  O   UNL     1      34.281 -17.016 -23.133  0.00  0.00    -0.475 OA
BRANCH  18  19
ATOM     19  C   UNL     1      34.666 -17.924 -22.183  0.00  0.00    +0.139 C 
ATOM     20  C   UNL     1      33.715 -18.747 -21.590  0.00  0.00    +0.037 C 
ATOM     21  C   UNL     1      34.094 -19.682 -20.614  0.00  0.00    +0.003 C 
ATOM     22  C   UNL     1      35.455 -19.779 -20.239  0.00  0.00    +0.000 C 
ATOM     23  C   UNL     1      36.003 -18.014 -21.821  0.00  0.00    +0.037 C 
ATOM     24  C   UNL     1      36.397 -18.937 -20.853  0.00  0.00    +0.003 C 
ATOM     25  C   UNL     1      33.152 -20.525 -20.001  0.00  0.00    +0.000 C 
ATOM     26  C   UNL     1      35.835 -20.715 -19.263  0.00  0.00    +0.000 C 
ATOM     27  C   UNL     1      33.546 -21.449 -19.034  0.00  0.00    +0.000 C 
ATOM     28  C   UNL     1      34.885 -21.544 -18.665  0.00  0.00    +0.000 C 
ENDBRANCH  18  19
ENDBRANCH  17  18
ENDBRANCH  16  17
ENDBRANCH   1  16
TORSDOF 8
ENDMDL
MODEL 8
REMARK VINA RESULT:     -10.8      3.451      5.602
REMARK  Name = 449015
REMARK  8 active torsions:
REMARK  status: ('A' for Active; 'I' for Inactive)
REMARK    1  A    between atoms: C_1  and  N_2
REMARK    2  A    between atoms: C_1  and  C_12
REMARK    3  A    between atoms: C_1  and  C_16
REMARK    4  A    between atoms: C_6  and  C_9
REMARK    5  A    between atoms: C_12  and  O_14
REMARK    6  A    between atoms: C_16  and  C_17
REMARK    7  A    between atoms: C_17  and  O_18
REMARK    8  A    between atoms: O_18  and  C_19
REMARK                            x       y       z     vdW  Elec       q    Type
REMARK                         _______ _______ _______ _____ _____    ______ ____
ROOT
ATOM      1  C   UNL     1      33.135 -23.215 -14.654  0.00  0.00    +0.090 C 
ENDROOT
BRANCH   1   2
ATOM      2  N   UNL     1      31.664 -23.242 -14.671  0.00  0.00    -0.246 NA
ATOM      3  N   UNL     1      29.613 -23.798 -14.121  0.00  0.00    -0.251 NA
ATOM      4  C   UNL     1      30.880 -22.515 -15.496  0.00  0.00    +0.125 C 
ATOM      5  C   UNL     1      30.888 -23.995 -13.864  0.00  0.00    +0.201 C 
ATOM      6  C   UNL     1      29.602 -22.876 -15.139  0.00  0.00    +0.124 C 
BRANCH   6   9
ATOM      7  O   UNL     1      27.658 -21.547 -15.132  0.00  0.00    -0.269 OA
ATOM      8  N   UNL     1      28.025 -22.832 -16.996  0.00  0.00    -0.324 N 
ATOM      9  C   UNL     1      28.392 -22.381 -15.718  0.00  0.00    +0.257 C 
ATOM     10  H   UNL     1      27.196 -22.506 -17.414  0.00  0.00    +0.145 HD
ATOM     11  H   UNL     1      28.598 -23.476 -17.473  0.00  0.00    +0.145 HD
ENDBRANCH   6   9
ENDBRANCH   1   2
BRANCH   1  12
ATOM     12  C   UNL     1      33.718 -24.243 -13.651  0.00  0.00    +0.125 C 
ATOM     13  C   UNL     1      34.308 -23.598 -12.400  0.00  0.00    +0.033 C 
BRANCH  12  14
ATOM     14  O   UNL     1      34.758 -24.993 -14.282  0.00  0.00    -0.383 OA
ATOM     15  H   UNL     1      34.518 -25.932 -14.297  0.00  0.00    +0.210 HD
ENDBRANCH  12  14
ENDBRANCH   1  12
BRANCH   1  16
ATOM     16  C   UNL     1      33.739 -23.389 -16.068  0.00  0.00    +0.066 C 
BRANCH  16  17
ATOM     17  C   UNL     1      34.451 -22.140 -16.581  0.00  0.00    +0.207 C 
BRANCH  17  18
ATOM     18  O   UNL     1      34.931 -22.396 -17.894  0.00  0.00    -0.475 OA
BRANCH  18  19
ATOM     19  C   UNL     1      34.678 -21.440 -18.842  0.00  0.00    +0.139 C 
ATOM     20  C   UNL     1      35.724 -20.676 -19.348  0.00  0.00    +0.037 C 
ATOM     21  C   UNL     1      35.479 -19.693 -20.320  0.00  0.00    +0.003 C 
ATOM     22  C   UNL     1      34.157 -19.486 -20.779  0.00  0.00    +0.000 C 
ATOM     23  C   UNL     1      33.378 -21.244 -19.288  0.00  0.00    +0.037 C 
ATOM     24  C   UNL     1      33.118 -20.271 -20.252  0.00  0.00    +0.003 C 
ATOM     25  C   UNL     1      36.519 -18.909 -20.847  0.00  0.00    +0.000 C 
ATOM     26  C   UNL     1      33.912 -18.503 -21.751  0.00  0.00    +0.000 C 
ATOM     27  C   UNL     1      36.258 -17.936 -21.812  0.00  0.00    +0.000 C 
ATOM     28  C   UNL     1      34.957 -17.733 -22.264  0.00  0.00    +0.000 C 
ENDBRANCH  18  19
ENDBRANCH  17  18
ENDBRANCH  16  17
ENDBRANCH   1  16
TORSDOF 8
ENDMDL
MODEL 9
REMARK VINA RESULT:     -10.6      5.455      8.653
REMARK  Name = 449015
REMARK  8 active torsions:
REMARK  status: ('A' for Active; 'I' for Inactive)
REMARK    1  A    between atoms: C_1  and  N_2
REMARK    2  A    between atoms: C_1  and  C_12
REMARK    3  A    between atoms: C_1  and  C_16
REMARK    4  A    between atoms: C_6  and  C_9
REMARK    5  A    between atoms: C_12  and  O_14
REMARK    6  A    between atoms: C_16  and  C_17
REMARK    7  A    between atoms: C_17  and  O_18
REMARK    8  A    between atoms: O_18  and  C_19
REMARK                            x       y       z     vdW  Elec       q    Type
REMARK                         _______ _______ _______ _____ _____    ______ ____
ROOT
ATOM      1  C   UNL     1      34.830 -18.884 -21.939  0.00  0.00    +0.090 C 
ENDROOT
BRANCH   1   2
ATOM      2  N   UNL     1      34.077 -19.657 -20.939  0.00  0.00    -0.246 NA
ATOM      3  N   UNL     1      32.365 -20.434 -19.808  0.00  0.00    -0.251 NA
ATOM      4  C   UNL     1      34.620 -20.497 -20.032  0.00  0.00    +0.125 C 
ATOM      5  C   UNL     1      32.736 -19.637 -20.786  0.00  0.00    +0.201 C 
ATOM      6  C   UNL     1      33.535 -20.973 -19.334  0.00  0.00    +0.124 C 
BRANCH   6   9
ATOM      7  O   UNL     1      34.645 -22.267 -17.710  0.00  0.00    -0.269 OA
ATOM      8  N   UNL     1      32.358 -22.429 -17.774  0.00  0.00    -0.324 N 
ATOM      9  C   UNL     1      33.571 -21.909 -18.253  0.00  0.00    +0.257 C 
ATOM     10  H   UNL     1      32.358 -23.074 -17.031  0.00  0.00    +0.145 HD
ATOM     11  H   UNL     1      31.507 -22.146 -18.182  0.00  0.00    +0.145 HD
ENDBRANCH   6   9
ENDBRANCH   1   2
BRANCH   1  12
ATOM     12  C   UNL     1      33.959 -18.533 -23.172  0.00  0.00    +0.125 C 
ATOM     13  C   UNL     1      34.034 -19.578 -24.282  0.00  0.00    +0.033 C 
BRANCH  12  14
ATOM     14  O   UNL     1      34.388 -17.286 -23.724  0.00  0.00    -0.383 OA
ATOM     15  H   UNL     1      34.537 -17.388 -24.676  0.00  0.00    +0.210 HD
ENDBRANCH  12  14
ENDBRANCH   1  12
BRANCH   1  16
ATOM     16  C   UNL     1      35.491 -17.625 -21.328  0.00  0.00    +0.066 C 
BRANCH  16  17
ATOM     17  C   UNL     1      34.487 -16.549 -20.923  0.00  0.00    +0.207 C 
BRANCH  17  18
ATOM     18  O   UNL     1      34.647 -15.428 -21.782  0.00  0.00    -0.475 OA
BRANCH  18  19
ATOM     19  C   UNL     1      33.786 -14.380 -21.598  0.00  0.00    +0.139 C 
ATOM     20  C   UNL     1      33.754 -13.342 -22.523  0.00  0.00    +0.037 C 
ATOM     21  C   UNL     1      32.877 -12.261 -22.347  0.00  0.00    +0.003 C 
ATOM     22  C   UNL     1      32.025 -12.236 -21.218  0.00  0.00    +0.000 C 
ATOM     23  C   UNL     1      32.953 -14.363 -20.488  0.00  0.00    +0.037 C 
ATOM     24  C   UNL     1      32.075 -13.296 -20.298  0.00  0.00    +0.003 C 
ATOM     25  C   UNL     1      32.826 -11.201 -23.269  0.00  0.00    +0.000 C 
ATOM     26  C   UNL     1      31.146 -11.154 -21.042  0.00  0.00    +0.000 C 
ATOM     27  C   UNL     1      31.948 -10.134 -23.078  0.00  0.00    +0.000 C 
ATOM     28  C   UNL     1      31.109 -10.111 -21.967  0.00  0.00    +0.000 C 
ENDBRANCH  18  19
ENDBRANCH  17  18
ENDBRANCH  16  17
ENDBRANCH   1  16
TORSDOF 8
ENDMDL
