MODEL 1
REMARK VINA RESULT:     -13.3      0.000      0.000
REMARK  Name = 25065981
REMARK  7 active torsions:
REMARK  status: ('A' for Active; 'I' for Inactive)
REMARK    1  A    between atoms: C_1  and  C_3
REMARK    2  A    between atoms: C_1  and  C_16
REMARK    3  A    between atoms: C_11  and  O_13
REMARK    4  A    between atoms: C_16  and  O_17
REMARK    5  A    between atoms: O_17  and  C_18
REMARK    6  A    between atoms: C_21  and  C_25
REMARK    7  A    between atoms: C_25  and  N_26
REMARK                            x       y       z     vdW  Elec       q    Type
REMARK                         _______ _______ _______ _____ _____    ______ ____
ROOT
ATOM      1  C   UNL     1      35.074 -19.356 -21.569  0.00  0.00    +0.122 C 
ATOM      2  C   UNL     1      33.837 -19.002 -22.420  0.00  0.00    +0.016 C 
ENDROOT
BRANCH   1   3
ATOM      3  C   UNL     1      34.745 -20.149 -20.350  0.00  0.00    -0.012 C 
ATOM      4  C   UNL     1      35.455 -21.205 -18.276  0.00  0.00    -0.000 C 
ATOM      5  C   UNL     1      35.747 -20.459 -19.430  0.00  0.00    -0.004 C 
ATOM      6  C   UNL     1      34.128 -21.643 -18.053  0.00  0.00    +0.003 C 
ATOM      7  C   UNL     1      33.440 -20.580 -20.131  0.00  0.00    -0.004 C 
ATOM      8  C   UNL     1      33.132 -21.321 -18.990  0.00  0.00    -0.000 C 
ATOM      9  C   UNL     1      36.450 -21.526 -17.340  0.00  0.00    +0.003 C 
ATOM     10  C   UNL     1      33.835 -22.389 -16.900  0.00  0.00    +0.037 C 
ATOM     11  C   UNL     1      34.837 -22.698 -15.980  0.00  0.00    +0.139 C 
ATOM     12  C   UNL     1      36.142 -22.268 -16.199  0.00  0.00    +0.037 C 
BRANCH  11  13
ATOM     13  O   UNL     1      34.538 -23.422 -14.866  0.00  0.00    -0.471 OA
ATOM     14  C   UNL     1      35.360 -24.553 -14.586  0.00  0.00    +0.252 C 
ENDBRANCH  11  13
ENDBRANCH   1   3
BRANCH   1  16
ATOM     15  O   UNL     1      37.015 -17.870 -21.589  0.00  0.00    -0.249 OA
ATOM     16  C   UNL     1      35.856 -18.075 -21.249  0.00  0.00    +0.325 C 
BRANCH  16  17
ATOM     17  O   UNL     1      35.039 -17.190 -20.546  0.00  0.00    -0.424 OA
BRANCH  17  18
ATOM     18  C   UNL     1      34.557 -16.145 -21.337  0.00  0.00    +0.148 C 
ATOM     19  C   UNL     1      33.980 -15.025 -20.736  0.00  0.00    +0.038 C 
ATOM     20  C   UNL     1      34.649 -16.222 -22.726  0.00  0.00    +0.038 C 
ATOM     21  C   UNL     1      33.589 -14.059 -22.916  0.00  0.00    +0.020 C 
ATOM     22  C   UNL     1      33.497 -13.982 -21.526  0.00  0.00    +0.005 C 
ATOM     23  C   UNL     1      34.165 -15.178 -23.516  0.00  0.00    +0.005 C 
BRANCH  21  25
ATOM     24  S   UNL     1      33.042 -11.344 -23.278  0.00  0.00    -0.035 S 
ATOM     25  C   UNL     1      33.084 -12.972 -23.739  0.00  0.00    +0.078 C 
BRANCH  25  26
ATOM     26  N   UNL     1      32.612 -13.322 -24.998  0.00  0.00    -0.352 N 
ATOM     27  H   UNL     1      31.677 -13.135 -25.243  0.00  0.00    +0.143 HD
ATOM     28  H   UNL     1      33.212 -13.758 -25.645  0.00  0.00    +0.143 HD
ENDBRANCH  25  26
ENDBRANCH  21  25
ENDBRANCH  17  18
ENDBRANCH  16  17
ENDBRANCH   1  16
TORSDOF 7
ENDMDL
MODEL 2
REMARK VINA RESULT:     -13.3      1.644      2.536
REMARK  Name = 25065981
REMARK  7 active torsions:
REMARK  status: ('A' for Active; 'I' for Inactive)
REMARK    1  A    between atoms: C_1  and  C_3
REMARK    2  A    between atoms: C_1  and  C_16
REMARK    3  A    between atoms: C_11  and  O_13
REMARK    4  A    between atoms: C_16  and  O_17
REMARK    5  A    between atoms: O_17  and  C_18
REMARK    6  A    between atoms: C_21  and  C_25
REMARK    7  A    between atoms: C_25  and  N_26
REMARK                            x       y       z     vdW  Elec       q    Type
REMARK                         _______ _______ _______ _____ _____    ______ ____
ROOT
ATOM      1  C   UNL     1      34.913 -18.159 -22.217  0.00  0.00    +0.122 C 
ATOM      2  C   UNL     1      33.845 -18.422 -23.297  0.00  0.00    +0.016 C 
ENDROOT
BRANCH   1   3
ATOM      3  C   UNL     1      34.888 -19.152 -21.105  0.00  0.00    -0.012 C 
ATOM      4  C   UNL     1      33.627 -20.580 -19.592  0.00  0.00    -0.000 C 
ATOM      5  C   UNL     1      33.669 -19.644 -20.638  0.00  0.00    -0.004 C 
ATOM      6  C   UNL     1      34.839 -21.024 -19.012  0.00  0.00    +0.003 C 
ATOM      7  C   UNL     1      36.080 -19.589 -20.535  0.00  0.00    -0.004 C 
ATOM      8  C   UNL     1      36.058 -20.518 -19.495  0.00  0.00    -0.000 C 
ATOM      9  C   UNL     1      32.410 -21.086 -19.109  0.00  0.00    +0.003 C 
ATOM     10  C   UNL     1      34.799 -21.960 -17.965  0.00  0.00    +0.037 C 
ATOM     11  C   UNL     1      33.580 -22.452 -17.499  0.00  0.00    +0.139 C 
ATOM     12  C   UNL     1      32.388 -22.016 -18.069  0.00  0.00    +0.037 C 
BRANCH  11  13
ATOM     13  O   UNL     1      33.556 -23.359 -16.484  0.00  0.00    -0.471 OA
ATOM     14  C   UNL     1      33.295 -22.862 -15.174  0.00  0.00    +0.252 C 
ENDBRANCH  11  13
ENDBRANCH   1   3
BRANCH   1  16
ATOM     15  O   UNL     1      34.674 -16.393 -20.543  0.00  0.00    -0.249 OA
ATOM     16  C   UNL     1      34.789 -16.712 -21.720  0.00  0.00    +0.325 C 
BRANCH  16  17
ATOM     17  O   UNL     1      34.854 -15.836 -22.804  0.00  0.00    -0.424 OA
BRANCH  17  18
ATOM     18  C   UNL     1      34.056 -14.702 -22.640  0.00  0.00    +0.148 C 
ATOM     19  C   UNL     1      33.869 -14.159 -21.368  0.00  0.00    +0.038 C 
ATOM     20  C   UNL     1      33.445 -14.114 -23.746  0.00  0.00    +0.038 C 
ATOM     21  C   UNL     1      32.459 -12.439 -22.312  0.00  0.00    +0.020 C 
ATOM     22  C   UNL     1      33.070 -13.027 -21.204  0.00  0.00    +0.005 C 
ATOM     23  C   UNL     1      32.646 -12.982 -23.582  0.00  0.00    +0.005 C 
BRANCH  21  25
ATOM     24  S   UNL     1      31.910  -9.756 -22.864  0.00  0.00    -0.035 S 
ATOM     25  C   UNL     1      31.626 -11.260 -22.140  0.00  0.00    +0.078 C 
BRANCH  25  26
ATOM     26  N   UNL     1      30.515 -11.406 -21.319  0.00  0.00    -0.352 N 
ATOM     27  H   UNL     1      29.648 -11.028 -21.592  0.00  0.00    +0.143 HD
ATOM     28  H   UNL     1      30.594 -11.889 -20.464  0.00  0.00    +0.143 HD
ENDBRANCH  25  26
ENDBRANCH  21  25
ENDBRANCH  17  18
ENDBRANCH  16  17
ENDBRANCH   1  16
TORSDOF 7
ENDMDL
MODEL 3
REMARK VINA RESULT:     -13.0      2.094      3.501
REMARK  Name = 25065981
REMARK  7 active torsions:
REMARK  status: ('A' for Active; 'I' for Inactive)
REMARK    1  A    between atoms: C_1  and  C_3
REMARK    2  A    between atoms: C_1  and  C_16
REMARK    3  A    between atoms: C_11  and  O_13
REMARK    4  A    between atoms: C_16  and  O_17
REMARK    5  A    between atoms: O_17  and  C_18
REMARK    6  A    between atoms: C_21  and  C_25
REMARK    7  A    between atoms: C_25  and  N_26
REMARK                            x       y       z     vdW  Elec       q    Type
REMARK                         _______ _______ _______ _____ _____    ______ ____
ROOT
ATOM      1  C   UNL     1      34.820 -17.018 -22.822  0.00  0.00    +0.122 C 
ATOM      2  C   UNL     1      33.811 -17.327 -23.946  0.00  0.00    +0.016 C 
ENDROOT
BRANCH   1   3
ATOM      3  C   UNL     1      34.925 -18.105 -21.807  0.00  0.00    -0.012 C 
ATOM      4  C   UNL     1      33.856 -19.792 -20.417  0.00  0.00    -0.000 C 
ATOM      5  C   UNL     1      33.776 -18.767 -21.373  0.00  0.00    -0.004 C 
ATOM      6  C   UNL     1      35.121 -20.152 -19.893  0.00  0.00    +0.003 C 
ATOM      7  C   UNL     1      36.169 -18.459 -21.292  0.00  0.00    -0.004 C 
ATOM      8  C   UNL     1      36.268 -19.476 -20.341  0.00  0.00    -0.000 C 
ATOM      9  C   UNL     1      32.711 -20.469 -19.969  0.00  0.00    +0.003 C 
ATOM     10  C   UNL     1      35.203 -21.177 -18.937  0.00  0.00    +0.037 C 
ATOM     11  C   UNL     1      34.054 -21.839 -18.504  0.00  0.00    +0.139 C 
ATOM     12  C   UNL     1      32.810 -21.485 -19.019  0.00  0.00    +0.037 C 
BRANCH  11  13
ATOM     13  O   UNL     1      34.148 -22.832 -17.577  0.00  0.00    -0.471 OA
ATOM     14  C   UNL     1      33.208 -22.812 -16.506  0.00  0.00    +0.252 C 
ENDBRANCH  11  13
ENDBRANCH   1   3
BRANCH   1  16
ATOM     15  O   UNL     1      34.406 -15.449 -20.994  0.00  0.00    -0.249 OA
ATOM     16  C   UNL     1      34.488 -15.656 -22.199  0.00  0.00    +0.325 C 
BRANCH  16  17
ATOM     17  O   UNL     1      34.325 -14.706 -23.207  0.00  0.00    -0.424 OA
BRANCH  17  18
ATOM     18  C   UNL     1      33.572 -13.602 -22.802  0.00  0.00    +0.148 C 
ATOM     19  C   UNL     1      33.502 -12.469 -23.614  0.00  0.00    +0.038 C 
ATOM     20  C   UNL     1      32.892 -13.631 -21.585  0.00  0.00    +0.038 C 
ATOM     21  C   UNL     1      32.071 -11.395 -21.990  0.00  0.00    +0.020 C 
ATOM     22  C   UNL     1      32.752 -11.366 -23.208  0.00  0.00    +0.005 C 
ATOM     23  C   UNL     1      32.141 -12.527 -21.179  0.00  0.00    +0.005 C 
BRANCH  21  25
ATOM     24  S   UNL     1      30.935  -8.902 -22.537  0.00  0.00    -0.035 S 
ATOM     25  C   UNL     1      31.290 -10.244 -21.568  0.00  0.00    +0.078 C 
BRANCH  25  26
ATOM     26  N   UNL     1      30.802 -10.276 -20.268  0.00  0.00    -0.352 N 
ATOM     27  H   UNL     1      30.434 -11.113 -19.900  0.00  0.00    +0.143 HD
ATOM     28  H   UNL     1      30.823  -9.463 -19.713  0.00  0.00    +0.143 HD
ENDBRANCH  25  26
ENDBRANCH  21  25
ENDBRANCH  17  18
ENDBRANCH  16  17
ENDBRANCH   1  16
TORSDOF 7
ENDMDL
MODEL 4
REMARK VINA RESULT:     -12.6      4.183      8.957
REMARK  Name = 25065981
REMARK  7 active torsions:
REMARK  status: ('A' for Active; 'I' for Inactive)
REMARK    1  A    between atoms: C_1  and  C_3
REMARK    2  A    between atoms: C_1  and  C_16
REMARK    3  A    between atoms: C_11  and  O_13
REMARK    4  A    between atoms: C_16  and  O_17
REMARK    5  A    between atoms: O_17  and  C_18
REMARK    6  A    between atoms: C_21  and  C_25
REMARK    7  A    between atoms: C_25  and  N_26
REMARK                            x       y       z     vdW  Elec       q    Type
REMARK                         _______ _______ _______ _____ _____    ______ ____
ROOT
ATOM      1  C   UNL     1      35.348 -17.810 -22.456  0.00  0.00    +0.122 C 
ATOM      2  C   UNL     1      36.747 -17.936 -21.821  0.00  0.00    +0.016 C 
ENDROOT
BRANCH   1   3
ATOM      3  C   UNL     1      34.676 -16.514 -22.154  0.00  0.00    -0.012 C 
ATOM      4  C   UNL     1      33.657 -14.444 -22.929  0.00  0.00    -0.000 C 
ATOM      5  C   UNL     1      34.291 -15.669 -23.196  0.00  0.00    -0.004 C 
ATOM      6  C   UNL     1      33.410 -14.072 -21.586  0.00  0.00    +0.003 C 
ATOM      7  C   UNL     1      34.433 -16.147 -20.834  0.00  0.00    -0.004 C 
ATOM      8  C   UNL     1      33.804 -14.935 -20.550  0.00  0.00    -0.000 C 
ATOM      9  C   UNL     1      33.263 -13.582 -23.964  0.00  0.00    +0.003 C 
ATOM     10  C   UNL     1      32.776 -12.847 -21.318  0.00  0.00    +0.037 C 
ATOM     11  C   UNL     1      32.391 -12.003 -22.360  0.00  0.00    +0.139 C 
ATOM     12  C   UNL     1      32.634 -12.370 -23.680  0.00  0.00    +0.037 C 
BRANCH  11  13
ATOM     13  O   UNL     1      31.777 -10.819 -22.085  0.00  0.00    -0.471 OA
ATOM     14  C   UNL     1      31.139 -10.698 -20.816  0.00  0.00    +0.252 C 
ENDBRANCH  11  13
ENDBRANCH   1   3
BRANCH   1  16
ATOM     15  O   UNL     1      33.346 -19.214 -22.435  0.00  0.00    -0.249 OA
ATOM     16  C   UNL     1      34.497 -19.024 -22.060  0.00  0.00    +0.325 C 
BRANCH  16  17
ATOM     17  O   UNL     1      35.242 -19.872 -21.241  0.00  0.00    -0.424 OA
BRANCH  17  18
ATOM     18  C   UNL     1      34.482 -20.464 -20.230  0.00  0.00    +0.148 C 
ATOM     19  C   UNL     1      35.095 -21.295 -19.291  0.00  0.00    +0.038 C 
ATOM     20  C   UNL     1      33.109 -20.227 -20.160  0.00  0.00    +0.038 C 
ATOM     21  C   UNL     1      32.962 -21.650 -18.214  0.00  0.00    +0.020 C 
ATOM     22  C   UNL     1      34.335 -21.887 -18.283  0.00  0.00    +0.005 C 
ATOM     23  C   UNL     1      32.349 -20.820 -19.152  0.00  0.00    +0.005 C 
BRANCH  21  25
ATOM     24  S   UNL     1      32.803 -23.129 -15.849  0.00  0.00    -0.035 S 
ATOM     25  C   UNL     1      32.171 -22.269 -17.163  0.00  0.00    +0.078 C 
BRANCH  25  26
ATOM     26  N   UNL     1      30.793 -22.122 -17.264  0.00  0.00    -0.352 N 
ATOM     27  H   UNL     1      30.385 -21.891 -18.130  0.00  0.00    +0.143 HD
ATOM     28  H   UNL     1      30.224 -22.250 -16.471  0.00  0.00    +0.143 HD
ENDBRANCH  25  26
ENDBRANCH  21  25
ENDBRANCH  17  18
ENDBRANCH  16  17
ENDBRANCH   1  16
TORSDOF 7
ENDMDL
MODEL 5
REMARK VINA RESULT:     -12.6      4.197      8.915
REMARK  Name = 25065981
REMARK  7 active torsions:
REMARK  status: ('A' for Active; 'I' for Inactive)
REMARK    1  A    between atoms: C_1  and  C_3
REMARK    2  A    between atoms: C_1  and  C_16
REMARK    3  A    between atoms: C_11  and  O_13
REMARK    4  A    between atoms: C_16  and  O_17
REMARK    5  A    between atoms: O_17  and  C_18
REMARK    6  A    between atoms: C_21  and  C_25
REMARK    7  A    between atoms: C_25  and  N_26
REMARK                            x       y       z     vdW  Elec       q    Type
REMARK                         _______ _______ _______ _____ _____    ______ ____
ROOT
ATOM      1  C   UNL     1      35.395 -18.067 -22.513  0.00  0.00    +0.122 C 
ATOM      2  C   UNL     1      36.657 -17.935 -21.637  0.00  0.00    +0.016 C 
ENDROOT
BRANCH   1   3
ATOM      3  C   UNL     1      34.689 -16.772 -22.731  0.00  0.00    -0.012 C 
ATOM      4  C   UNL     1      33.761 -14.708 -21.836  0.00  0.00    -0.000 C 
ATOM      5  C   UNL     1      34.425 -15.931 -21.648  0.00  0.00    -0.004 C 
ATOM      6  C   UNL     1      33.359 -14.332 -23.139  0.00  0.00    +0.003 C 
ATOM      7  C   UNL     1      34.293 -16.401 -24.013  0.00  0.00    -0.004 C 
ATOM      8  C   UNL     1      33.633 -15.190 -24.218  0.00  0.00    -0.000 C 
ATOM      9  C   UNL     1      33.488 -13.850 -20.759  0.00  0.00    +0.003 C 
ATOM     10  C   UNL     1      32.695 -13.108 -23.328  0.00  0.00    +0.037 C 
ATOM     11  C   UNL     1      32.432 -12.268 -22.246  0.00  0.00    +0.139 C 
ATOM     12  C   UNL     1      32.828 -12.638 -20.964  0.00  0.00    +0.037 C 
BRANCH  11  13
ATOM     13  O   UNL     1      31.788 -11.085 -22.444  0.00  0.00    -0.471 OA
ATOM     14  C   UNL     1      30.801 -10.714 -21.484  0.00  0.00    +0.252 C 
ENDBRANCH  11  13
ENDBRANCH   1   3
BRANCH   1  16
ATOM     15  O   UNL     1      33.292 -19.277 -22.207  0.00  0.00    -0.249 OA
ATOM     16  C   UNL     1      34.478 -19.149 -21.927  0.00  0.00    +0.325 C 
BRANCH  16  17
ATOM     17  O   UNL     1      35.207 -19.963 -21.060  0.00  0.00    -0.424 OA
BRANCH  17  18
ATOM     18  C   UNL     1      34.420 -20.547 -20.066  0.00  0.00    +0.148 C 
ATOM     19  C   UNL     1      35.006 -21.381 -19.112  0.00  0.00    +0.038 C 
ATOM     20  C   UNL     1      33.048 -20.300 -20.027  0.00  0.00    +0.038 C 
ATOM     21  C   UNL     1      32.846 -21.719 -18.082  0.00  0.00    +0.020 C 
ATOM     22  C   UNL     1      34.219 -21.966 -18.120  0.00  0.00    +0.005 C 
ATOM     23  C   UNL     1      32.261 -20.886 -19.035  0.00  0.00    +0.005 C 
BRANCH  21  25
ATOM     24  S   UNL     1      32.624 -23.181 -15.712  0.00  0.00    -0.035 S 
ATOM     25  C   UNL     1      32.027 -22.330 -17.048  0.00  0.00    +0.078 C 
BRANCH  25  26
ATOM     26  N   UNL     1      30.653 -22.183 -17.187  0.00  0.00    -0.352 N 
ATOM     27  H   UNL     1      30.178 -22.654 -17.911  0.00  0.00    +0.143 HD
ATOM     28  H   UNL     1      30.152 -21.609 -16.564  0.00  0.00    +0.143 HD
ENDBRANCH  25  26
ENDBRANCH  21  25
ENDBRANCH  17  18
ENDBRANCH  16  17
ENDBRANCH   1  16
TORSDOF 7
ENDMDL
MODEL 6
REMARK VINA RESULT:     -12.6      4.407      9.181
REMARK  Name = 25065981
REMARK  7 active torsions:
REMARK  status: ('A' for Active; 'I' for Inactive)
REMARK    1  A    between atoms: C_1  and  C_3
REMARK    2  A    between atoms: C_1  and  C_16
REMARK    3  A    between atoms: C_11  and  O_13
REMARK    4  A    between atoms: C_16  and  O_17
REMARK    5  A    between atoms: O_17  and  C_18
REMARK    6  A    between atoms: C_21  and  C_25
REMARK    7  A    between atoms: C_25  and  N_26
REMARK                            x       y       z     vdW  Elec       q    Type
REMARK                         _______ _______ _______ _____ _____    ______ ____
ROOT
ATOM      1  C   UNL     1      35.357 -18.603 -21.910  0.00  0.00    +0.122 C 
ATOM      2  C   UNL     1      36.775 -18.477 -21.318  0.00  0.00    +0.016 C 
ENDROOT
BRANCH   1   3
ATOM      3  C   UNL     1      34.778 -17.298 -22.340  0.00  0.00    -0.012 C 
ATOM      4  C   UNL     1      34.039 -15.046 -21.794  0.00  0.00    -0.000 C 
ATOM      5  C   UNL     1      34.584 -16.281 -21.406  0.00  0.00    -0.004 C 
ATOM      6  C   UNL     1      33.688 -14.840 -23.149  0.00  0.00    +0.003 C 
ATOM      7  C   UNL     1      34.433 -17.096 -23.673  0.00  0.00    -0.004 C 
ATOM      8  C   UNL     1      33.891 -15.875 -24.077  0.00  0.00    -0.000 C 
ATOM      9  C   UNL     1      33.837 -14.011 -20.868  0.00  0.00    +0.003 C 
ATOM     10  C   UNL     1      33.143 -13.605 -23.538  0.00  0.00    +0.037 C 
ATOM     11  C   UNL     1      32.949 -12.587 -22.604  0.00  0.00    +0.139 C 
ATOM     12  C   UNL     1      33.295 -12.790 -21.271  0.00  0.00    +0.037 C 
BRANCH  11  13
ATOM     13  O   UNL     1      32.421 -11.396 -22.996  0.00  0.00    -0.471 OA
ATOM     14  C   UNL     1      31.550 -10.738 -22.079  0.00  0.00    +0.252 C 
ENDBRANCH  11  13
ENDBRANCH   1   3
BRANCH   1  16
ATOM     15  O   UNL     1      33.504 -18.850 -20.334  0.00  0.00    -0.249 OA
ATOM     16  C   UNL     1      34.456 -19.353 -20.920  0.00  0.00    +0.325 C 
BRANCH  16  17
ATOM     17  O   UNL     1      34.872 -20.680 -20.818  0.00  0.00    -0.424 OA
BRANCH  17  18
ATOM     18  C   UNL     1      34.917 -21.140 -19.500  0.00  0.00    +0.148 C 
ATOM     19  C   UNL     1      33.801 -21.765 -18.941  0.00  0.00    +0.038 C 
ATOM     20  C   UNL     1      36.075 -20.974 -18.742  0.00  0.00    +0.038 C 
ATOM     21  C   UNL     1      35.003 -22.055 -16.866  0.00  0.00    +0.020 C 
ATOM     22  C   UNL     1      33.844 -22.222 -17.625  0.00  0.00    +0.005 C 
ATOM     23  C   UNL     1      36.118 -21.432 -17.425  0.00  0.00    +0.005 C 
BRANCH  21  25
ATOM     24  S   UNL     1      36.383 -23.277 -14.767  0.00  0.00    -0.035 S 
ATOM     25  C   UNL     1      35.048 -22.533 -15.494  0.00  0.00    +0.078 C 
BRANCH  25  26
ATOM     26  N   UNL     1      33.896 -22.345 -14.741  0.00  0.00    -0.352 N 
ATOM     27  H   UNL     1      33.185 -23.027 -14.749  0.00  0.00    +0.143 HD
ATOM     28  H   UNL     1      33.789 -21.530 -14.199  0.00  0.00    +0.143 HD
ENDBRANCH  25  26
ENDBRANCH  21  25
ENDBRANCH  17  18
ENDBRANCH  16  17
ENDBRANCH   1  16
TORSDOF 7
ENDMDL
MODEL 7
REMARK VINA RESULT:     -12.1      4.418      9.822
REMARK  Name = 25065981
REMARK  7 active torsions:
REMARK  status: ('A' for Active; 'I' for Inactive)
REMARK    1  A    between atoms: C_1  and  C_3
REMARK    2  A    between atoms: C_1  and  C_16
REMARK    3  A    between atoms: C_11  and  O_13
REMARK    4  A    between atoms: C_16  and  O_17
REMARK    5  A    between atoms: O_17  and  C_18
REMARK    6  A    between atoms: C_21  and  C_25
REMARK    7  A    between atoms: C_25  and  N_26
REMARK                            x       y       z     vdW  Elec       q    Type
REMARK                         _______ _______ _______ _____ _____    ______ ____
ROOT
ATOM      1  C   UNL     1      33.469 -15.220 -23.295  0.00  0.00    +0.122 C 
ATOM      2  C   UNL     1      34.099 -15.551 -24.662  0.00  0.00    +0.016 C 
ENDROOT
BRANCH   1   3
ATOM      3  C   UNL     1      33.095 -13.784 -23.148  0.00  0.00    -0.012 C 
ATOM      4  C   UNL     1      32.073 -12.002 -21.845  0.00  0.00    -0.000 C 
ATOM      5  C   UNL     1      32.432 -13.351 -21.999  0.00  0.00    -0.004 C 
ATOM      6  C   UNL     1      32.391 -11.080 -22.870  0.00  0.00    +0.003 C 
ATOM      7  C   UNL     1      33.408 -12.877 -24.156  0.00  0.00    -0.004 C 
ATOM      8  C   UNL     1      33.059 -11.533 -24.019  0.00  0.00    -0.000 C 
ATOM      9  C   UNL     1      31.405 -11.548 -20.696  0.00  0.00    +0.003 C 
ATOM     10  C   UNL     1      32.032  -9.730 -22.716  0.00  0.00    +0.037 C 
ATOM     11  C   UNL     1      31.370  -9.297 -21.568  0.00  0.00    +0.139 C 
ATOM     12  C   UNL     1      31.057 -10.205 -20.560  0.00  0.00    +0.037 C 
BRANCH  11  13
ATOM     13  O   UNL     1      31.029  -7.986 -21.433  0.00  0.00    -0.471 OA
ATOM     14  C   UNL     1      31.568  -7.287 -20.313  0.00  0.00    +0.252 C 
ENDBRANCH  11  13
ENDBRANCH   1   3
BRANCH   1  16
ATOM     15  O   UNL     1      34.439 -15.221 -21.051  0.00  0.00    -0.249 OA
ATOM     16  C   UNL     1      34.397 -15.708 -22.174  0.00  0.00    +0.325 C 
BRANCH  16  17
ATOM     17  O   UNL     1      35.149 -16.792 -22.626  0.00  0.00    -0.424 OA
BRANCH  17  18
ATOM     18  C   UNL     1      35.102 -17.889 -21.762  0.00  0.00    +0.148 C 
ATOM     19  C   UNL     1      36.249 -18.283 -21.073  0.00  0.00    +0.038 C 
ATOM     20  C   UNL     1      33.909 -18.591 -21.591  0.00  0.00    +0.038 C 
ATOM     21  C   UNL     1      35.009 -20.082 -20.040  0.00  0.00    +0.020 C 
ATOM     22  C   UNL     1      36.202 -19.379 -20.212  0.00  0.00    +0.005 C 
ATOM     23  C   UNL     1      33.863 -19.687 -20.730  0.00  0.00    +0.005 C 
BRANCH  21  25
ATOM     24  S   UNL     1      33.680 -22.325 -19.038  0.00  0.00    -0.035 S 
ATOM     25  C   UNL     1      34.962 -21.224 -19.143  0.00  0.00    +0.078 C 
BRANCH  25  26
ATOM     26  N   UNL     1      36.069 -21.409 -18.325  0.00  0.00    -0.352 N 
ATOM     27  H   UNL     1      36.309 -22.314 -18.018  0.00  0.00    +0.143 HD
ATOM     28  H   UNL     1      36.615 -20.636 -18.052  0.00  0.00    +0.143 HD
ENDBRANCH  25  26
ENDBRANCH  21  25
ENDBRANCH  17  18
ENDBRANCH  16  17
ENDBRANCH   1  16
TORSDOF 7
ENDMDL
MODEL 8
REMARK VINA RESULT:     -12.1      3.764      6.295
REMARK  Name = 25065981
REMARK  7 active torsions:
REMARK  status: ('A' for Active; 'I' for Inactive)
REMARK    1  A    between atoms: C_1  and  C_3
REMARK    2  A    between atoms: C_1  and  C_16
REMARK    3  A    between atoms: C_11  and  O_13
REMARK    4  A    between atoms: C_16  and  O_17
REMARK    5  A    between atoms: O_17  and  C_18
REMARK    6  A    between atoms: C_21  and  C_25
REMARK    7  A    between atoms: C_25  and  N_26
REMARK                            x       y       z     vdW  Elec       q    Type
REMARK                         _______ _______ _______ _____ _____    ______ ____
ROOT
ATOM      1  C   UNL     1      32.490 -23.221 -15.576  0.00  0.00    +0.122 C 
ATOM      2  C   UNL     1      31.735 -22.412 -14.502  0.00  0.00    +0.016 C 
ENDROOT
BRANCH   1   3
ATOM      3  C   UNL     1      33.957 -23.312 -15.324  0.00  0.00    -0.012 C 
ATOM      4  C   UNL     1      35.920 -24.654 -14.807  0.00  0.00    -0.000 C 
ATOM      5  C   UNL     1      34.540 -24.549 -15.046  0.00  0.00    -0.004 C 
ATOM      6  C   UNL     1      36.720 -23.487 -14.850  0.00  0.00    +0.003 C 
ATOM      7  C   UNL     1      34.744 -22.165 -15.367  0.00  0.00    -0.004 C 
ATOM      8  C   UNL     1      36.116 -22.250 -15.132  0.00  0.00    -0.000 C 
ATOM      9  C   UNL     1      36.524 -25.889 -14.525  0.00  0.00    +0.003 C 
ATOM     10  C   UNL     1      38.100 -23.590 -14.611  0.00  0.00    +0.037 C 
ATOM     11  C   UNL     1      38.683 -24.827 -14.333  0.00  0.00    +0.139 C 
ATOM     12  C   UNL     1      37.896 -25.974 -14.291  0.00  0.00    +0.037 C 
BRANCH  11  13
ATOM     13  O   UNL     1      40.022 -24.912 -14.104  0.00  0.00    -0.471 OA
ATOM     14  C   UNL     1      40.567 -26.215 -13.913  0.00  0.00    +0.252 C 
ENDBRANCH  11  13
ENDBRANCH   1   3
BRANCH   1  16
ATOM     15  O   UNL     1      31.169 -21.987 -17.221  0.00  0.00    -0.249 OA
ATOM     16  C   UNL     1      32.162 -22.656 -16.964  0.00  0.00    +0.325 C 
BRANCH  16  17
ATOM     17  O   UNL     1      33.174 -22.998 -17.861  0.00  0.00    -0.424 OA
BRANCH  17  18
ATOM     18  C   UNL     1      33.526 -21.950 -18.715  0.00  0.00    +0.148 C 
ATOM     19  C   UNL     1      34.872 -21.650 -18.932  0.00  0.00    +0.038 C 
ATOM     20  C   UNL     1      32.534 -21.204 -19.349  0.00  0.00    +0.038 C 
ATOM     21  C   UNL     1      34.230 -19.855 -20.416  0.00  0.00    +0.020 C 
ATOM     22  C   UNL     1      35.223 -20.602 -19.782  0.00  0.00    +0.005 C 
ATOM     23  C   UNL     1      32.886 -20.156 -20.200  0.00  0.00    +0.005 C 
BRANCH  21  25
ATOM     24  S   UNL     1      34.193 -18.665 -22.944  0.00  0.00    -0.035 S 
ATOM     25  C   UNL     1      34.598 -18.763 -21.303  0.00  0.00    +0.078 C 
BRANCH  25  26
ATOM     26  N   UNL     1      35.331 -17.730 -20.733  0.00  0.00    -0.352 N 
ATOM     27  H   UNL     1      35.808 -17.089 -21.309  0.00  0.00    +0.143 HD
ATOM     28  H   UNL     1      35.376 -17.639 -19.754  0.00  0.00    +0.143 HD
ENDBRANCH  25  26
ENDBRANCH  21  25
ENDBRANCH  17  18
ENDBRANCH  16  17
ENDBRANCH   1  16
TORSDOF 7
ENDMDL
MODEL 9
REMARK VINA RESULT:     -11.4      5.581      9.404
REMARK  Name = 25065981
REMARK  7 active torsions:
REMARK  status: ('A' for Active; 'I' for Inactive)
REMARK    1  A    between atoms: C_1  and  C_3
REMARK    2  A    between atoms: C_1  and  C_16
REMARK    3  A    between atoms: C_11  and  O_13
REMARK    4  A    between atoms: C_16  and  O_17
REMARK    5  A    between atoms: O_17  and  C_18
REMARK    6  A    between atoms: C_21  and  C_25
REMARK    7  A    between atoms: C_25  and  N_26
REMARK                            x       y       z     vdW  Elec       q    Type
REMARK                         _______ _______ _______ _____ _____    ______ ____
ROOT
ATOM      1  C   UNL     1      30.968 -10.250 -20.944  0.00  0.00    +0.122 C 
ATOM      2  C   UNL     1      31.261  -9.931 -19.465  0.00  0.00    +0.016 C 
ENDROOT
BRANCH   1   3
ATOM      3  C   UNL     1      31.794 -11.368 -21.483  0.00  0.00    -0.012 C 
ATOM      4  C   UNL     1      32.947 -13.483 -21.141  0.00  0.00    -0.000 C 
ATOM      5  C   UNL     1      32.169 -12.422 -20.649  0.00  0.00    -0.004 C 
ATOM      6  C   UNL     1      33.350 -13.475 -22.497  0.00  0.00    +0.003 C 
ATOM      7  C   UNL     1      32.191 -11.360 -22.817  0.00  0.00    -0.004 C 
ATOM      8  C   UNL     1      32.964 -12.406 -23.322  0.00  0.00    -0.000 C 
ATOM      9  C   UNL     1      33.333 -14.551 -20.316  0.00  0.00    +0.003 C 
ATOM     10  C   UNL     1      34.129 -14.535 -22.989  0.00  0.00    +0.037 C 
ATOM     11  C   UNL     1      34.503 -15.589 -22.155  0.00  0.00    +0.139 C 
ATOM     12  C   UNL     1      34.106 -15.597 -20.821  0.00  0.00    +0.037 C 
BRANCH  11  13
ATOM     13  O   UNL     1      35.257 -16.610 -22.647  0.00  0.00    -0.471 OA
ATOM     14  C   UNL     1      35.615 -17.650 -21.738  0.00  0.00    +0.252 C 
ENDBRANCH  11  13
ENDBRANCH   1   3
BRANCH   1  16
ATOM     15  O   UNL     1      30.326  -8.650 -22.678  0.00  0.00    -0.249 OA
ATOM     16  C   UNL     1      31.093  -8.967 -21.777  0.00  0.00    +0.325 C 
BRANCH  16  17
ATOM     17  O   UNL     1      32.185  -8.223 -21.330  0.00  0.00    -0.424 OA
BRANCH  17  18
ATOM     18  C   UNL     1      32.595  -7.250 -22.244  0.00  0.00    +0.148 C 
ATOM     19  C   UNL     1      32.180  -5.927 -22.087  0.00  0.00    +0.038 C 
ATOM     20  C   UNL     1      33.417  -7.601 -23.314  0.00  0.00    +0.038 C 
ATOM     21  C   UNL     1      33.410  -5.307 -24.073  0.00  0.00    +0.020 C 
ATOM     22  C   UNL     1      32.588  -4.956 -23.001  0.00  0.00    +0.005 C 
ATOM     23  C   UNL     1      33.825  -6.629 -24.229  0.00  0.00    +0.005 C 
BRANCH  21  25
ATOM     24  S   UNL     1      35.220  -4.389 -25.992  0.00  0.00    -0.035 S 
ATOM     25  C   UNL     1      33.834  -4.294 -25.025  0.00  0.00    +0.078 C 
BRANCH  25  26
ATOM     26  N   UNL     1      33.019  -3.175 -25.135  0.00  0.00    -0.352 N 
ATOM     27  H   UNL     1      32.076  -3.223 -24.855  0.00  0.00    +0.143 HD
ATOM     28  H   UNL     1      33.382  -2.333 -25.494  0.00  0.00    +0.143 HD
ENDBRANCH  25  26
ENDBRANCH  21  25
ENDBRANCH  17  18
ENDBRANCH  16  17
ENDBRANCH   1  16
TORSDOF 7
ENDMDL
