MODEL 1
REMARK VINA RESULT:     -10.0      0.000      0.000
REMARK  Name = 9882972
REMARK  3 active torsions:
REMARK  status: ('A' for Active; 'I' for Inactive)
REMARK    1  A    between atoms: N_4  and  C_12
REMARK    2  A    between atoms: C_6  and  O_21
REMARK    3  A    between atoms: C_18  and  C_20
REMARK                            x       y       z     vdW  Elec       q    Type
REMARK                         _______ _______ _______ _____ _____    ______ ____
ROOT
ATOM      1  O   UNL     1      34.873 -16.252 -20.357  0.00  0.00    -0.272 OA
ATOM      2  O   UNL     1      33.481 -18.869 -23.928  0.00  0.00    -0.252 OA
ATOM      3  N   UNL     1      34.390 -16.745 -23.734  0.00  0.00    -0.255 N 
ATOM      4  N   UNL     1      34.249 -17.971 -21.869  0.00  0.00    -0.191 N 
ATOM      5  C   UNL     1      34.867 -15.855 -22.718  0.00  0.00    +0.181 C 
ATOM      6  C   UNL     1      34.043 -14.602 -22.951  0.00  0.00    +0.139 C 
ATOM      7  C   UNL     1      33.937 -14.574 -24.485  0.00  0.00    +0.053 C 
ATOM      8  C   UNL     1      33.830 -16.054 -24.878  0.00  0.00    +0.098 C 
ATOM      9  C   UNL     1      34.650 -16.695 -21.476  0.00  0.00    +0.257 C 
ATOM     10  C   UNL     1      34.017 -18.000 -23.253  0.00  0.00    +0.317 C 
ENDROOT
BRANCH   4  12
ATOM     11 CL   UNL     1      36.134 -21.530 -18.619  0.00  0.00    -0.082 Cl
ATOM     12  C   UNL     1      34.016 -19.075 -20.988  0.00  0.00    +0.059 C 
ATOM     13  C   UNL     1      35.067 -19.697 -20.308  0.00  0.00    +0.004 C 
ATOM     14  C   UNL     1      32.708 -19.536 -20.805  0.00  0.00    +0.016 C 
ATOM     15  C   UNL     1      34.814 -20.771 -19.455  0.00  0.00    +0.064 C 
ATOM     16  C   UNL     1      36.463 -19.192 -20.513  0.00  0.00    +0.033 C 
ATOM     17  C   UNL     1      32.455 -20.610 -19.952  0.00  0.00    +0.012 C 
ATOM     18  C   UNL     1      33.508 -21.227 -19.277  0.00  0.00    +0.079 C 
BRANCH  18  20
ATOM     19  N   UNL     1      32.948 -23.213 -17.710  0.00  0.00    -0.191 NA
ATOM     20  C   UNL     1      33.198 -22.325 -18.410  0.00  0.00    +0.101 C 
ENDBRANCH  18  20
ENDBRANCH   4  12
BRANCH   6  21
ATOM     21  O   UNL     1      32.747 -14.737 -22.381  0.00  0.00    -0.382 OA
ATOM     22  H   UNL     1      32.156 -15.168 -23.018  0.00  0.00    +0.210 HD
ENDBRANCH   6  21
TORSDOF 3
ENDMDL
MODEL 2
REMARK VINA RESULT:      -9.4      7.932      9.889
REMARK  Name = 9882972
REMARK  3 active torsions:
REMARK  status: ('A' for Active; 'I' for Inactive)
REMARK    1  A    between atoms: N_4  and  C_12
REMARK    2  A    between atoms: C_6  and  O_21
REMARK    3  A    between atoms: C_18  and  C_20
REMARK                            x       y       z     vdW  Elec       q    Type
REMARK                         _______ _______ _______ _____ _____    ______ ____
ROOT
ATOM      1  O   UNL     1      36.240 -21.928 -13.901  0.00  0.00    -0.272 OA
ATOM      2  O   UNL     1      35.366 -26.240 -15.380  0.00  0.00    -0.252 OA
ATOM      3  N   UNL     1      37.124 -25.242 -14.245  0.00  0.00    -0.255 N 
ATOM      4  N   UNL     1      35.314 -23.988 -14.632  0.00  0.00    -0.191 N 
ATOM      5  C   UNL     1      37.496 -23.959 -13.727  0.00  0.00    +0.181 C 
ATOM      6  C   UNL     1      38.839 -23.703 -14.386  0.00  0.00    +0.139 C 
ATOM      7  C   UNL     1      39.457 -25.112 -14.401  0.00  0.00    +0.053 C 
ATOM      8  C   UNL     1      38.262 -26.040 -14.655  0.00  0.00    +0.098 C 
ATOM      9  C   UNL     1      36.285 -23.133 -14.110  0.00  0.00    +0.257 C 
ATOM     10  C   UNL     1      35.840 -25.279 -14.787  0.00  0.00    +0.317 C 
ENDROOT
BRANCH   4  12
ATOM     11 CL   UNL     1      30.329 -23.264 -13.445  0.00  0.00    -0.082 Cl
ATOM     12  C   UNL     1      33.999 -23.596 -15.041  0.00  0.00    +0.059 C 
ATOM     13  C   UNL     1      32.924 -23.617 -14.148  0.00  0.00    +0.004 C 
ATOM     14  C   UNL     1      33.791 -23.184 -16.361  0.00  0.00    +0.016 C 
ATOM     15  C   UNL     1      31.652 -23.232 -14.571  0.00  0.00    +0.064 C 
ATOM     16  C   UNL     1      33.162 -24.061 -12.736  0.00  0.00    +0.033 C 
ATOM     17  C   UNL     1      32.519 -22.798 -16.784  0.00  0.00    +0.012 C 
ATOM     18  C   UNL     1      31.450 -22.822 -15.888  0.00  0.00    +0.079 C 
BRANCH  18  20
ATOM     19  N   UNL     1      29.122 -22.086 -16.757  0.00  0.00    -0.191 NA
ATOM     20  C   UNL     1      30.163 -22.415 -16.369  0.00  0.00    +0.101 C 
ENDBRANCH  18  20
ENDBRANCH   4  12
BRANCH   6  21
ATOM     21  O   UNL     1      38.666 -23.239 -15.719  0.00  0.00    -0.382 OA
ATOM     22  H   UNL     1      38.285 -22.346 -15.705  0.00  0.00    +0.210 HD
ENDBRANCH   6  21
TORSDOF 3
ENDMDL
MODEL 3
REMARK VINA RESULT:      -9.4      8.017     10.408
REMARK  Name = 9882972
REMARK  3 active torsions:
REMARK  status: ('A' for Active; 'I' for Inactive)
REMARK    1  A    between atoms: N_4  and  C_12
REMARK    2  A    between atoms: C_6  and  O_21
REMARK    3  A    between atoms: C_18  and  C_20
REMARK                            x       y       z     vdW  Elec       q    Type
REMARK                         _______ _______ _______ _____ _____    ______ ____
ROOT
ATOM      1  O   UNL     1      35.239 -26.145 -15.696  0.00  0.00    -0.272 OA
ATOM      2  O   UNL     1      35.714 -22.156 -13.370  0.00  0.00    -0.252 OA
ATOM      3  N   UNL     1      37.141 -23.906 -13.893  0.00  0.00    -0.255 N 
ATOM      4  N   UNL     1      35.092 -23.958 -14.786  0.00  0.00    -0.191 N 
ATOM      5  C   UNL     1      37.122 -25.152 -14.602  0.00  0.00    +0.181 C 
ATOM      6  C   UNL     1      37.597 -26.144 -13.556  0.00  0.00    +0.139 C 
ATOM      7  C   UNL     1      38.649 -25.321 -12.793  0.00  0.00    +0.053 C 
ATOM      8  C   UNL     1      38.074 -23.899 -12.784  0.00  0.00    +0.098 C 
ATOM      9  C   UNL     1      35.689 -25.181 -15.091  0.00  0.00    +0.257 C 
ATOM     10  C   UNL     1      35.950 -23.188 -13.987  0.00  0.00    +0.317 C 
ENDROOT
BRANCH   4  12
ATOM     11 CL   UNL     1      30.101 -23.477 -13.505  0.00  0.00    -0.082 Cl
ATOM     12  C   UNL     1      33.763 -23.571 -15.150  0.00  0.00    +0.059 C 
ATOM     13  C   UNL     1      32.697 -23.697 -14.254  0.00  0.00    +0.004 C 
ATOM     14  C   UNL     1      33.530 -23.057 -16.430  0.00  0.00    +0.016 C 
ATOM     15  C   UNL     1      31.411 -23.314 -14.634  0.00  0.00    +0.064 C 
ATOM     16  C   UNL     1      32.961 -24.249 -12.886  0.00  0.00    +0.033 C 
ATOM     17  C   UNL     1      32.244 -22.673 -16.810  0.00  0.00    +0.012 C 
ATOM     18  C   UNL     1      31.185 -22.802 -15.912  0.00  0.00    +0.079 C 
BRANCH  18  20
ATOM     19  N   UNL     1      28.829 -22.063 -16.698  0.00  0.00    -0.191 NA
ATOM     20  C   UNL     1      29.882 -22.393 -16.347  0.00  0.00    +0.101 C 
ENDBRANCH  18  20
ENDBRANCH   4  12
BRANCH   6  21
ATOM     21  O   UNL     1      36.534 -26.499 -12.679  0.00  0.00    -0.382 OA
ATOM     22  H   UNL     1      36.713 -27.370 -12.289  0.00  0.00    +0.210 HD
ENDBRANCH   6  21
TORSDOF 3
ENDMDL
MODEL 4
REMARK VINA RESULT:      -9.4      5.867      9.610
REMARK  Name = 9882972
REMARK  3 active torsions:
REMARK  status: ('A' for Active; 'I' for Inactive)
REMARK    1  A    between atoms: N_4  and  C_12
REMARK    2  A    between atoms: C_6  and  O_21
REMARK    3  A    between atoms: C_18  and  C_20
REMARK                            x       y       z     vdW  Elec       q    Type
REMARK                         _______ _______ _______ _____ _____    ______ ____
ROOT
ATOM      1  O   UNL     1      35.890 -21.724 -13.549  0.00  0.00    -0.272 OA
ATOM      2  O   UNL     1      35.289 -25.838 -15.612  0.00  0.00    -0.252 OA
ATOM      3  N   UNL     1      36.050 -25.167 -13.527  0.00  0.00    -0.255 N 
ATOM      4  N   UNL     1      35.247 -23.579 -14.882  0.00  0.00    -0.191 N 
ATOM      5  C   UNL     1      36.259 -23.961 -12.782  0.00  0.00    +0.181 C 
ATOM      6  C   UNL     1      37.723 -24.055 -12.390  0.00  0.00    +0.139 C 
ATOM      7  C   UNL     1      37.883 -25.562 -12.124  0.00  0.00    +0.053 C 
ATOM      8  C   UNL     1      36.976 -26.222 -13.171  0.00  0.00    +0.098 C 
ATOM      9  C   UNL     1      35.800 -22.922 -13.783  0.00  0.00    +0.257 C 
ATOM     10  C   UNL     1      35.456 -24.962 -14.772  0.00  0.00    +0.317 C 
ENDROOT
BRANCH   4  12
ATOM     11 CL   UNL     1      35.715 -20.606 -19.092  0.00  0.00    -0.082 Cl
ATOM     12  C   UNL     1      34.636 -22.941 -16.008  0.00  0.00    +0.059 C 
ATOM     13  C   UNL     1      35.386 -22.171 -16.902  0.00  0.00    +0.004 C 
ATOM     14  C   UNL     1      33.261 -23.094 -16.214  0.00  0.00    +0.016 C 
ATOM     15  C   UNL     1      34.766 -21.558 -17.992  0.00  0.00    +0.064 C 
ATOM     16  C   UNL     1      36.858 -22.016 -16.669  0.00  0.00    +0.033 C 
ATOM     17  C   UNL     1      32.642 -22.481 -17.304  0.00  0.00    +0.012 C 
ATOM     18  C   UNL     1      33.395 -21.714 -18.192  0.00  0.00    +0.079 C 
BRANCH  18  20
ATOM     19  N   UNL     1      32.165 -20.613 -20.190  0.00  0.00    -0.191 NA
ATOM     20  C   UNL     1      32.715 -21.106 -19.297  0.00  0.00    +0.101 C 
ENDBRANCH  18  20
ENDBRANCH   4  12
BRANCH   6  21
ATOM     21  O   UNL     1      38.561 -23.664 -13.470  0.00  0.00    -0.382 OA
ATOM     22  H   UNL     1      38.415 -22.726 -13.671  0.00  0.00    +0.210 HD
ENDBRANCH   6  21
TORSDOF 3
ENDMDL
MODEL 5
REMARK VINA RESULT:      -9.3      7.576     10.183
REMARK  Name = 9882972
REMARK  3 active torsions:
REMARK  status: ('A' for Active; 'I' for Inactive)
REMARK    1  A    between atoms: N_4  and  C_12
REMARK    2  A    between atoms: C_6  and  O_21
REMARK    3  A    between atoms: C_18  and  C_20
REMARK                            x       y       z     vdW  Elec       q    Type
REMARK                         _______ _______ _______ _____ _____    ______ ____
ROOT
ATOM      1  O   UNL     1      35.312 -26.034 -15.677  0.00  0.00    -0.272 OA
ATOM      2  O   UNL     1      35.530 -22.163 -13.126  0.00  0.00    -0.252 OA
ATOM      3  N   UNL     1      37.032 -23.853 -13.636  0.00  0.00    -0.255 N 
ATOM      4  N   UNL     1      35.050 -23.900 -14.670  0.00  0.00    -0.191 N 
ATOM      5  C   UNL     1      37.092 -25.060 -14.406  0.00  0.00    +0.181 C 
ATOM      6  C   UNL     1      37.517 -26.095 -13.381  0.00  0.00    +0.139 C 
ATOM      7  C   UNL     1      38.495 -25.292 -12.506  0.00  0.00    +0.053 C 
ATOM      8  C   UNL     1      37.886 -23.884 -12.465  0.00  0.00    +0.098 C 
ATOM      9  C   UNL     1      35.696 -25.093 -14.994  0.00  0.00    +0.257 C 
ATOM     10  C   UNL     1      35.833 -23.155 -13.776  0.00  0.00    +0.317 C 
ENDROOT
BRANCH   4  12
ATOM     11 CL   UNL     1      32.045 -21.529 -18.152  0.00  0.00    -0.082 Cl
ATOM     12  C   UNL     1      33.740 -23.523 -15.106  0.00  0.00    +0.059 C 
ATOM     13  C   UNL     1      33.549 -22.792 -16.283  0.00  0.00    +0.004 C 
ATOM     14  C   UNL     1      32.633 -23.894 -14.337  0.00  0.00    +0.016 C 
ATOM     15  C   UNL     1      32.262 -22.435 -16.686  0.00  0.00    +0.064 C 
ATOM     16  C   UNL     1      34.744 -22.402 -17.098  0.00  0.00    +0.033 C 
ATOM     17  C   UNL     1      31.346 -23.537 -14.740  0.00  0.00    +0.012 C 
ATOM     18  C   UNL     1      31.161 -22.808 -15.915  0.00  0.00    +0.079 C 
BRANCH  18  20
ATOM     19  N   UNL     1      28.738 -22.189 -16.591  0.00  0.00    -0.191 NA
ATOM     20  C   UNL     1      29.821 -22.466 -16.289  0.00  0.00    +0.101 C 
ENDBRANCH  18  20
ENDBRANCH   4  12
BRANCH   6  21
ATOM     21  O   UNL     1      36.407 -26.517 -12.599  0.00  0.00    -0.382 OA
ATOM     22  H   UNL     1      35.817 -25.763 -12.440  0.00  0.00    +0.210 HD
ENDBRANCH   6  21
TORSDOF 3
ENDMDL
MODEL 6
REMARK VINA RESULT:      -9.3      8.402     10.844
REMARK  Name = 9882972
REMARK  3 active torsions:
REMARK  status: ('A' for Active; 'I' for Inactive)
REMARK    1  A    between atoms: N_4  and  C_12
REMARK    2  A    between atoms: C_6  and  O_21
REMARK    3  A    between atoms: C_18  and  C_20
REMARK                            x       y       z     vdW  Elec       q    Type
REMARK                         _______ _______ _______ _____ _____    ______ ____
ROOT
ATOM      1  O   UNL     1      35.211 -25.394 -15.557  0.00  0.00    -0.272 OA
ATOM      2  O   UNL     1      34.323 -23.180 -11.576  0.00  0.00    -0.252 OA
ATOM      3  N   UNL     1      36.253 -23.936 -12.613  0.00  0.00    -0.255 N 
ATOM      4  N   UNL     1      34.341 -24.112 -13.759  0.00  0.00    -0.191 N 
ATOM      5  C   UNL     1      36.652 -24.600 -13.819  0.00  0.00    +0.181 C 
ATOM      6  C   UNL     1      37.425 -25.801 -13.305  0.00  0.00    +0.139 C 
ATOM      7  C   UNL     1      38.141 -25.214 -12.076  0.00  0.00    +0.053 C 
ATOM      8  C   UNL     1      37.126 -24.223 -11.492  0.00  0.00    +0.098 C 
ATOM      9  C   UNL     1      35.312 -24.785 -14.500  0.00  0.00    +0.257 C 
ATOM     10  C   UNL     1      34.892 -23.642 -12.557  0.00  0.00    +0.317 C 
ENDROOT
BRANCH   4  12
ATOM     11 CL   UNL     1      30.725 -22.124 -16.882  0.00  0.00    -0.082 Cl
ATOM     12  C   UNL     1      32.961 -23.991 -14.118  0.00  0.00    +0.059 C 
ATOM     13  C   UNL     1      32.558 -23.206 -15.202  0.00  0.00    +0.004 C 
ATOM     14  C   UNL     1      32.000 -24.674 -13.366  0.00  0.00    +0.016 C 
ATOM     15  C   UNL     1      31.206 -23.104 -15.531  0.00  0.00    +0.064 C 
ATOM     16  C   UNL     1      33.598 -22.479 -15.999  0.00  0.00    +0.033 C 
ATOM     17  C   UNL     1      30.648 -24.572 -13.695  0.00  0.00    +0.012 C 
ATOM     18  C   UNL     1      30.252 -23.787 -14.777  0.00  0.00    +0.079 C 
BRANCH  18  20
ATOM     19  N   UNL     1      27.721 -23.655 -15.320  0.00  0.00    -0.191 NA
ATOM     20  C   UNL     1      28.852 -23.715 -15.077  0.00  0.00    +0.101 C 
ENDBRANCH  18  20
ENDBRANCH   4  12
BRANCH   6  21
ATOM     21  O   UNL     1      36.537 -26.835 -12.898  0.00  0.00    -0.382 OA
ATOM     22  H   UNL     1      37.031 -27.664 -12.797  0.00  0.00    +0.210 HD
ENDBRANCH   6  21
TORSDOF 3
ENDMDL
MODEL 7
REMARK VINA RESULT:      -9.2      8.156     10.281
REMARK  Name = 9882972
REMARK  3 active torsions:
REMARK  status: ('A' for Active; 'I' for Inactive)
REMARK    1  A    between atoms: N_4  and  C_12
REMARK    2  A    between atoms: C_6  and  O_21
REMARK    3  A    between atoms: C_18  and  C_20
REMARK                            x       y       z     vdW  Elec       q    Type
REMARK                         _______ _______ _______ _____ _____    ______ ____
ROOT
ATOM      1  O   UNL     1      34.484 -23.040 -11.899  0.00  0.00    -0.272 OA
ATOM      2  O   UNL     1      35.292 -25.723 -15.599  0.00  0.00    -0.252 OA
ATOM      3  N   UNL     1      36.327 -25.443 -13.544  0.00  0.00    -0.255 N 
ATOM      4  N   UNL     1      34.408 -24.347 -13.878  0.00  0.00    -0.191 N 
ATOM      5  C   UNL     1      36.169 -24.682 -12.340  0.00  0.00    +0.181 C 
ATOM      6  C   UNL     1      37.510 -23.984 -12.202  0.00  0.00    +0.139 C 
ATOM      7  C   UNL     1      38.482 -25.063 -12.709  0.00  0.00    +0.053 C 
ATOM      8  C   UNL     1      37.711 -25.757 -13.839  0.00  0.00    +0.098 C 
ATOM      9  C   UNL     1      34.922 -23.887 -12.666  0.00  0.00    +0.257 C 
ATOM     10  C   UNL     1      35.299 -25.257 -14.466  0.00  0.00    +0.317 C 
ENDROOT
BRANCH   4  12
ATOM     11 CL   UNL     1      32.055 -21.716 -17.663  0.00  0.00    -0.082 Cl
ATOM     12  C   UNL     1      33.194 -23.895 -14.488  0.00  0.00    +0.059 C 
ATOM     13  C   UNL     1      33.210 -23.114 -15.647  0.00  0.00    +0.004 C 
ATOM     14  C   UNL     1      31.970 -24.245 -13.910  0.00  0.00    +0.016 C 
ATOM     15  C   UNL     1      32.014 -22.685 -16.222  0.00  0.00    +0.064 C 
ATOM     16  C   UNL     1      34.529 -22.747 -16.257  0.00  0.00    +0.033 C 
ATOM     17  C   UNL     1      30.773 -23.816 -14.484  0.00  0.00    +0.012 C 
ATOM     18  C   UNL     1      30.796 -23.036 -15.641  0.00  0.00    +0.079 C 
BRANCH  18  20
ATOM     19  N   UNL     1      28.527 -22.285 -16.643  0.00  0.00    -0.191 NA
ATOM     20  C   UNL     1      29.541 -22.621 -16.195  0.00  0.00    +0.101 C 
ENDBRANCH  18  20
ENDBRANCH   4  12
BRANCH   6  21
ATOM     21  O   UNL     1      37.574 -22.842 -13.048  0.00  0.00    -0.382 OA
ATOM     22  H   UNL     1      38.498 -22.664 -13.283  0.00  0.00    +0.210 HD
ENDBRANCH   6  21
TORSDOF 3
ENDMDL
MODEL 8
REMARK VINA RESULT:      -9.2      5.902      9.874
REMARK  Name = 9882972
REMARK  3 active torsions:
REMARK  status: ('A' for Active; 'I' for Inactive)
REMARK    1  A    between atoms: N_4  and  C_12
REMARK    2  A    between atoms: C_6  and  O_21
REMARK    3  A    between atoms: C_18  and  C_20
REMARK                            x       y       z     vdW  Elec       q    Type
REMARK                         _______ _______ _______ _____ _____    ______ ____
ROOT
ATOM      1  O   UNL     1      36.700 -21.522 -13.494  0.00  0.00    -0.272 OA
ATOM      2  O   UNL     1      35.548 -25.529 -15.534  0.00  0.00    -0.252 OA
ATOM      3  N   UNL     1      36.134 -24.920 -13.376  0.00  0.00    -0.255 N 
ATOM      4  N   UNL     1      35.876 -23.274 -14.867  0.00  0.00    -0.191 N 
ATOM      5  C   UNL     1      36.485 -23.746 -12.634  0.00  0.00    +0.181 C 
ATOM      6  C   UNL     1      37.827 -24.115 -12.029  0.00  0.00    +0.139 C 
ATOM      7  C   UNL     1      37.632 -25.607 -11.711  0.00  0.00    +0.053 C 
ATOM      8  C   UNL     1      36.762 -26.123 -12.866  0.00  0.00    +0.098 C 
ATOM      9  C   UNL     1      36.396 -22.687 -13.713  0.00  0.00    +0.257 C 
ATOM     10  C   UNL     1      35.775 -24.663 -14.698  0.00  0.00    +0.317 C 
ENDROOT
BRANCH   4  12
ATOM     11 CL   UNL     1      32.366 -21.752 -18.352  0.00  0.00    -0.082 Cl
ATOM     12  C   UNL     1      35.574 -22.584 -16.084  0.00  0.00    +0.059 C 
ATOM     13  C   UNL     1      34.267 -22.511 -16.573  0.00  0.00    +0.004 C 
ATOM     14  C   UNL     1      36.611 -21.971 -16.795  0.00  0.00    +0.016 C 
ATOM     15  C   UNL     1      33.998 -21.832 -17.762  0.00  0.00    +0.064 C 
ATOM     16  C   UNL     1      33.165 -23.172 -15.801  0.00  0.00    +0.033 C 
ATOM     17  C   UNL     1      36.343 -21.293 -17.984  0.00  0.00    +0.012 C 
ATOM     18  C   UNL     1      35.036 -21.223 -18.467  0.00  0.00    +0.079 C 
BRANCH  18  20
ATOM     19  N   UNL     1      34.627 -19.940 -20.680  0.00  0.00    -0.191 NA
ATOM     20  C   UNL     1      34.810 -20.514 -19.691  0.00  0.00    +0.101 C 
ENDBRANCH  18  20
ENDBRANCH   4  12
BRANCH   6  21
ATOM     21  O   UNL     1      38.870 -23.959 -12.984  0.00  0.00    -0.382 OA
ATOM     22  H   UNL     1      38.498 -23.992 -13.879  0.00  0.00    +0.210 HD
ENDBRANCH   6  21
TORSDOF 3
ENDMDL
MODEL 9
REMARK VINA RESULT:      -8.7      6.079      9.959
REMARK  Name = 9882972
REMARK  3 active torsions:
REMARK  status: ('A' for Active; 'I' for Inactive)
REMARK    1  A    between atoms: N_4  and  C_12
REMARK    2  A    between atoms: C_6  and  O_21
REMARK    3  A    between atoms: C_18  and  C_20
REMARK                            x       y       z     vdW  Elec       q    Type
REMARK                         _______ _______ _______ _____ _____    ______ ____
ROOT
ATOM      1  O   UNL     1      35.478 -25.778 -15.378  0.00  0.00    -0.272 OA
ATOM      2  O   UNL     1      36.819 -21.534 -14.061  0.00  0.00    -0.252 OA
ATOM      3  N   UNL     1      37.471 -23.687 -13.497  0.00  0.00    -0.255 N 
ATOM      4  N   UNL     1      35.980 -23.470 -15.150  0.00  0.00    -0.191 N 
ATOM      5  C   UNL     1      37.156 -25.043 -13.837  0.00  0.00    +0.181 C 
ATOM      6  C   UNL     1      36.820 -25.660 -12.492  0.00  0.00    +0.139 C 
ATOM      7  C   UNL     1      37.822 -24.957 -11.561  0.00  0.00    +0.053 C 
ATOM      8  C   UNL     1      37.922 -23.535 -12.129  0.00  0.00    +0.098 C 
ATOM      9  C   UNL     1      36.075 -24.834 -14.877  0.00  0.00    +0.257 C 
ATOM     10  C   UNL     1      36.784 -22.742 -14.259  0.00  0.00    +0.317 C 
ENDROOT
BRANCH   4  12
ATOM     11 CL   UNL     1      31.189 -22.411 -16.796  0.00  0.00    -0.082 Cl
ATOM     12  C   UNL     1      35.122 -22.879 -16.132  0.00  0.00    +0.059 C 
ATOM     13  C   UNL     1      33.731 -22.926 -16.003  0.00  0.00    +0.004 C 
ATOM     14  C   UNL     1      35.691 -22.243 -17.240  0.00  0.00    +0.016 C 
ATOM     15  C   UNL     1      32.916 -22.343 -16.974  0.00  0.00    +0.064 C 
ATOM     16  C   UNL     1      33.134 -23.610 -14.811  0.00  0.00    +0.033 C 
ATOM     17  C   UNL     1      34.876 -21.661 -18.211  0.00  0.00    +0.012 C 
ATOM     18  C   UNL     1      33.489 -21.710 -18.077  0.00  0.00    +0.079 C 
BRANCH  18  20
ATOM     19  N   UNL     1      32.051 -20.601 -19.925  0.00  0.00    -0.191 NA
ATOM     20  C   UNL     1      32.694 -21.096 -19.099  0.00  0.00    +0.101 C 
ENDBRANCH  18  20
ENDBRANCH   4  12
BRANCH   6  21
ATOM     21  O   UNL     1      35.491 -25.332 -12.105  0.00  0.00    -0.382 OA
ATOM     22  H   UNL     1      34.862 -25.772 -12.699  0.00  0.00    +0.210 HD
ENDBRANCH   6  21
TORSDOF 3
ENDMDL
