MODEL 1
REMARK VINA RESULT:     -10.4      0.000      0.000
REMARK  Name = 123879
REMARK  7 active torsions:
REMARK  status: ('A' for Active; 'I' for Inactive)
REMARK    1  A    between atoms: N_1  and  C_26
REMARK    2  A    between atoms: C_2  and  N_14
REMARK    3  A    between atoms: N_14  and  S_16
REMARK    4  A    between atoms: S_16  and  C_20
REMARK    5  A    between atoms: C_26  and  C_27
REMARK    6  A    between atoms: C_27  and  C_29
REMARK    7  A    between atoms: C_29  and  O_30
REMARK                            x       y       z     vdW  Elec       q    Type
REMARK                         _______ _______ _______ _____ _____    ______ ____
ROOT
ATOM      1  N   UNL     1      37.537 -23.580 -13.513  0.00  0.00    -0.330 N 
ATOM      2  C   UNL     1      35.068 -21.570 -16.234  0.00  0.00    +0.080 C 
ATOM      3  C   UNL     1      34.638 -21.734 -14.760  0.00  0.00    +0.045 C 
ATOM      4  C   UNL     1      36.885 -22.828 -14.449  0.00  0.00    +0.033 A 
ATOM      5  C   UNL     1      35.616 -22.555 -13.985  0.00  0.00    -0.008 A 
ATOM      6  C   UNL     1      36.583 -21.314 -16.386  0.00  0.00    +0.024 C 
ATOM      7  C   UNL     1      37.458 -22.417 -15.757  0.00  0.00    +0.045 C 
ATOM      8  C   UNL     1      35.492 -23.161 -12.704  0.00  0.00    +0.013 A 
ATOM      9  C   UNL     1      36.708 -23.798 -12.433  0.00  0.00    +0.059 A 
ATOM     10  C   UNL     1      34.464 -23.232 -11.742  0.00  0.00    +0.001 C 
ATOM     11  C   UNL     1      36.943 -24.504 -11.249  0.00  0.00    +0.017 C 
ATOM     12  C   UNL     1      34.686 -23.935 -10.553  0.00  0.00    +0.000 C 
ATOM     13  C   UNL     1      35.906 -24.561 -10.312  0.00  0.00    +0.001 C 
ENDROOT
BRANCH   2  14
ATOM     14  N   UNL     1      34.698 -22.795 -16.998  0.00  0.00    -0.180 NA
ATOM     15  H   UNL     1      35.473 -22.992 -17.632  0.00  0.00    +0.149 HD
BRANCH  14  16
ATOM     16  S   UNL     1      33.283 -22.807 -17.932  0.00  0.00    +0.060 S 
ATOM     17  O   UNL     1      32.155 -22.417 -17.108  0.00  0.00    -0.153 OA
ATOM     18  O   UNL     1      33.240 -24.043 -18.690  0.00  0.00    -0.153 OA
BRANCH  16  20
ATOM     19  F   UNL     1      34.311 -18.477 -21.767  0.00  0.00    -0.204 F 
ATOM     20  C   UNL     1      33.592 -21.504 -19.086  0.00  0.00    +0.122 C 
ATOM     21  C   UNL     1      34.896 -21.235 -19.465  0.00  0.00    +0.022 C 
ATOM     22  C   UNL     1      32.526 -20.779 -19.586  0.00  0.00    +0.022 C 
ATOM     23  C   UNL     1      35.140 -20.206 -20.376  0.00  0.00    +0.031 C 
ATOM     24  C   UNL     1      32.770 -19.751 -20.497  0.00  0.00    +0.031 C 
ATOM     25  C   UNL     1      34.077 -19.464 -20.892  0.00  0.00    +0.140 C 
ENDBRANCH  16  20
ENDBRANCH  14  16
ENDBRANCH   2  14
BRANCH   1  26
ATOM     26  C   UNL     1      38.889 -24.084 -13.637  0.00  0.00    +0.117 C 
BRANCH  26  27
ATOM     27  C   UNL     1      38.965 -25.609 -13.727  0.00  0.00    +0.134 C 
BRANCH  27  29
ATOM     28  O   UNL     1      41.121 -26.744 -13.787  0.00  0.00    -0.250 OA
ATOM     29  C   UNL     1      40.244 -26.113 -14.360  0.00  0.00    +0.316 C 
BRANCH  29  30
ATOM     30  O   UNL     1      40.298 -25.805 -15.683  0.00  0.00    -0.480 OA
ATOM     31  H   UNL     1      40.325 -24.909 -15.954  0.00  0.00    +0.295 HD
ENDBRANCH  29  30
ENDBRANCH  27  29
ENDBRANCH  26  27
ENDBRANCH   1  26
TORSDOF 7
ENDMDL
MODEL 2
REMARK VINA RESULT:     -10.3      3.342      8.371
REMARK  Name = 123879
REMARK  7 active torsions:
REMARK  status: ('A' for Active; 'I' for Inactive)
REMARK    1  A    between atoms: N_1  and  C_26
REMARK    2  A    between atoms: C_2  and  N_14
REMARK    3  A    between atoms: N_14  and  S_16
REMARK    4  A    between atoms: S_16  and  C_20
REMARK    5  A    between atoms: C_26  and  C_27
REMARK    6  A    between atoms: C_27  and  C_29
REMARK    7  A    between atoms: C_29  and  O_30
REMARK                            x       y       z     vdW  Elec       q    Type
REMARK                         _______ _______ _______ _____ _____    ______ ____
ROOT
ATOM      1  N   UNL     1      33.599 -22.395 -17.251  0.00  0.00    -0.330 N 
ATOM      2  C   UNL     1      37.112 -22.320 -14.972  0.00  0.00    +0.080 C 
ATOM      3  C   UNL     1      36.957 -21.400 -16.203  0.00  0.00    +0.045 C 
ATOM      4  C   UNL     1      34.632 -22.356 -16.358  0.00  0.00    +0.033 A 
ATOM      5  C   UNL     1      35.672 -21.647 -16.922  0.00  0.00    -0.008 A 
ATOM      6  C   UNL     1      35.798 -22.473 -14.176  0.00  0.00    +0.024 C 
ATOM      7  C   UNL     1      34.626 -23.007 -15.023  0.00  0.00    +0.045 C 
ATOM      8  C   UNL     1      35.249 -21.228 -18.215  0.00  0.00    +0.013 A 
ATOM      9  C   UNL     1      33.949 -21.712 -18.396  0.00  0.00    +0.059 A 
ATOM     10  C   UNL     1      35.844 -20.483 -19.253  0.00  0.00    +0.001 C 
ATOM     11  C   UNL     1      33.217 -21.487 -19.567  0.00  0.00    +0.017 C 
ATOM     12  C   UNL     1      35.123 -20.251 -20.429  0.00  0.00    +0.000 C 
ATOM     13  C   UNL     1      33.830 -20.746 -20.582  0.00  0.00    +0.001 C 
ENDROOT
BRANCH   2  14
ATOM     14  N   UNL     1      37.578 -23.664 -15.413  0.00  0.00    -0.180 NA
ATOM     15  H   UNL     1      36.751 -24.179 -15.716  0.00  0.00    +0.149 HD
BRANCH  14  16
ATOM     16  S   UNL     1      38.407 -24.664 -14.323  0.00  0.00    +0.060 S 
ATOM     17  O   UNL     1      39.742 -24.141 -14.104  0.00  0.00    -0.153 OA
ATOM     18  O   UNL     1      38.223 -26.044 -14.730  0.00  0.00    -0.153 OA
BRANCH  16  20
ATOM     19  F   UNL     1      35.325 -23.906  -9.380  0.00  0.00    -0.204 F 
ATOM     20  C   UNL     1      37.480 -24.436 -12.836  0.00  0.00    +0.122 C 
ATOM     21  C   UNL     1      36.377 -25.237 -12.599  0.00  0.00    +0.022 C 
ATOM     22  C   UNL     1      37.875 -23.461 -11.937  0.00  0.00    +0.022 C 
ATOM     23  C   UNL     1      35.645 -25.057 -11.425  0.00  0.00    +0.031 C 
ATOM     24  C   UNL     1      37.143 -23.281 -10.764  0.00  0.00    +0.031 C 
ATOM     25  C   UNL     1      36.028 -24.079 -10.507  0.00  0.00    +0.140 C 
ENDBRANCH  16  20
ENDBRANCH  14  16
ENDBRANCH   2  14
BRANCH   1  26
ATOM     26  C   UNL     1      32.332 -23.062 -17.037  0.00  0.00    +0.117 C 
BRANCH  26  27
ATOM     27  C   UNL     1      31.447 -22.370 -15.998  0.00  0.00    +0.134 C 
BRANCH  27  29
ATOM     28  O   UNL     1      29.188 -22.095 -16.871  0.00  0.00    -0.250 OA
ATOM     29  C   UNL     1      29.976 -22.689 -16.149  0.00  0.00    +0.316 C 
BRANCH  29  30
ATOM     30  O   UNL     1      29.621 -23.763 -15.395  0.00  0.00    -0.480 OA
ATOM     31  H   UNL     1      29.159 -23.637 -14.589  0.00  0.00    +0.295 HD
ENDBRANCH  29  30
ENDBRANCH  27  29
ENDBRANCH  26  27
ENDBRANCH   1  26
TORSDOF 7
ENDMDL
MODEL 3
REMARK VINA RESULT:      -9.8      3.966      7.592
REMARK  Name = 123879
REMARK  7 active torsions:
REMARK  status: ('A' for Active; 'I' for Inactive)
REMARK    1  A    between atoms: N_1  and  C_26
REMARK    2  A    between atoms: C_2  and  N_14
REMARK    3  A    between atoms: N_14  and  S_16
REMARK    4  A    between atoms: S_16  and  C_20
REMARK    5  A    between atoms: C_26  and  C_27
REMARK    6  A    between atoms: C_27  and  C_29
REMARK    7  A    between atoms: C_29  and  O_30
REMARK                            x       y       z     vdW  Elec       q    Type
REMARK                         _______ _______ _______ _____ _____    ______ ____
ROOT
ATOM      1  N   UNL     1      32.624 -23.185 -16.438  0.00  0.00    -0.330 N 
ATOM      2  C   UNL     1      34.598 -24.273 -12.909  0.00  0.00    +0.080 C 
ATOM      3  C   UNL     1      33.067 -24.072 -12.920  0.00  0.00    +0.045 C 
ATOM      4  C   UNL     1      33.351 -23.673 -15.390  0.00  0.00    +0.033 A 
ATOM      5  C   UNL     1      32.578 -23.603 -14.251  0.00  0.00    -0.008 A 
ATOM      6  C   UNL     1      35.119 -24.937 -14.202  0.00  0.00    +0.024 C 
ATOM      7  C   UNL     1      34.752 -24.160 -15.482  0.00  0.00    +0.045 C 
ATOM      8  C   UNL     1      31.320 -23.053 -14.624  0.00  0.00    +0.013 A 
ATOM      9  C   UNL     1      31.376 -22.799 -15.998  0.00  0.00    +0.059 A 
ATOM     10  C   UNL     1      30.133 -22.747 -13.928  0.00  0.00    +0.001 C 
ATOM     11  C   UNL     1      30.302 -22.252 -16.708  0.00  0.00    +0.017 C 
ATOM     12  C   UNL     1      29.052 -22.198 -14.626  0.00  0.00    +0.000 C 
ATOM     13  C   UNL     1      29.137 -21.954 -15.995  0.00  0.00    +0.001 C 
ENDROOT
BRANCH   2  14
ATOM     14  N   UNL     1      35.270 -22.956 -12.729  0.00  0.00    -0.180 NA
ATOM     15  H   UNL     1      35.410 -22.566 -13.660  0.00  0.00    +0.149 HD
BRANCH  14  16
ATOM     16  S   UNL     1      36.765 -22.878 -11.932  0.00  0.00    +0.060 S 
ATOM     17  O   UNL     1      36.706 -23.656 -10.710  0.00  0.00    -0.153 OA
ATOM     18  O   UNL     1      37.198 -21.494 -11.895  0.00  0.00    -0.153 OA
BRANCH  16  20
ATOM     19  F   UNL     1      40.301 -25.678 -15.696  0.00  0.00    -0.204 F 
ATOM     20  C   UNL     1      37.829 -23.721 -13.065  0.00  0.00    +0.122 C 
ATOM     21  C   UNL     1      38.008 -23.202 -14.336  0.00  0.00    +0.022 C 
ATOM     22  C   UNL     1      38.463 -24.882 -12.659  0.00  0.00    +0.022 C 
ATOM     23  C   UNL     1      38.847 -23.867 -15.229  0.00  0.00    +0.031 C 
ATOM     24  C   UNL     1      39.302 -25.547 -13.553  0.00  0.00    +0.031 C 
ATOM     25  C   UNL     1      39.495 -25.040 -14.838  0.00  0.00    +0.140 C 
ENDBRANCH  16  20
ENDBRANCH  14  16
ENDBRANCH   2  14
BRANCH   1  26
ATOM     26  C   UNL     1      33.092 -23.077 -17.805  0.00  0.00    +0.117 C 
BRANCH  26  27
ATOM     27  C   UNL     1      33.724 -21.721 -18.126  0.00  0.00    +0.134 C 
BRANCH  27  29
ATOM     28  O   UNL     1      31.980 -21.222 -19.755  0.00  0.00    -0.250 OA
ATOM     29  C   UNL     1      33.114 -21.043 -19.334  0.00  0.00    +0.316 C 
BRANCH  29  30
ATOM     30  O   UNL     1      33.981 -20.163 -19.900  0.00  0.00    -0.480 OA
ATOM     31  H   UNL     1      34.510 -20.428 -20.627  0.00  0.00    +0.295 HD
ENDBRANCH  29  30
ENDBRANCH  27  29
ENDBRANCH  26  27
ENDBRANCH   1  26
TORSDOF 7
ENDMDL
MODEL 4
REMARK VINA RESULT:      -9.6      4.060      6.053
REMARK  Name = 123879
REMARK  7 active torsions:
REMARK  status: ('A' for Active; 'I' for Inactive)
REMARK    1  A    between atoms: N_1  and  C_26
REMARK    2  A    between atoms: C_2  and  N_14
REMARK    3  A    between atoms: N_14  and  S_16
REMARK    4  A    between atoms: S_16  and  C_20
REMARK    5  A    between atoms: C_26  and  C_27
REMARK    6  A    between atoms: C_27  and  C_29
REMARK    7  A    between atoms: C_29  and  O_30
REMARK                            x       y       z     vdW  Elec       q    Type
REMARK                         _______ _______ _______ _____ _____    ______ ____
ROOT
ATOM      1  N   UNL     1      35.956 -22.191 -16.125  0.00  0.00    -0.330 N 
ATOM      2  C   UNL     1      32.618 -24.282 -14.703  0.00  0.00    +0.080 C 
ATOM      3  C   UNL     1      32.690 -23.833 -16.179  0.00  0.00    +0.045 C 
ATOM      4  C   UNL     1      34.991 -22.995 -15.588  0.00  0.00    +0.033 A 
ATOM      5  C   UNL     1      33.919 -23.029 -16.454  0.00  0.00    -0.008 A 
ATOM      6  C   UNL     1      33.985 -24.747 -14.156  0.00  0.00    +0.024 C 
ATOM      7  C   UNL     1      35.089 -23.678 -14.273  0.00  0.00    +0.045 C 
ATOM      8  C   UNL     1      34.250 -22.215 -17.574  0.00  0.00    +0.013 A 
ATOM      9  C   UNL     1      35.530 -21.701 -17.341  0.00  0.00    +0.059 A 
ATOM     10  C   UNL     1      33.587 -21.864 -18.767  0.00  0.00    +0.001 C 
ATOM     11  C   UNL     1      36.177 -20.851 -18.244  0.00  0.00    +0.017 C 
ATOM     12  C   UNL     1      34.223 -21.014 -19.679  0.00  0.00    +0.000 C 
ATOM     13  C   UNL     1      35.497 -20.516 -19.419  0.00  0.00    +0.001 C 
ENDROOT
BRANCH   2  14
ATOM     14  N   UNL     1      32.112 -23.159 -13.866  0.00  0.00    -0.180 NA
ATOM     15  H   UNL     1      32.818 -22.980 -13.153  0.00  0.00    +0.149 HD
BRANCH  14  16
ATOM     16  S   UNL     1      30.628 -23.314 -13.061  0.00  0.00    +0.060 S 
ATOM     17  O   UNL     1      30.436 -22.183 -12.173  0.00  0.00    -0.153 OA
ATOM     18  O   UNL     1      30.517 -24.667 -12.551  0.00  0.00    -0.153 OA
BRANCH  16  20
ATOM     19  F   UNL     1      26.784 -22.825 -17.477  0.00  0.00    -0.204 F 
ATOM     20  C   UNL     1      29.471 -23.167 -14.390  0.00  0.00    +0.122 C 
ATOM     21  C   UNL     1      28.984 -21.915 -14.725  0.00  0.00    +0.022 C 
ATOM     22  C   UNL     1      29.075 -24.305 -15.068  0.00  0.00    +0.022 C 
ATOM     23  C   UNL     1      28.072 -21.800 -15.774  0.00  0.00    +0.031 C 
ATOM     24  C   UNL     1      28.162 -24.189 -16.117  0.00  0.00    +0.031 C 
ATOM     25  C   UNL     1      27.660 -22.936 -16.470  0.00  0.00    +0.140 C 
ENDBRANCH  16  20
ENDBRANCH  14  16
ENDBRANCH   2  14
BRANCH   1  26
ATOM     26  C   UNL     1      37.231 -21.887 -15.509  0.00  0.00    +0.117 C 
BRANCH  26  27
ATOM     27  C   UNL     1      38.313 -22.927 -15.804  0.00  0.00    +0.134 C 
BRANCH  27  29
ATOM     28  O   UNL     1      38.565 -23.730 -13.516  0.00  0.00    -0.250 OA
ATOM     29  C   UNL     1      38.467 -23.964 -14.713  0.00  0.00    +0.316 C 
BRANCH  29  30
ATOM     30  O   UNL     1      38.451 -25.225 -15.220  0.00  0.00    -0.480 OA
ATOM     31  H   UNL     1      39.234 -25.740 -15.218  0.00  0.00    +0.295 HD
ENDBRANCH  29  30
ENDBRANCH  27  29
ENDBRANCH  26  27
ENDBRANCH   1  26
TORSDOF 7
ENDMDL
MODEL 5
REMARK VINA RESULT:      -9.4     14.037     19.151
REMARK  Name = 123879
REMARK  7 active torsions:
REMARK  status: ('A' for Active; 'I' for Inactive)
REMARK    1  A    between atoms: N_1  and  C_26
REMARK    2  A    between atoms: C_2  and  N_14
REMARK    3  A    between atoms: N_14  and  S_16
REMARK    4  A    between atoms: S_16  and  C_20
REMARK    5  A    between atoms: C_26  and  C_27
REMARK    6  A    between atoms: C_27  and  C_29
REMARK    7  A    between atoms: C_29  and  O_30
REMARK                            x       y       z     vdW  Elec       q    Type
REMARK                         _______ _______ _______ _____ _____    ______ ____
ROOT
ATOM      1  N   UNL     1      31.481  -4.796 -24.353  0.00  0.00    -0.330 N 
ATOM      2  C   UNL     1      32.347  -7.773 -21.538  0.00  0.00    +0.080 C 
ATOM      3  C   UNL     1      33.414  -7.329 -22.562  0.00  0.00    +0.045 C 
ATOM      4  C   UNL     1      31.693  -5.648 -23.307  0.00  0.00    +0.033 A 
ATOM      5  C   UNL     1      32.874  -6.325 -23.526  0.00  0.00    -0.008 A 
ATOM      6  C   UNL     1      31.488  -6.596 -21.028  0.00  0.00    +0.024 C 
ATOM      7  C   UNL     1      30.772  -5.824 -22.155  0.00  0.00    +0.045 C 
ATOM      8  C   UNL     1      33.410  -5.857 -24.759  0.00  0.00    +0.013 A 
ATOM      9  C   UNL     1      32.517  -4.902 -25.256  0.00  0.00    +0.059 A 
ATOM     10  C   UNL     1      34.570  -6.151 -25.504  0.00  0.00    +0.001 C 
ATOM     11  C   UNL     1      32.729  -4.229 -26.464  0.00  0.00    +0.017 C 
ATOM     12  C   UNL     1      34.793  -5.485 -26.714  0.00  0.00    +0.000 C 
ATOM     13  C   UNL     1      33.886  -4.539 -27.185  0.00  0.00    +0.001 C 
ENDROOT
BRANCH   2  14
ATOM     14  N   UNL     1      31.458  -8.796 -22.158  0.00  0.00    -0.180 NA
ATOM     15  H   UNL     1      30.627  -8.305 -22.486  0.00  0.00    +0.149 HD
BRANCH  14  16
ATOM     16  S   UNL     1      30.920 -10.111 -21.234  0.00  0.00    +0.060 S 
ATOM     17  O   UNL     1      29.570 -10.463 -21.630  0.00  0.00    -0.153 OA
ATOM     18  O   UNL     1      31.228  -9.855 -19.840  0.00  0.00    -0.153 OA
BRANCH  16  20
ATOM     19  F   UNL     1      34.509 -14.407 -23.017  0.00  0.00    -0.204 F 
ATOM     20  C   UNL     1      32.000 -11.404 -21.771  0.00  0.00    +0.122 C 
ATOM     21  C   UNL     1      32.229 -12.483 -20.934  0.00  0.00    +0.022 C 
ATOM     22  C   UNL     1      32.596 -11.312 -23.016  0.00  0.00    +0.022 C 
ATOM     23  C   UNL     1      33.081 -13.502 -21.358  0.00  0.00    +0.031 C 
ATOM     24  C   UNL     1      33.448 -12.332 -23.439  0.00  0.00    +0.031 C 
ATOM     25  C   UNL     1      33.691 -13.427 -22.610  0.00  0.00    +0.140 C 
ENDBRANCH  16  20
ENDBRANCH  14  16
ENDBRANCH   2  14
BRANCH   1  26
ATOM     26  C   UNL     1      30.338  -3.920 -24.501  0.00  0.00    +0.117 C 
BRANCH  26  27
ATOM     27  C   UNL     1      30.646  -2.456 -24.177  0.00  0.00    +0.134 C 
BRANCH  27  29
ATOM     28  O   UNL     1      29.322  -2.104 -22.160  0.00  0.00    -0.250 OA
ATOM     29  C   UNL     1      30.406  -2.097 -22.727  0.00  0.00    +0.316 C 
BRANCH  29  30
ATOM     30  O   UNL     1      31.568  -1.786 -22.093  0.00  0.00    -0.480 OA
ATOM     31  H   UNL     1      32.372  -2.178 -22.372  0.00  0.00    +0.295 HD
ENDBRANCH  29  30
ENDBRANCH  27  29
ENDBRANCH  26  27
ENDBRANCH   1  26
TORSDOF 7
ENDMDL
MODEL 6
REMARK VINA RESULT:      -9.2      2.967      3.723
REMARK  Name = 123879
REMARK  7 active torsions:
REMARK  status: ('A' for Active; 'I' for Inactive)
REMARK    1  A    between atoms: N_1  and  C_26
REMARK    2  A    between atoms: C_2  and  N_14
REMARK    3  A    between atoms: N_14  and  S_16
REMARK    4  A    between atoms: S_16  and  C_20
REMARK    5  A    between atoms: C_26  and  C_27
REMARK    6  A    between atoms: C_27  and  C_29
REMARK    7  A    between atoms: C_29  and  O_30
REMARK                            x       y       z     vdW  Elec       q    Type
REMARK                         _______ _______ _______ _____ _____    ______ ____
ROOT
ATOM      1  N   UNL     1      37.681 -23.804 -13.599  0.00  0.00    -0.330 N 
ATOM      2  C   UNL     1      35.438 -21.560 -16.332  0.00  0.00    +0.080 C 
ATOM      3  C   UNL     1      35.028 -21.620 -14.844  0.00  0.00    +0.045 C 
ATOM      4  C   UNL     1      37.114 -22.999 -14.545  0.00  0.00    +0.033 A 
ATOM      5  C   UNL     1      35.906 -22.542 -14.063  0.00  0.00    -0.008 A 
ATOM      6  C   UNL     1      36.970 -21.516 -16.524  0.00  0.00    +0.024 C 
ATOM      7  C   UNL     1      37.704 -22.708 -15.877  0.00  0.00    +0.045 C 
ATOM      8  C   UNL     1      35.733 -23.088 -12.760  0.00  0.00    +0.013 A 
ATOM      9  C   UNL     1      36.858 -23.875 -12.495  0.00  0.00    +0.059 A 
ATOM     10  C   UNL     1      34.729 -22.989 -11.776  0.00  0.00    +0.001 C 
ATOM     11  C   UNL     1      37.025 -24.571 -11.293  0.00  0.00    +0.017 C 
ATOM     12  C   UNL     1      34.884 -23.680 -10.569  0.00  0.00    +0.000 C 
ATOM     13  C   UNL     1      36.014 -24.459 -10.333  0.00  0.00    +0.001 C 
ENDROOT
BRANCH   2  14
ATOM     14  N   UNL     1      34.888 -22.745 -17.047  0.00  0.00    -0.180 NA
ATOM     15  H   UNL     1      35.586 -23.025 -17.735  0.00  0.00    +0.149 HD
BRANCH  14  16
ATOM     16  S   UNL     1      33.410 -22.618 -17.869  0.00  0.00    +0.060 S 
ATOM     17  O   UNL     1      33.272 -23.726 -18.794  0.00  0.00    -0.153 OA
ATOM     18  O   UNL     1      33.256 -21.254 -18.336  0.00  0.00    -0.153 OA
BRANCH  16  20
ATOM     19  F   UNL     1      29.528 -23.389 -13.527  0.00  0.00    -0.204 F 
ATOM     20  C   UNL     1      32.242 -22.850 -16.562  0.00  0.00    +0.122 C 
ATOM     21  C   UNL     1      30.956 -22.361 -16.712  0.00  0.00    +0.022 C 
ATOM     22  C   UNL     1      32.636 -23.516 -15.415  0.00  0.00    +0.022 C 
ATOM     23  C   UNL     1      30.035 -22.544 -15.681  0.00  0.00    +0.031 C 
ATOM     24  C   UNL     1      31.714 -23.699 -14.384  0.00  0.00    +0.031 C 
ATOM     25  C   UNL     1      30.413 -23.213 -14.517  0.00  0.00    +0.140 C 
ENDBRANCH  16  20
ENDBRANCH  14  16
ENDBRANCH   2  14
BRANCH   1  26
ATOM     26  C   UNL     1      38.950 -24.490 -13.733  0.00  0.00    +0.117 C 
BRANCH  26  27
ATOM     27  C   UNL     1      38.874 -25.743 -14.608  0.00  0.00    +0.134 C 
BRANCH  27  29
ATOM     28  O   UNL     1      37.087 -27.003 -13.532  0.00  0.00    -0.250 OA
ATOM     29  C   UNL     1      37.543 -26.456 -14.527  0.00  0.00    +0.316 C 
BRANCH  29  30
ATOM     30  O   UNL     1      36.873 -26.394 -15.708  0.00  0.00    -0.480 OA
ATOM     31  H   UNL     1      36.838 -27.146 -16.266  0.00  0.00    +0.295 HD
ENDBRANCH  29  30
ENDBRANCH  27  29
ENDBRANCH  26  27
ENDBRANCH   1  26
TORSDOF 7
ENDMDL
MODEL 7
REMARK VINA RESULT:      -9.1      4.190      6.350
REMARK  Name = 123879
REMARK  7 active torsions:
REMARK  status: ('A' for Active; 'I' for Inactive)
REMARK    1  A    between atoms: N_1  and  C_26
REMARK    2  A    between atoms: C_2  and  N_14
REMARK    3  A    between atoms: N_14  and  S_16
REMARK    4  A    between atoms: S_16  and  C_20
REMARK    5  A    between atoms: C_26  and  C_27
REMARK    6  A    between atoms: C_27  and  C_29
REMARK    7  A    between atoms: C_29  and  O_30
REMARK                            x       y       z     vdW  Elec       q    Type
REMARK                         _______ _______ _______ _____ _____    ______ ____
ROOT
ATOM      1  N   UNL     1      33.644 -22.449 -17.200  0.00  0.00    -0.330 N 
ATOM      2  C   UNL     1      35.495 -20.495 -20.409  0.00  0.00    +0.080 C 
ATOM      3  C   UNL     1      36.315 -20.918 -19.170  0.00  0.00    +0.045 C 
ATOM      4  C   UNL     1      34.161 -21.938 -18.356  0.00  0.00    +0.033 A 
ATOM      5  C   UNL     1      35.451 -21.516 -18.110  0.00  0.00    -0.008 A 
ATOM      6  C   UNL     1      34.414 -21.532 -20.786  0.00  0.00    +0.024 C 
ATOM      7  C   UNL     1      33.425 -21.832 -19.642  0.00  0.00    +0.045 C 
ATOM      8  C   UNL     1      35.734 -21.791 -16.742  0.00  0.00    +0.013 A 
ATOM      9  C   UNL     1      34.585 -22.373 -16.196  0.00  0.00    +0.059 A 
ATOM     10  C   UNL     1      36.857 -21.603 -15.912  0.00  0.00    +0.001 C 
ATOM     11  C   UNL     1      34.506 -22.774 -14.858  0.00  0.00    +0.017 C 
ATOM     12  C   UNL     1      36.791 -21.999 -14.571  0.00  0.00    +0.000 C 
ATOM     13  C   UNL     1      35.633 -22.574 -14.054  0.00  0.00    +0.001 C 
ENDROOT
BRANCH   2  14
ATOM     14  N   UNL     1      34.844 -19.181 -20.149  0.00  0.00    -0.180 NA
ATOM     15  H   UNL     1      33.855 -19.293 -20.367  0.00  0.00    +0.149 HD
BRANCH  14  16
ATOM     16  S   UNL     1      35.378 -17.801 -20.977  0.00  0.00    +0.060 S 
ATOM     17  O   UNL     1      36.764 -17.975 -21.368  0.00  0.00    -0.153 OA
ATOM     18  O   UNL     1      34.973 -16.626 -20.229  0.00  0.00    -0.153 OA
BRANCH  16  20
ATOM     19  F   UNL     1      32.091 -17.950 -25.844  0.00  0.00    -0.204 F 
ATOM     20  C   UNL     1      34.389 -17.846 -22.442  0.00  0.00    +0.122 C 
ATOM     21  C   UNL     1      34.225 -16.688 -23.181  0.00  0.00    +0.022 C 
ATOM     22  C   UNL     1      33.798 -19.038 -22.821  0.00  0.00    +0.022 C 
ATOM     23  C   UNL     1      33.444 -16.723 -24.336  0.00  0.00    +0.031 C 
ATOM     24  C   UNL     1      33.018 -19.074 -23.976  0.00  0.00    +0.031 C 
ATOM     25  C   UNL     1      32.840 -17.916 -24.734  0.00  0.00    +0.140 C 
ENDBRANCH  16  20
ENDBRANCH  14  16
ENDBRANCH   2  14
BRANCH   1  26
ATOM     26  C   UNL     1      32.306 -22.981 -17.045  0.00  0.00    +0.117 C 
BRANCH  26  27
ATOM     27  C   UNL     1      31.427 -22.155 -16.103  0.00  0.00    +0.134 C 
BRANCH  27  29
ATOM     28  O   UNL     1      29.701 -23.597 -15.165  0.00  0.00    -0.250 OA
ATOM     29  C   UNL     1      30.029 -22.711 -15.940  0.00  0.00    +0.316 C 
BRANCH  29  30
ATOM     30  O   UNL     1      29.144 -22.074 -16.753  0.00  0.00    -0.480 OA
ATOM     31  H   UNL     1      29.293 -21.182 -16.999  0.00  0.00    +0.295 HD
ENDBRANCH  29  30
ENDBRANCH  27  29
ENDBRANCH  26  27
ENDBRANCH   1  26
TORSDOF 7
ENDMDL
MODEL 8
REMARK VINA RESULT:      -8.8     10.991     15.722
REMARK  Name = 123879
REMARK  7 active torsions:
REMARK  status: ('A' for Active; 'I' for Inactive)
REMARK    1  A    between atoms: N_1  and  C_26
REMARK    2  A    between atoms: C_2  and  N_14
REMARK    3  A    between atoms: N_14  and  S_16
REMARK    4  A    between atoms: S_16  and  C_20
REMARK    5  A    between atoms: C_26  and  C_27
REMARK    6  A    between atoms: C_27  and  C_29
REMARK    7  A    between atoms: C_29  and  O_30
REMARK                            x       y       z     vdW  Elec       q    Type
REMARK                         _______ _______ _______ _____ _____    ______ ____
ROOT
ATOM      1  N   UNL     1      33.242  -8.106 -22.899  0.00  0.00    -0.330 N 
ATOM      2  C   UNL     1      32.266 -12.179 -22.886  0.00  0.00    +0.080 C 
ATOM      3  C   UNL     1      31.523 -11.192 -21.959  0.00  0.00    +0.045 C 
ATOM      4  C   UNL     1      32.916  -9.420 -23.082  0.00  0.00    +0.033 A 
ATOM      5  C   UNL     1      32.083  -9.811 -22.056  0.00  0.00    -0.008 A 
ATOM      6  C   UNL     1      32.585 -11.569 -24.269  0.00  0.00    +0.024 C 
ATOM      7  C   UNL     1      33.417 -10.273 -24.191  0.00  0.00    +0.045 C 
ATOM      8  C   UNL     1      31.887  -8.681 -21.213  0.00  0.00    +0.013 A 
ATOM      9  C   UNL     1      32.625  -7.628 -21.763  0.00  0.00    +0.059 A 
ATOM     10  C   UNL     1      31.151  -8.448 -20.033  0.00  0.00    +0.001 C 
ATOM     11  C   UNL     1      32.664  -6.353 -21.188  0.00  0.00    +0.017 C 
ATOM     12  C   UNL     1      31.182  -7.177 -19.448  0.00  0.00    +0.000 C 
ATOM     13  C   UNL     1      31.928  -6.148 -20.017  0.00  0.00    +0.001 C 
ENDROOT
BRANCH   2  14
ATOM     14  N   UNL     1      33.535 -12.611 -22.237  0.00  0.00    -0.180 NA
ATOM     15  H   UNL     1      34.090 -13.078 -22.954  0.00  0.00    +0.149 HD
BRANCH  14  16
ATOM     16  S   UNL     1      33.482 -13.653 -20.900  0.00  0.00    +0.060 S 
ATOM     17  O   UNL     1      32.106 -13.829 -20.476  0.00  0.00    -0.153 OA
ATOM     18  O   UNL     1      34.490 -13.233 -19.946  0.00  0.00    -0.153 OA
BRANCH  16  20
ATOM     19  F   UNL     1      35.328 -18.722 -23.226  0.00  0.00    -0.204 F 
ATOM     20  C   UNL     1      34.038 -15.178 -21.600  0.00  0.00    +0.122 C 
ATOM     21  C   UNL     1      34.432 -16.203 -20.757  0.00  0.00    +0.022 C 
ATOM     22  C   UNL     1      34.068 -15.318 -22.976  0.00  0.00    +0.022 C 
ATOM     23  C   UNL     1      34.870 -17.406 -21.310  0.00  0.00    +0.031 C 
ATOM     24  C   UNL     1      34.506 -16.521 -23.528  0.00  0.00    +0.031 C 
ATOM     25  C   UNL     1      34.908 -17.566 -22.695  0.00  0.00    +0.140 C 
ENDBRANCH  16  20
ENDBRANCH  14  16
ENDBRANCH   2  14
BRANCH   1  26
ATOM     26  C   UNL     1      34.113  -7.332 -23.759  0.00  0.00    +0.117 C 
BRANCH  26  27
ATOM     27  C   UNL     1      33.358  -6.417 -24.725  0.00  0.00    +0.134 C 
BRANCH  27  29
ATOM     28  O   UNL     1      34.695  -4.400 -25.022  0.00  0.00    -0.250 OA
ATOM     29  C   UNL     1      33.705  -4.953 -24.564  0.00  0.00    +0.316 C 
BRANCH  29  30
ATOM     30  O   UNL     1      32.749  -4.290 -23.860  0.00  0.00    -0.480 OA
ATOM     31  H   UNL     1      32.173  -4.765 -23.292  0.00  0.00    +0.295 HD
ENDBRANCH  29  30
ENDBRANCH  27  29
ENDBRANCH  26  27
ENDBRANCH   1  26
TORSDOF 7
ENDMDL
MODEL 9
REMARK VINA RESULT:      -8.7      4.058      4.688
REMARK  Name = 123879
REMARK  7 active torsions:
REMARK  status: ('A' for Active; 'I' for Inactive)
REMARK    1  A    between atoms: N_1  and  C_26
REMARK    2  A    between atoms: C_2  and  N_14
REMARK    3  A    between atoms: N_14  and  S_16
REMARK    4  A    between atoms: S_16  and  C_20
REMARK    5  A    between atoms: C_26  and  C_27
REMARK    6  A    between atoms: C_27  and  C_29
REMARK    7  A    between atoms: C_29  and  O_30
REMARK                            x       y       z     vdW  Elec       q    Type
REMARK                         _______ _______ _______ _____ _____    ______ ____
ROOT
ATOM      1  N   UNL     1      35.937 -24.247 -14.155  0.00  0.00    -0.330 N 
ATOM      2  C   UNL     1      32.088 -22.852 -15.038  0.00  0.00    +0.080 C 
ATOM      3  C   UNL     1      32.704 -22.622 -13.640  0.00  0.00    +0.045 C 
ATOM      4  C   UNL     1      34.758 -23.719 -14.598  0.00  0.00    +0.033 A 
ATOM      5  C   UNL     1      34.041 -23.273 -13.509  0.00  0.00    -0.008 A 
ATOM      6  C   UNL     1      33.127 -22.721 -16.173  0.00  0.00    +0.024 C 
ATOM      7  C   UNL     1      34.328 -23.676 -16.020  0.00  0.00    +0.045 C 
ATOM      8  C   UNL     1      34.823 -23.535 -12.349  0.00  0.00    +0.013 A 
ATOM      9  C   UNL     1      36.004 -24.147 -12.782  0.00  0.00    +0.059 A 
ATOM     10  C   UNL     1      34.644 -23.310 -10.969  0.00  0.00    +0.001 C 
ATOM     11  C   UNL     1      37.013 -24.547 -11.899  0.00  0.00    +0.017 C 
ATOM     12  C   UNL     1      35.646 -23.706 -10.076  0.00  0.00    +0.000 C 
ATOM     13  C   UNL     1      36.811 -24.315 -10.535  0.00  0.00    +0.001 C 
ENDROOT
BRANCH   2  14
ATOM     14  N   UNL     1      31.472 -24.207 -15.092  0.00  0.00    -0.180 NA
ATOM     15  H   UNL     1      31.278 -24.405 -16.074  0.00  0.00    +0.149 HD
BRANCH  14  16
ATOM     16  S   UNL     1      30.041 -24.513 -14.237  0.00  0.00    +0.060 S 
ATOM     17  O   UNL     1      30.141 -23.950 -12.904  0.00  0.00    -0.153 OA
ATOM     18  O   UNL     1      29.685 -25.909 -14.413  0.00  0.00    -0.153 OA
BRANCH  16  20
ATOM     19  F   UNL     1      26.114 -21.352 -17.253  0.00  0.00    -0.204 F 
ATOM     20  C   UNL     1      28.859 -23.562 -15.144  0.00  0.00    +0.122 C 
ATOM     21  C   UNL     1      28.360 -24.063 -16.334  0.00  0.00    +0.022 C 
ATOM     22  C   UNL     1      28.456 -22.335 -14.648  0.00  0.00    +0.022 C 
ATOM     23  C   UNL     1      27.428 -23.312 -17.050  0.00  0.00    +0.031 C 
ATOM     24  C   UNL     1      27.524 -21.584 -15.364  0.00  0.00    +0.031 C 
ATOM     25  C   UNL     1      27.010 -22.072 -16.566  0.00  0.00    +0.140 C 
ENDBRANCH  16  20
ENDBRANCH  14  16
ENDBRANCH   2  14
BRANCH   1  26
ATOM     26  C   UNL     1      36.960 -24.835 -14.995  0.00  0.00    +0.117 C 
BRANCH  26  27
ATOM     27  C   UNL     1      38.188 -23.941 -15.176  0.00  0.00    +0.134 C 
BRANCH  27  29
ATOM     28  O   UNL     1      40.124 -24.426 -13.777  0.00  0.00    -0.250 OA
ATOM     29  C   UNL     1      39.488 -24.619 -14.804  0.00  0.00    +0.316 C 
BRANCH  29  30
ATOM     30  O   UNL     1      39.868 -25.517 -15.751  0.00  0.00    -0.480 OA
ATOM     31  H   UNL     1      39.349 -25.632 -16.522  0.00  0.00    +0.295 HD
ENDBRANCH  29  30
ENDBRANCH  27  29
ENDBRANCH  26  27
ENDBRANCH   1  26
TORSDOF 7
ENDMDL
