MODEL 1
REMARK VINA RESULT:     -10.6      0.000      0.000
REMARK  Name = 46937119
REMARK  2 active torsions:
REMARK  status: ('A' for Active; 'I' for Inactive)
REMARK    1  A    between atoms: N_3  and  C_26
REMARK    2  A    between atoms: C_5  and  N_16
REMARK                            x       y       z     vdW  Elec       q    Type
REMARK                         _______ _______ _______ _____ _____    ______ ____
ROOT
ATOM      1  N   UNL     1      32.712 -22.687 -16.528  0.00  0.00    -0.242 N 
ATOM      2  N   UNL     1      35.265 -23.161 -15.498  0.00  0.00    -0.388 NA
ATOM      3  N   UNL     1      34.432 -24.413 -13.719  0.00  0.00    -0.287 N 
ATOM      4  N   UNL     1      30.693 -23.305 -15.848  0.00  0.00    -0.224 NA
ATOM      5  C   UNL     1      34.762 -20.865 -19.015  0.00  0.00    +0.045 C 
ATOM      6  C   UNL     1      33.632 -21.380 -18.382  0.00  0.00    +0.032 C 
ATOM      7  C   UNL     1      33.796 -22.137 -17.223  0.00  0.00    +0.084 C 
ATOM      8  C   UNL     1      36.033 -21.108 -18.493  0.00  0.00    -0.004 C 
ATOM      9  C   UNL     1      35.069 -22.395 -16.676  0.00  0.00    +0.129 C 
ATOM     10  C   UNL     1      36.186 -21.868 -17.330  0.00  0.00    +0.088 C 
ATOM     11  C   UNL     1      32.909 -23.428 -15.390  0.00  0.00    +0.121 C 
ATOM     12  C   UNL     1      34.236 -23.670 -14.860  0.00  0.00    +0.199 C 
ATOM     13  C   UNL     1      31.366 -22.642 -16.764  0.00  0.00    +0.172 C 
ATOM     14  C   UNL     1      31.645 -23.798 -14.989  0.00  0.00    +0.119 C 
ATOM     15  H   UNL     1      33.627 -24.771 -13.281  0.00  0.00    +0.155 HD
ENDROOT
BRANCH   5  16
ATOM     16  N   UNL     1      34.623 -20.103 -20.181  0.00  0.00    -0.312 N 
ATOM     17  N   UNL     1      34.243 -18.370 -22.414  0.00  0.00    +0.387 N 
ATOM     18  C   UNL     1      35.590 -18.835 -22.065  0.00  0.00    -0.042 C 
ATOM     19  C   UNL     1      35.682 -19.162 -20.566  0.00  0.00    +0.069 C 
ATOM     20  C   UNL     1      33.266 -19.746 -20.613  0.00  0.00    +0.067 C 
ATOM     21  C   UNL     1      33.253 -19.399 -22.100  0.00  0.00    -0.060 C 
ATOM     22  C   UNL     1      36.606 -17.758 -22.442  0.00  0.00    -0.022 C 
ATOM     23  H   UNL     1      34.208 -18.163 -23.413  0.00  0.00    -0.084 HD
ATOM     24  H   UNL     1      34.032 -17.530 -21.875  0.00  0.00    -0.084 HD
ENDBRANCH   5  16
BRANCH   3  26
ATOM     25 CL   UNL     1      36.126 -26.445 -15.175  0.00  0.00    -0.081 Cl
ATOM     26  C   UNL     1      35.652 -24.710 -13.120  0.00  0.00    +0.057 C 
ATOM     27  C   UNL     1      36.005 -24.077 -11.928  0.00  0.00    -0.008 C 
ATOM     28  C   UNL     1      36.521 -25.635 -13.701  0.00  0.00    +0.071 C 
ATOM     29  C   UNL     1      37.225 -24.368 -11.318  0.00  0.00    -0.003 C 
ATOM     30  C   UNL     1      35.096 -23.083 -11.281  0.00  0.00    +0.032 C 
ATOM     31  C   UNL     1      37.740 -25.926 -13.090  0.00  0.00    +0.013 C 
ATOM     32  C   UNL     1      38.092 -25.293 -11.898  0.00  0.00    +0.001 C 
ENDBRANCH   3  26
TORSDOF 2
ENDMDL
MODEL 2
REMARK VINA RESULT:     -10.3      1.049      1.645
REMARK  Name = 46937119
REMARK  2 active torsions:
REMARK  status: ('A' for Active; 'I' for Inactive)
REMARK    1  A    between atoms: N_3  and  C_26
REMARK    2  A    between atoms: C_5  and  N_16
REMARK                            x       y       z     vdW  Elec       q    Type
REMARK                         _______ _______ _______ _____ _____    ______ ____
ROOT
ATOM      1  N   UNL     1      32.734 -22.691 -16.543  0.00  0.00    -0.242 N 
ATOM      2  N   UNL     1      35.286 -23.166 -15.510  0.00  0.00    -0.388 NA
ATOM      3  N   UNL     1      34.452 -24.426 -13.737  0.00  0.00    -0.287 N 
ATOM      4  N   UNL     1      30.715 -23.315 -15.869  0.00  0.00    -0.224 NA
ATOM      5  C   UNL     1      34.787 -20.857 -19.019  0.00  0.00    +0.045 C 
ATOM      6  C   UNL     1      33.656 -21.375 -18.390  0.00  0.00    +0.032 C 
ATOM      7  C   UNL     1      33.819 -22.137 -17.233  0.00  0.00    +0.084 C 
ATOM      8  C   UNL     1      36.057 -21.100 -18.495  0.00  0.00    -0.004 C 
ATOM      9  C   UNL     1      35.092 -22.395 -16.685  0.00  0.00    +0.129 C 
ATOM     10  C   UNL     1      36.209 -21.865 -17.335  0.00  0.00    +0.088 C 
ATOM     11  C   UNL     1      32.930 -23.436 -15.407  0.00  0.00    +0.121 C 
ATOM     12  C   UNL     1      34.256 -23.678 -14.876  0.00  0.00    +0.199 C 
ATOM     13  C   UNL     1      31.389 -22.647 -16.781  0.00  0.00    +0.172 C 
ATOM     14  C   UNL     1      31.666 -23.809 -15.010  0.00  0.00    +0.119 C 
ATOM     15  H   UNL     1      33.646 -24.786 -13.302  0.00  0.00    +0.155 HD
ENDROOT
BRANCH   5  16
ATOM     16  N   UNL     1      34.649 -20.090 -20.182  0.00  0.00    -0.312 N 
ATOM     17  N   UNL     1      34.271 -18.350 -22.409  0.00  0.00    +0.387 N 
ATOM     18  C   UNL     1      35.618 -18.816 -22.061  0.00  0.00    -0.042 C 
ATOM     19  C   UNL     1      35.708 -19.149 -20.563  0.00  0.00    +0.069 C 
ATOM     20  C   UNL     1      33.292 -19.731 -20.614  0.00  0.00    +0.067 C 
ATOM     21  C   UNL     1      33.281 -19.379 -22.099  0.00  0.00    -0.060 C 
ATOM     22  C   UNL     1      36.634 -17.739 -22.433  0.00  0.00    -0.022 C 
ATOM     23  H   UNL     1      34.236 -18.139 -23.407  0.00  0.00    -0.084 HD
ATOM     24  H   UNL     1      34.060 -17.511 -21.867  0.00  0.00    -0.084 HD
ENDBRANCH   5  16
BRANCH   3  26
ATOM     25 CL   UNL     1      35.021 -22.949 -11.165  0.00  0.00    -0.081 Cl
ATOM     26  C   UNL     1      35.671 -24.724 -13.137  0.00  0.00    +0.057 C 
ATOM     27  C   UNL     1      36.524 -25.649 -13.738  0.00  0.00    -0.008 C 
ATOM     28  C   UNL     1      36.044 -24.103 -11.944  0.00  0.00    +0.071 C 
ATOM     29  C   UNL     1      37.750 -25.954 -13.146  0.00  0.00    -0.003 C 
ATOM     30  C   UNL     1      36.154 -26.330 -15.015  0.00  0.00    +0.032 C 
ATOM     31  C   UNL     1      37.270 -24.408 -11.353  0.00  0.00    +0.013 C 
ATOM     32  C   UNL     1      38.123 -25.333 -11.954  0.00  0.00    +0.001 C 
ENDBRANCH   3  26
TORSDOF 2
ENDMDL
MODEL 3
REMARK VINA RESULT:     -10.3      7.444     13.395
REMARK  Name = 46937119
REMARK  2 active torsions:
REMARK  status: ('A' for Active; 'I' for Inactive)
REMARK    1  A    between atoms: N_3  and  C_26
REMARK    2  A    between atoms: C_5  and  N_16
REMARK                            x       y       z     vdW  Elec       q    Type
REMARK                         _______ _______ _______ _____ _____    ______ ____
ROOT
ATOM      1  N   UNL     1      33.218 -13.752 -24.372  0.00  0.00    -0.242 N 
ATOM      2  N   UNL     1      33.033 -11.972 -22.227  0.00  0.00    -0.388 NA
ATOM      3  N   UNL     1      32.330 -10.224 -23.597  0.00  0.00    -0.287 N 
ATOM      4  N   UNL     1      32.825 -13.515 -26.542  0.00  0.00    -0.224 NA
ATOM      5  C   UNL     1      34.264 -15.969 -21.597  0.00  0.00    +0.045 C 
ATOM      6  C   UNL     1      33.953 -15.558 -22.893  0.00  0.00    +0.032 C 
ATOM      7  C   UNL     1      33.547 -14.241 -23.101  0.00  0.00    +0.084 C 
ATOM      8  C   UNL     1      34.168 -15.072 -20.532  0.00  0.00    -0.004 C 
ATOM      9  C   UNL     1      33.443 -13.317 -22.042  0.00  0.00    +0.129 C 
ATOM     10  C   UNL     1      33.761 -13.754 -20.753  0.00  0.00    +0.088 C 
ATOM     11  C   UNL     1      32.822 -12.449 -24.542  0.00  0.00    +0.121 C 
ATOM     12  C   UNL     1      32.728 -11.530 -23.426  0.00  0.00    +0.199 C 
ATOM     13  C   UNL     1      33.204 -14.352 -25.600  0.00  0.00    +0.172 C 
ATOM     14  C   UNL     1      32.585 -12.328 -25.893  0.00  0.00    +0.119 C 
ATOM     15  H   UNL     1      32.113  -9.946 -24.516  0.00  0.00    +0.155 HD
ENDROOT
BRANCH   5  16
ATOM     16  N   UNL     1      34.674 -17.287 -21.362  0.00  0.00    -0.312 N 
ATOM     17  N   UNL     1      35.606 -19.892 -20.671  0.00  0.00    +0.387 N 
ATOM     18  C   UNL     1      34.172 -19.651 -20.862  0.00  0.00    -0.042 C 
ATOM     19  C   UNL     1      33.822 -18.183 -20.571  0.00  0.00    +0.069 C 
ATOM     20  C   UNL     1      36.115 -17.561 -21.304  0.00  0.00    +0.067 C 
ATOM     21  C   UNL     1      36.388 -19.040 -21.565  0.00  0.00    -0.060 C 
ATOM     22  C   UNL     1      33.381 -20.583 -19.946  0.00  0.00    -0.022 C 
ATOM     23  H   UNL     1      35.813 -20.871 -20.873  0.00  0.00    -0.084 HD
ATOM     24  H   UNL     1      35.853 -19.674 -19.705  0.00  0.00    -0.084 HD
ENDBRANCH   5  16
BRANCH   3  26
ATOM     25 CL   UNL     1      30.180 -10.751 -21.543  0.00  0.00    -0.081 Cl
ATOM     26  C   UNL     1      32.204  -9.256 -22.606  0.00  0.00    +0.057 C 
ATOM     27  C   UNL     1      33.044  -8.143 -22.622  0.00  0.00    -0.008 C 
ATOM     28  C   UNL     1      31.244  -9.391 -21.602  0.00  0.00    +0.071 C 
ATOM     29  C   UNL     1      32.926  -7.166 -21.634  0.00  0.00    -0.003 C 
ATOM     30  C   UNL     1      34.081  -7.970 -23.684  0.00  0.00    +0.032 C 
ATOM     31  C   UNL     1      31.126  -8.413 -20.615  0.00  0.00    +0.013 C 
ATOM     32  C   UNL     1      31.966  -7.300 -20.631  0.00  0.00    +0.001 C 
ENDBRANCH   3  26
TORSDOF 2
ENDMDL
MODEL 4
REMARK VINA RESULT:     -10.1      1.414      2.204
REMARK  Name = 46937119
REMARK  2 active torsions:
REMARK  status: ('A' for Active; 'I' for Inactive)
REMARK    1  A    between atoms: N_3  and  C_26
REMARK    2  A    between atoms: C_5  and  N_16
REMARK                            x       y       z     vdW  Elec       q    Type
REMARK                         _______ _______ _______ _____ _____    ______ ____
ROOT
ATOM      1  N   UNL     1      32.956 -22.241 -17.258  0.00  0.00    -0.242 N 
ATOM      2  N   UNL     1      35.507 -22.862 -16.304  0.00  0.00    -0.388 NA
ATOM      3  N   UNL     1      34.664 -24.251 -14.635  0.00  0.00    -0.287 N 
ATOM      4  N   UNL     1      30.930 -22.874 -16.613  0.00  0.00    -0.224 NA
ATOM      5  C   UNL     1      35.024 -20.249 -19.596  0.00  0.00    +0.045 C 
ATOM      6  C   UNL     1      33.888 -20.793 -18.998  0.00  0.00    +0.032 C 
ATOM      7  C   UNL     1      34.047 -21.655 -17.913  0.00  0.00    +0.084 C 
ATOM      8  C   UNL     1      36.295 -20.565 -19.112  0.00  0.00    -0.004 C 
ATOM      9  C   UNL     1      35.318 -21.989 -17.406  0.00  0.00    +0.129 C 
ATOM     10  C   UNL     1      36.441 -21.430 -18.024  0.00  0.00    +0.088 C 
ATOM     11  C   UNL     1      33.147 -23.085 -16.193  0.00  0.00    +0.121 C 
ATOM     12  C   UNL     1      34.473 -23.403 -15.703  0.00  0.00    +0.199 C 
ATOM     13  C   UNL     1      31.610 -22.145 -17.474  0.00  0.00    +0.172 C 
ATOM     14  C   UNL     1      31.879 -23.462 -15.813  0.00  0.00    +0.119 C 
ATOM     15  H   UNL     1      33.854 -24.628 -14.222  0.00  0.00    +0.155 HD
ENDROOT
BRANCH   5  16
ATOM     16  N   UNL     1      34.891 -19.382 -20.687  0.00  0.00    -0.312 N 
ATOM     17  N   UNL     1      34.840 -17.700 -22.989  0.00  0.00    +0.387 N 
ATOM     18  C   UNL     1      33.783 -18.696 -22.782  0.00  0.00    -0.042 C 
ATOM     19  C   UNL     1      34.300 -19.871 -21.937  0.00  0.00    +0.069 C 
ATOM     20  C   UNL     1      35.870 -18.296 -20.827  0.00  0.00    +0.067 C 
ATOM     21  C   UNL     1      35.307 -17.181 -21.706  0.00  0.00    -0.060 C 
ATOM     22  C   UNL     1      33.285 -19.190 -24.140  0.00  0.00    -0.022 C 
ATOM     23  H   UNL     1      34.471 -16.931 -23.549  0.00  0.00    -0.084 HD
ATOM     24  H   UNL     1      35.622 -18.142 -23.473  0.00  0.00    -0.084 HD
ENDBRANCH   5  16
BRANCH   3  26
ATOM     25 CL   UNL     1      35.679 -22.466 -12.421  0.00  0.00    -0.081 Cl
ATOM     26  C   UNL     1      35.882 -24.627 -14.080  0.00  0.00    +0.057 C 
ATOM     27  C   UNL     1      36.536 -25.761 -14.562  0.00  0.00    -0.008 C 
ATOM     28  C   UNL     1      36.452 -23.878 -13.048  0.00  0.00    +0.071 C 
ATOM     29  C   UNL     1      37.759 -26.146 -14.013  0.00  0.00    -0.003 C 
ATOM     30  C   UNL     1      35.952 -26.582 -15.665  0.00  0.00    +0.032 C 
ATOM     31  C   UNL     1      37.675 -24.265 -12.500  0.00  0.00    +0.013 C 
ATOM     32  C   UNL     1      38.329 -25.398 -12.983  0.00  0.00    +0.001 C 
ENDBRANCH   3  26
TORSDOF 2
ENDMDL
MODEL 5
REMARK VINA RESULT:     -10.1      7.620     13.370
REMARK  Name = 46937119
REMARK  2 active torsions:
REMARK  status: ('A' for Active; 'I' for Inactive)
REMARK    1  A    between atoms: N_3  and  C_26
REMARK    2  A    between atoms: C_5  and  N_16
REMARK                            x       y       z     vdW  Elec       q    Type
REMARK                         _______ _______ _______ _____ _____    ______ ____
ROOT
ATOM      1  N   UNL     1      33.213 -13.760 -24.352  0.00  0.00    -0.242 N 
ATOM      2  N   UNL     1      33.031 -11.984 -22.203  0.00  0.00    -0.388 NA
ATOM      3  N   UNL     1      32.322 -10.235 -23.568  0.00  0.00    -0.287 N 
ATOM      4  N   UNL     1      32.816 -13.519 -26.521  0.00  0.00    -0.224 NA
ATOM      5  C   UNL     1      34.268 -15.981 -21.584  0.00  0.00    +0.045 C 
ATOM      6  C   UNL     1      33.954 -15.568 -22.877  0.00  0.00    +0.032 C 
ATOM      7  C   UNL     1      33.546 -14.251 -23.083  0.00  0.00    +0.084 C 
ATOM      8  C   UNL     1      34.173 -15.087 -20.517  0.00  0.00    -0.004 C 
ATOM      9  C   UNL     1      33.443 -13.329 -22.022  0.00  0.00    +0.129 C 
ATOM     10  C   UNL     1      33.763 -13.768 -20.734  0.00  0.00    +0.088 C 
ATOM     11  C   UNL     1      32.815 -12.457 -24.518  0.00  0.00    +0.121 C 
ATOM     12  C   UNL     1      32.722 -11.541 -23.400  0.00  0.00    +0.199 C 
ATOM     13  C   UNL     1      33.198 -14.358 -25.581  0.00  0.00    +0.172 C 
ATOM     14  C   UNL     1      32.576 -12.334 -25.869  0.00  0.00    +0.119 C 
ATOM     15  H   UNL     1      32.103  -9.955 -24.487  0.00  0.00    +0.155 HD
ENDROOT
BRANCH   5  16
ATOM     16  N   UNL     1      34.680 -17.299 -21.352  0.00  0.00    -0.312 N 
ATOM     17  N   UNL     1      35.621 -19.903 -20.670  0.00  0.00    +0.387 N 
ATOM     18  C   UNL     1      34.184 -19.660 -20.832  0.00  0.00    -0.042 C 
ATOM     19  C   UNL     1      33.843 -18.190 -20.540  0.00  0.00    +0.069 C 
ATOM     20  C   UNL     1      36.121 -17.576 -21.321  0.00  0.00    +0.067 C 
ATOM     21  C   UNL     1      36.386 -19.056 -21.583  0.00  0.00    -0.060 C 
ATOM     22  C   UNL     1      33.410 -20.587 -19.897  0.00  0.00    -0.022 C 
ATOM     23  H   UNL     1      35.822 -20.883 -20.872  0.00  0.00    -0.084 HD
ATOM     24  H   UNL     1      35.889 -19.682 -19.710  0.00  0.00    -0.084 HD
ENDBRANCH   5  16
BRANCH   3  26
ATOM     25 CL   UNL     1      34.272  -7.936 -23.748  0.00  0.00    -0.081 Cl
ATOM     26  C   UNL     1      32.197  -9.269 -22.575  0.00  0.00    +0.057 C 
ATOM     27  C   UNL     1      31.217  -9.416 -21.594  0.00  0.00    -0.008 C 
ATOM     28  C   UNL     1      33.044  -8.160 -22.554  0.00  0.00    +0.071 C 
ATOM     29  C   UNL     1      31.083  -8.455 -20.592  0.00  0.00    -0.003 C 
ATOM     30  C   UNL     1      30.296 -10.593 -21.589  0.00  0.00    +0.032 C 
ATOM     31  C   UNL     1      32.909  -7.199 -21.552  0.00  0.00    +0.013 C 
ATOM     32  C   UNL     1      31.929  -7.347 -20.571  0.00  0.00    +0.001 C 
ENDBRANCH   3  26
TORSDOF 2
ENDMDL
MODEL 6
REMARK VINA RESULT:      -9.9      9.679     15.437
REMARK  Name = 46937119
REMARK  2 active torsions:
REMARK  status: ('A' for Active; 'I' for Inactive)
REMARK    1  A    between atoms: N_3  and  C_26
REMARK    2  A    between atoms: C_5  and  N_16
REMARK                            x       y       z     vdW  Elec       q    Type
REMARK                         _______ _______ _______ _____ _____    ______ ____
ROOT
ATOM      1  N   UNL     1      31.936 -10.886 -21.242  0.00  0.00    -0.242 N 
ATOM      2  N   UNL     1      32.653  -9.415 -23.506  0.00  0.00    -0.388 NA
ATOM      3  N   UNL     1      31.887  -7.418 -22.584  0.00  0.00    -0.287 N 
ATOM      4  N   UNL     1      30.992 -10.299 -19.322  0.00  0.00    -0.224 NA
ATOM      5  C   UNL     1      33.348 -13.585 -23.347  0.00  0.00    +0.045 C 
ATOM      6  C   UNL     1      32.756 -12.960 -22.250  0.00  0.00    +0.032 C 
ATOM      7  C   UNL     1      32.526 -11.586 -22.301  0.00  0.00    +0.084 C 
ATOM      8  C   UNL     1      33.703 -12.841 -24.473  0.00  0.00    -0.004 C 
ATOM      9  C   UNL     1      32.876 -10.814 -23.428  0.00  0.00    +0.129 C 
ATOM     10  C   UNL     1      33.468 -11.464 -24.514  0.00  0.00    +0.088 C 
ATOM     11  C   UNL     1      31.725  -9.532 -21.325  0.00  0.00    +0.121 C 
ATOM     12  C   UNL     1      32.099  -8.775 -22.502  0.00  0.00    +0.199 C 
ATOM     13  C   UNL     1      31.481 -11.301 -20.022  0.00  0.00    +0.172 C 
ATOM     14  C   UNL     1      31.140  -9.195 -20.126  0.00  0.00    +0.119 C 
ATOM     15  H   UNL     1      31.468  -6.988 -21.804  0.00  0.00    +0.155 HD
ENDROOT
BRANCH   5  16
ATOM     16  N   UNL     1      33.589 -14.964 -23.319  0.00  0.00    -0.312 N 
ATOM     17  N   UNL     1      34.274 -17.730 -23.410  0.00  0.00    +0.387 N 
ATOM     18  C   UNL     1      34.257 -17.019 -22.127  0.00  0.00    -0.042 C 
ATOM     19  C   UNL     1      34.523 -15.519 -22.333  0.00  0.00    +0.069 C 
ATOM     20  C   UNL     1      33.475 -15.709 -24.579  0.00  0.00    +0.067 C 
ATOM     21  C   UNL     1      33.249 -17.193 -24.303  0.00  0.00    -0.060 C 
ATOM     22  C   UNL     1      35.309 -17.628 -21.202  0.00  0.00    -0.022 C 
ATOM     23  H   UNL     1      34.093 -18.721 -23.247  0.00  0.00    -0.084 HD
ATOM     24  H   UNL     1      35.189 -17.609 -23.845  0.00  0.00    -0.084 HD
ENDBRANCH   5  16
BRANCH   3  26
ATOM     25 CL   UNL     1      29.732  -7.143 -24.682  0.00  0.00    -0.081 Cl
ATOM     26  C   UNL     1      32.203  -6.591 -23.657  0.00  0.00    +0.057 C 
ATOM     27  C   UNL     1      33.448  -5.964 -23.698  0.00  0.00    -0.008 C 
ATOM     28  C   UNL     1      31.285  -6.387 -24.689  0.00  0.00    +0.071 C 
ATOM     29  C   UNL     1      33.776  -5.133 -24.770  0.00  0.00    -0.003 C 
ATOM     30  C   UNL     1      34.452  -6.162 -22.610  0.00  0.00    +0.032 C 
ATOM     31  C   UNL     1      31.614  -5.556 -25.760  0.00  0.00    +0.013 C 
ATOM     32  C   UNL     1      32.859  -4.930 -25.801  0.00  0.00    +0.001 C 
ENDBRANCH   3  26
TORSDOF 2
ENDMDL
MODEL 7
REMARK VINA RESULT:      -9.8      9.664     15.440
REMARK  Name = 46937119
REMARK  2 active torsions:
REMARK  status: ('A' for Active; 'I' for Inactive)
REMARK    1  A    between atoms: N_3  and  C_26
REMARK    2  A    between atoms: C_5  and  N_16
REMARK                            x       y       z     vdW  Elec       q    Type
REMARK                         _______ _______ _______ _____ _____    ______ ____
ROOT
ATOM      1  N   UNL     1      31.961 -10.900 -21.195  0.00  0.00    -0.242 N 
ATOM      2  N   UNL     1      32.625  -9.408 -23.462  0.00  0.00    -0.388 NA
ATOM      3  N   UNL     1      31.867  -7.422 -22.510  0.00  0.00    -0.287 N 
ATOM      4  N   UNL     1      31.053 -10.333 -19.252  0.00  0.00    -0.224 NA
ATOM      5  C   UNL     1      33.345 -13.575 -23.348  0.00  0.00    +0.045 C 
ATOM      6  C   UNL     1      32.772 -12.962 -22.235  0.00  0.00    +0.032 C 
ATOM      7  C   UNL     1      32.534 -11.588 -22.271  0.00  0.00    +0.084 C 
ATOM      8  C   UNL     1      33.674 -12.821 -24.476  0.00  0.00    -0.004 C 
ATOM      9  C   UNL     1      32.856 -10.806 -23.398  0.00  0.00    +0.129 C 
ATOM     10  C   UNL     1      33.431 -11.445 -24.501  0.00  0.00    +0.088 C 
ATOM     11  C   UNL     1      31.741  -9.547 -21.263  0.00  0.00    +0.121 C 
ATOM     12  C   UNL     1      32.087  -8.779 -22.442  0.00  0.00    +0.199 C 
ATOM     13  C   UNL     1      31.533 -11.327 -19.969  0.00  0.00    +0.172 C 
ATOM     14  C   UNL     1      31.178  -9.221 -20.050  0.00  0.00    +0.119 C 
ATOM     15  H   UNL     1      31.461  -7.001 -21.718  0.00  0.00    +0.155 HD
ENDROOT
BRANCH   5  16
ATOM     16  N   UNL     1      33.594 -14.952 -23.336  0.00  0.00    -0.312 N 
ATOM     17  N   UNL     1      34.294 -17.714 -23.460  0.00  0.00    +0.387 N 
ATOM     18  C   UNL     1      34.285 -17.015 -22.170  0.00  0.00    -0.042 C 
ATOM     19  C   UNL     1      34.540 -15.512 -22.363  0.00  0.00    +0.069 C 
ATOM     20  C   UNL     1      33.474 -15.686 -24.602  0.00  0.00    +0.067 C 
ATOM     21  C   UNL     1      33.258 -17.174 -24.338  0.00  0.00    -0.060 C 
ATOM     22  C   UNL     1      35.348 -17.627 -21.260  0.00  0.00    -0.022 C 
ATOM     23  H   UNL     1      34.120 -18.708 -23.305  0.00  0.00    -0.084 HD
ATOM     24  H   UNL     1      35.205 -17.583 -23.901  0.00  0.00    -0.084 HD
ENDBRANCH   5  16
BRANCH   3  26
ATOM     25 CL   UNL     1      34.649  -6.247 -22.518  0.00  0.00    -0.081 Cl
ATOM     26  C   UNL     1      32.156  -6.585 -23.582  0.00  0.00    +0.057 C 
ATOM     27  C   UNL     1      31.181  -6.347 -24.551  0.00  0.00    -0.008 C 
ATOM     28  C   UNL     1      33.411  -5.983 -23.693  0.00  0.00    +0.071 C 
ATOM     29  C   UNL     1      31.459  -5.508 -25.629  0.00  0.00    -0.003 C 
ATOM     30  C   UNL     1      29.828  -6.975 -24.459  0.00  0.00    +0.032 C 
ATOM     31  C   UNL     1      33.689  -5.145 -24.773  0.00  0.00    +0.013 C 
ATOM     32  C   UNL     1      32.713  -4.906 -25.740  0.00  0.00    +0.001 C 
ENDBRANCH   3  26
TORSDOF 2
ENDMDL
MODEL 8
REMARK VINA RESULT:      -9.6      6.263     10.357
REMARK  Name = 46937119
REMARK  2 active torsions:
REMARK  status: ('A' for Active; 'I' for Inactive)
REMARK    1  A    between atoms: N_3  and  C_26
REMARK    2  A    between atoms: C_5  and  N_16
REMARK                            x       y       z     vdW  Elec       q    Type
REMARK                         _______ _______ _______ _____ _____    ______ ____
ROOT
ATOM      1  N   UNL     1      33.253 -14.709 -23.635  0.00  0.00    -0.242 N 
ATOM      2  N   UNL     1      33.861 -16.173 -21.334  0.00  0.00    -0.388 NA
ATOM      3  N   UNL     1      34.570 -18.019 -22.566  0.00  0.00    -0.287 N 
ATOM      4  N   UNL     1      33.412 -15.193 -25.794  0.00  0.00    -0.224 NA
ATOM      5  C   UNL     1      32.322 -12.244 -21.033  0.00  0.00    +0.045 C 
ATOM      6  C   UNL     1      32.520 -12.793 -22.300  0.00  0.00    +0.032 C 
ATOM      7  C   UNL     1      33.027 -14.088 -22.400  0.00  0.00    +0.084 C 
ATOM      8  C   UNL     1      32.630 -12.983 -19.890  0.00  0.00    -0.004 C 
ATOM      9  C   UNL     1      33.345 -14.854 -21.261  0.00  0.00    +0.129 C 
ATOM     10  C   UNL     1      33.138 -14.281 -20.003  0.00  0.00    +0.088 C 
ATOM     11  C   UNL     1      33.754 -15.985 -23.698  0.00  0.00    +0.121 C 
ATOM     12  C   UNL     1      34.067 -16.740 -22.501  0.00  0.00    +0.199 C 
ATOM     13  C   UNL     1      33.064 -14.275 -24.917  0.00  0.00    +0.172 C 
ATOM     14  C   UNL     1      33.842 -16.261 -25.044  0.00  0.00    +0.119 C 
ATOM     15  H   UNL     1      34.705 -18.395 -23.465  0.00  0.00    +0.155 HD
ENDROOT
BRANCH   5  16
ATOM     16  N   UNL     1      31.815 -10.946 -20.907  0.00  0.00    -0.312 N 
ATOM     17  N   UNL     1      31.008  -8.230 -20.579  0.00  0.00    +0.387 N 
ATOM     18  C   UNL     1      30.889  -8.880 -21.889  0.00  0.00    -0.042 C 
ATOM     19  C   UNL     1      31.920 -10.011 -22.032  0.00  0.00    +0.069 C 
ATOM     20  C   UNL     1      31.807 -10.337 -19.571  0.00  0.00    +0.067 C 
ATOM     21  C   UNL     1      30.788  -9.201 -19.509  0.00  0.00    -0.060 C 
ATOM     22  C   UNL     1      31.081  -7.835 -22.987  0.00  0.00    -0.022 C 
ATOM     23  H   UNL     1      30.312  -7.487 -20.508  0.00  0.00    -0.084 HD
ATOM     24  H   UNL     1      31.947  -7.841 -20.487  0.00  0.00    -0.084 HD
ENDBRANCH   5  16
BRANCH   3  26
ATOM     25 CL   UNL     1      32.288 -19.606 -21.386  0.00  0.00    -0.081 Cl
ATOM     26  C   UNL     1      34.906 -18.835 -21.491  0.00  0.00    +0.057 C 
ATOM     27  C   UNL     1      36.226 -18.869 -21.039  0.00  0.00    -0.008 C 
ATOM     28  C   UNL     1      33.935 -19.616 -20.863  0.00  0.00    +0.071 C 
ATOM     29  C   UNL     1      36.574 -19.683 -19.961  0.00  0.00    -0.003 C 
ATOM     30  C   UNL     1      37.288 -18.044 -21.690  0.00  0.00    +0.032 C 
ATOM     31  C   UNL     1      34.283 -20.430 -19.785  0.00  0.00    +0.013 C 
ATOM     32  C   UNL     1      35.603 -20.462 -19.334  0.00  0.00    +0.001 C 
ENDBRANCH   3  26
TORSDOF 2
ENDMDL
MODEL 9
REMARK VINA RESULT:      -9.3      6.300     10.336
REMARK  Name = 46937119
REMARK  2 active torsions:
REMARK  status: ('A' for Active; 'I' for Inactive)
REMARK    1  A    between atoms: N_3  and  C_26
REMARK    2  A    between atoms: C_5  and  N_16
REMARK                            x       y       z     vdW  Elec       q    Type
REMARK                         _______ _______ _______ _____ _____    ______ ____
ROOT
ATOM      1  N   UNL     1      33.262 -14.723 -23.625  0.00  0.00    -0.242 N 
ATOM      2  N   UNL     1      33.874 -16.177 -21.319  0.00  0.00    -0.388 NA
ATOM      3  N   UNL     1      34.581 -18.029 -22.543  0.00  0.00    -0.287 N 
ATOM      4  N   UNL     1      33.416 -15.218 -25.782  0.00  0.00    -0.224 NA
ATOM      5  C   UNL     1      32.337 -12.247 -21.033  0.00  0.00    +0.045 C 
ATOM      6  C   UNL     1      32.532 -12.801 -22.297  0.00  0.00    +0.032 C 
ATOM      7  C   UNL     1      33.039 -14.096 -22.393  0.00  0.00    +0.084 C 
ATOM      8  C   UNL     1      32.646 -12.981 -19.887  0.00  0.00    -0.004 C 
ATOM      9  C   UNL     1      33.358 -14.858 -21.250  0.00  0.00    +0.129 C 
ATOM     10  C   UNL     1      33.154 -14.278 -19.995  0.00  0.00    +0.088 C 
ATOM     11  C   UNL     1      33.762 -16.000 -23.683  0.00  0.00    +0.121 C 
ATOM     12  C   UNL     1      34.078 -16.749 -22.484  0.00  0.00    +0.199 C 
ATOM     13  C   UNL     1      33.071 -14.295 -24.909  0.00  0.00    +0.172 C 
ATOM     14  C   UNL     1      33.848 -16.282 -25.028  0.00  0.00    +0.119 C 
ATOM     15  H   UNL     1      34.714 -18.409 -23.442  0.00  0.00    +0.155 HD
ENDROOT
BRANCH   5  16
ATOM     16  N   UNL     1      31.829 -10.947 -20.911  0.00  0.00    -0.312 N 
ATOM     17  N   UNL     1      31.024  -8.230 -20.595  0.00  0.00    +0.387 N 
ATOM     18  C   UNL     1      30.902  -8.886 -21.902  0.00  0.00    -0.042 C 
ATOM     19  C   UNL     1      31.933 -10.017 -22.041  0.00  0.00    +0.069 C 
ATOM     20  C   UNL     1      31.824 -10.332 -19.578  0.00  0.00    +0.067 C 
ATOM     21  C   UNL     1      30.806  -9.196 -19.519  0.00  0.00    -0.060 C 
ATOM     22  C   UNL     1      31.093  -7.846 -23.004  0.00  0.00    -0.022 C 
ATOM     23  H   UNL     1      30.328  -7.487 -20.526  0.00  0.00    -0.084 HD
ATOM     24  H   UNL     1      31.963  -7.841 -20.506  0.00  0.00    -0.084 HD
ENDBRANCH   5  16
BRANCH   3  26
ATOM     25 CL   UNL     1      37.494 -17.976 -21.749  0.00  0.00    -0.081 Cl
ATOM     26  C   UNL     1      34.918 -18.840 -21.466  0.00  0.00    +0.057 C 
ATOM     27  C   UNL     1      33.929 -19.601 -20.842  0.00  0.00    -0.008 C 
ATOM     28  C   UNL     1      36.236 -18.899 -21.008  0.00  0.00    +0.071 C 
ATOM     29  C   UNL     1      34.257 -20.420 -19.761  0.00  0.00    -0.003 C 
ATOM     30  C   UNL     1      32.511 -19.561 -21.309  0.00  0.00    +0.032 C 
ATOM     31  C   UNL     1      36.562 -19.717 -19.927  0.00  0.00    +0.013 C 
ATOM     32  C   UNL     1      35.573 -20.479 -19.304  0.00  0.00    +0.001 C 
ENDBRANCH   3  26
TORSDOF 2
ENDMDL
