MODEL 1
REMARK VINA RESULT:     -10.3      0.000      0.000
REMARK  Name = 9868491
REMARK  15 active torsions:
REMARK  status: ('A' for Active; 'I' for Inactive)
REMARK    1  A    between atoms: C_1  and  C_23
REMARK    2  A    between atoms: C_2  and  C_10
REMARK    3  A    between atoms: C_3  and  O_6
REMARK    4  A    between atoms: C_4  and  O_8
REMARK    5  A    between atoms: C_11  and  C_14
REMARK    6  A    between atoms: C_14  and  C_15
REMARK    7  A    between atoms: C_15  and  O_16
REMARK    8  A    between atoms: O_16  and  C_17
REMARK    9  A    between atoms: C_23  and  C_24
REMARK   10  A    between atoms: C_25  and  C_26
REMARK   11  A    between atoms: C_26  and  C_27
REMARK   12  A    between atoms: C_27  and  C_28
REMARK   13  A    between atoms: C_28  and  C_30
REMARK   14  A    between atoms: C_30  and  O_31
REMARK   15  A    between atoms: O_31  and  C_32
REMARK                            x       y       z     vdW  Elec       q    Type
REMARK                         _______ _______ _______ _____ _____    ______ ____
ROOT
ATOM      1  C   UNL     1      32.255 -22.576 -15.759  0.00  0.00    +0.038 C 
ATOM      2  C   UNL     1      33.105 -23.598 -14.986  0.00  0.00    +0.051 C 
ATOM      3  C   UNL     1      30.931 -22.603 -14.989  0.00  0.00    +0.114 C 
ATOM      4  C   UNL     1      32.727 -23.355 -13.514  0.00  0.00    +0.117 C 
ATOM      5  C   UNL     1      31.370 -22.631 -13.525  0.00  0.00    +0.059 C 
ENDROOT
BRANCH   3   6
ATOM      6  O   UNL     1      30.149 -23.754 -15.291  0.00  0.00    -0.384 OA
ATOM      7  H   UNL     1      29.792 -24.126 -14.470  0.00  0.00    +0.210 HD
ENDBRANCH   3   6
BRANCH   4   8
ATOM      8  O   UNL     1      32.601 -24.595 -12.828  0.00  0.00    -0.384 OA
ATOM      9  H   UNL     1      32.602 -24.436 -11.872  0.00  0.00    +0.210 HD
ENDBRANCH   4   8
BRANCH   2  10
ATOM     10  C   UNL     1      34.576 -23.454 -15.221  0.00  0.00    -0.023 C 
ATOM     11  C   UNL     1      35.169 -22.295 -15.541  0.00  0.00    +0.038 C 
BRANCH  11  14
ATOM     12  F   UNL     1      37.083 -20.990 -15.198  0.00  0.00    -0.196 F 
ATOM     13  F   UNL     1      36.920 -22.007 -17.113  0.00  0.00    -0.196 F 
ATOM     14  C   UNL     1      36.639 -22.135 -15.788  0.00  0.00    +0.322 C 
BRANCH  14  15
ATOM     15  C   UNL     1      37.433 -23.307 -15.233  0.00  0.00    +0.276 C 
BRANCH  15  16
ATOM     16  O   UNL     1      37.910 -22.965 -13.936  0.00  0.00    -0.469 OA
BRANCH  16  17
ATOM     17  C   UNL     1      37.156 -23.385 -12.873  0.00  0.00    +0.139 C 
ATOM     18  C   UNL     1      36.648 -22.453 -11.968  0.00  0.00    +0.037 C 
ATOM     19  C   UNL     1      36.899 -24.744 -12.693  0.00  0.00    +0.037 C 
ATOM     20  C   UNL     1      35.880 -22.881 -10.883  0.00  0.00    +0.003 C 
ATOM     21  C   UNL     1      36.132 -25.171 -11.610  0.00  0.00    +0.003 C 
ATOM     22  C   UNL     1      35.623 -24.240 -10.705  0.00  0.00    +0.000 C 
ENDBRANCH  16  17
ENDBRANCH  15  16
ENDBRANCH  14  15
ENDBRANCH  11  14
ENDBRANCH   2  10
BRANCH   1  23
ATOM     23  C   UNL     1      32.108 -22.904 -17.235  0.00  0.00    +0.028 C 
BRANCH  23  24
ATOM     24  C   UNL     1      31.935 -21.660 -18.054  0.00  0.00    -0.031 C 
ATOM     25  C   UNL     1      32.871 -21.175 -18.884  0.00  0.00    -0.031 C 
BRANCH  25  26
ATOM     26  C   UNL     1      34.209 -21.823 -19.096  0.00  0.00    +0.026 C 
BRANCH  26  27
ATOM     27  C   UNL     1      35.256 -20.867 -19.682  0.00  0.00    +0.016 C 
BRANCH  27  28
ATOM     28  C   UNL     1      34.687 -19.798 -20.618  0.00  0.00    +0.110 C 
BRANCH  28  30
ATOM     29  O   UNL     1      36.573 -18.320 -20.249  0.00  0.00    -0.250 OA
ATOM     30  C   UNL     1      35.708 -18.753 -21.000  0.00  0.00    +0.317 C 
BRANCH  30  31
ATOM     31  O   UNL     1      35.532 -18.400 -22.306  0.00  0.00    -0.452 OA
BRANCH  31  32
ATOM     32  C   UNL     1      34.357 -17.631 -22.584  0.00  0.00    +0.169 C 
ATOM     33  C   UNL     1      34.686 -16.151 -22.458  0.00  0.00    +0.047 C 
ATOM     34  C   UNL     1      33.846 -17.982 -23.973  0.00  0.00    +0.047 C 
ENDBRANCH  31  32
ENDBRANCH  30  31
ENDBRANCH  28  30
ENDBRANCH  27  28
ENDBRANCH  26  27
ENDBRANCH  25  26
ENDBRANCH  23  24
ENDBRANCH   1  23
TORSDOF 15
ENDMDL
MODEL 2
REMARK VINA RESULT:     -10.0      5.863     10.496
REMARK  Name = 9868491
REMARK  15 active torsions:
REMARK  status: ('A' for Active; 'I' for Inactive)
REMARK    1  A    between atoms: C_1  and  C_23
REMARK    2  A    between atoms: C_2  and  C_10
REMARK    3  A    between atoms: C_3  and  O_6
REMARK    4  A    between atoms: C_4  and  O_8
REMARK    5  A    between atoms: C_11  and  C_14
REMARK    6  A    between atoms: C_14  and  C_15
REMARK    7  A    between atoms: C_15  and  O_16
REMARK    8  A    between atoms: O_16  and  C_17
REMARK    9  A    between atoms: C_23  and  C_24
REMARK   10  A    between atoms: C_25  and  C_26
REMARK   11  A    between atoms: C_26  and  C_27
REMARK   12  A    between atoms: C_27  and  C_28
REMARK   13  A    between atoms: C_28  and  C_30
REMARK   14  A    between atoms: C_30  and  O_31
REMARK   15  A    between atoms: O_31  and  C_32
REMARK                            x       y       z     vdW  Elec       q    Type
REMARK                         _______ _______ _______ _____ _____    ______ ____
ROOT
ATOM      1  C   UNL     1      33.179 -14.138 -22.448  0.00  0.00    +0.038 C 
ATOM      2  C   UNL     1      34.357 -14.950 -23.011  0.00  0.00    +0.051 C 
ATOM      3  C   UNL     1      32.800 -13.247 -23.635  0.00  0.00    +0.114 C 
ATOM      4  C   UNL     1      33.945 -15.238 -24.466  0.00  0.00    +0.117 C 
ATOM      5  C   UNL     1      32.875 -14.196 -24.831  0.00  0.00    +0.059 C 
ENDROOT
BRANCH   3   6
ATOM      6  O   UNL     1      33.702 -12.161 -23.811  0.00  0.00    -0.384 OA
ATOM      7  H   UNL     1      33.253 -11.441 -24.282  0.00  0.00    +0.210 HD
ENDBRANCH   3   6
BRANCH   4   8
ATOM      8  O   UNL     1      35.066 -15.096 -25.330  0.00  0.00    -0.384 OA
ATOM      9  H   UNL     1      35.717 -15.785 -25.131  0.00  0.00    +0.210 HD
ENDBRANCH   4   8
BRANCH   2  10
ATOM     10  C   UNL     1      34.638 -16.206 -22.245  0.00  0.00    -0.023 C 
ATOM     11  C   UNL     1      34.828 -17.402 -22.819  0.00  0.00    +0.038 C 
BRANCH  11  14
ATOM     12  F   UNL     1      36.386 -18.664 -21.610  0.00  0.00    -0.196 F 
ATOM     13  F   UNL     1      34.992 -19.767 -22.864  0.00  0.00    -0.196 F 
ATOM     14  C   UNL     1      35.103 -18.669 -22.066  0.00  0.00    +0.322 C 
BRANCH  14  15
ATOM     15  C   UNL     1      34.165 -18.833 -20.880  0.00  0.00    +0.276 C 
BRANCH  15  16
ATOM     16  O   UNL     1      33.806 -20.205 -20.766  0.00  0.00    -0.469 OA
BRANCH  16  17
ATOM     17  C   UNL     1      34.156 -20.839 -19.605  0.00  0.00    +0.139 C 
ATOM     18  C   UNL     1      35.476 -20.793 -19.156  0.00  0.00    +0.037 C 
ATOM     19  C   UNL     1      33.194 -21.533 -18.871  0.00  0.00    +0.037 C 
ATOM     20  C   UNL     1      35.833 -21.439 -17.972  0.00  0.00    +0.003 C 
ATOM     21  C   UNL     1      33.551 -22.180 -17.688  0.00  0.00    +0.003 C 
ATOM     22  C   UNL     1      34.871 -22.133 -17.239  0.00  0.00    +0.000 C 
ENDBRANCH  16  17
ENDBRANCH  15  16
ENDBRANCH  14  15
ENDBRANCH  11  14
ENDBRANCH   2  10
BRANCH   1  23
ATOM     23  C   UNL     1      33.527 -13.359 -21.190  0.00  0.00    +0.028 C 
BRANCH  23  24
ATOM     24  C   UNL     1      32.354 -13.279 -20.259  0.00  0.00    -0.031 C 
ATOM     25  C   UNL     1      31.459 -12.278 -20.269  0.00  0.00    -0.031 C 
BRANCH  25  26
ATOM     26  C   UNL     1      31.524 -11.115 -21.215  0.00  0.00    +0.026 C 
BRANCH  26  27
ATOM     27  C   UNL     1      30.684  -9.917 -20.756  0.00  0.00    +0.016 C 
BRANCH  27  28
ATOM     28  C   UNL     1      31.219  -9.206 -19.511  0.00  0.00    +0.110 C 
BRANCH  28  30
ATOM     29  O   UNL     1      31.613  -6.865 -19.017  0.00  0.00    -0.250 OA
ATOM     30  C   UNL     1      31.698  -7.803 -19.800  0.00  0.00    +0.317 C 
BRANCH  30  31
ATOM     31  O   UNL     1      32.262  -7.761 -21.042  0.00  0.00    -0.452 OA
BRANCH  31  32
ATOM     32  C   UNL     1      32.295  -6.471 -21.661  0.00  0.00    +0.169 C 
ATOM     33  C   UNL     1      33.581  -6.335 -22.464  0.00  0.00    +0.047 C 
ATOM     34  C   UNL     1      31.062  -6.304 -22.534  0.00  0.00    +0.047 C 
ENDBRANCH  31  32
ENDBRANCH  30  31
ENDBRANCH  28  30
ENDBRANCH  27  28
ENDBRANCH  26  27
ENDBRANCH  25  26
ENDBRANCH  23  24
ENDBRANCH   1  23
TORSDOF 15
ENDMDL
MODEL 3
REMARK VINA RESULT:      -9.8      2.725      9.764
REMARK  Name = 9868491
REMARK  15 active torsions:
REMARK  status: ('A' for Active; 'I' for Inactive)
REMARK    1  A    between atoms: C_1  and  C_23
REMARK    2  A    between atoms: C_2  and  C_10
REMARK    3  A    between atoms: C_3  and  O_6
REMARK    4  A    between atoms: C_4  and  O_8
REMARK    5  A    between atoms: C_11  and  C_14
REMARK    6  A    between atoms: C_14  and  C_15
REMARK    7  A    between atoms: C_15  and  O_16
REMARK    8  A    between atoms: O_16  and  C_17
REMARK    9  A    between atoms: C_23  and  C_24
REMARK   10  A    between atoms: C_25  and  C_26
REMARK   11  A    between atoms: C_26  and  C_27
REMARK   12  A    between atoms: C_27  and  C_28
REMARK   13  A    between atoms: C_28  and  C_30
REMARK   14  A    between atoms: C_30  and  O_31
REMARK   15  A    between atoms: O_31  and  C_32
REMARK                            x       y       z     vdW  Elec       q    Type
REMARK                         _______ _______ _______ _____ _____    ______ ____
ROOT
ATOM      1  C   UNL     1      35.169 -21.806 -18.025  0.00  0.00    +0.038 C 
ATOM      2  C   UNL     1      34.289 -20.915 -18.917  0.00  0.00    +0.051 C 
ATOM      3  C   UNL     1      34.141 -22.745 -17.388  0.00  0.00    +0.114 C 
ATOM      4  C   UNL     1      33.241 -21.885 -19.488  0.00  0.00    +0.117 C 
ATOM      5  C   UNL     1      33.216 -23.103 -18.550  0.00  0.00    +0.059 C 
ENDROOT
BRANCH   3   6
ATOM      6  O   UNL     1      33.402 -22.119 -16.345  0.00  0.00    -0.384 OA
ATOM      7  H   UNL     1      32.705 -22.718 -16.038  0.00  0.00    +0.210 HD
ENDBRANCH   3   6
BRANCH   4   8
ATOM      8  O   UNL     1      31.959 -21.268 -19.504  0.00  0.00    -0.384 OA
ATOM      9  H   UNL     1      31.751 -20.977 -20.405  0.00  0.00    +0.210 HD
ENDBRANCH   4   8
BRANCH   2  10
ATOM     10  C   UNL     1      35.052 -20.210 -19.996  0.00  0.00    -0.023 C 
ATOM     11  C   UNL     1      34.481 -19.432 -20.926  0.00  0.00    +0.038 C 
BRANCH  11  14
ATOM     12  F   UNL     1      35.344 -19.543 -23.100  0.00  0.00    -0.196 F 
ATOM     13  F   UNL     1      36.502 -18.420 -21.642  0.00  0.00    -0.196 F 
ATOM     14  C   UNL     1      35.230 -18.726 -22.016  0.00  0.00    +0.322 C 
BRANCH  14  15
ATOM     15  C   UNL     1      34.527 -17.447 -22.443  0.00  0.00    +0.276 C 
BRANCH  15  16
ATOM     16  O   UNL     1      34.735 -16.455 -21.444  0.00  0.00    -0.469 OA
BRANCH  16  17
ATOM     17  C   UNL     1      34.194 -15.219 -21.680  0.00  0.00    +0.139 C 
ATOM     18  C   UNL     1      34.186 -14.697 -22.974  0.00  0.00    +0.037 C 
ATOM     19  C   UNL     1      33.653 -14.482 -20.627  0.00  0.00    +0.037 C 
ATOM     20  C   UNL     1      33.635 -13.438 -23.215  0.00  0.00    +0.003 C 
ATOM     21  C   UNL     1      33.102 -13.223 -20.868  0.00  0.00    +0.003 C 
ATOM     22  C   UNL     1      33.094 -12.701 -22.162  0.00  0.00    +0.000 C 
ENDBRANCH  16  17
ENDBRANCH  15  16
ENDBRANCH  14  15
ENDBRANCH  11  14
ENDBRANCH   2  10
BRANCH   1  23
ATOM     23  C   UNL     1      35.990 -21.025 -17.012  0.00  0.00    +0.028 C 
BRANCH  23  24
ATOM     24  C   UNL     1      37.193 -21.805 -16.571  0.00  0.00    -0.031 C 
ATOM     25  C   UNL     1      37.254 -22.501 -15.425  0.00  0.00    -0.031 C 
BRANCH  25  26
ATOM     26  C   UNL     1      36.121 -22.584 -14.443  0.00  0.00    +0.026 C 
BRANCH  26  27
ATOM     27  C   UNL     1      36.590 -22.595 -12.982  0.00  0.00    +0.016 C 
BRANCH  27  28
ATOM     28  C   UNL     1      36.024 -23.740 -12.141  0.00  0.00    +0.110 C 
BRANCH  28  30
ATOM     29  O   UNL     1      36.761 -25.917 -11.369  0.00  0.00    -0.250 OA
ATOM     30  C   UNL     1      36.997 -24.886 -11.984  0.00  0.00    +0.317 C 
BRANCH  30  31
ATOM     31  O   UNL     1      38.149 -24.600 -12.656  0.00  0.00    -0.452 OA
BRANCH  31  32
ATOM     32  C   UNL     1      38.626 -25.629 -13.529  0.00  0.00    +0.169 C 
ATOM     33  C   UNL     1      37.516 -26.022 -14.493  0.00  0.00    +0.047 C 
ATOM     34  C   UNL     1      39.863 -25.132 -14.261  0.00  0.00    +0.047 C 
ENDBRANCH  31  32
ENDBRANCH  30  31
ENDBRANCH  28  30
ENDBRANCH  27  28
ENDBRANCH  26  27
ENDBRANCH  25  26
ENDBRANCH  23  24
ENDBRANCH   1  23
TORSDOF 15
ENDMDL
MODEL 4
REMARK VINA RESULT:      -9.8      1.861      8.188
REMARK  Name = 9868491
REMARK  15 active torsions:
REMARK  status: ('A' for Active; 'I' for Inactive)
REMARK    1  A    between atoms: C_1  and  C_23
REMARK    2  A    between atoms: C_2  and  C_10
REMARK    3  A    between atoms: C_3  and  O_6
REMARK    4  A    between atoms: C_4  and  O_8
REMARK    5  A    between atoms: C_11  and  C_14
REMARK    6  A    between atoms: C_14  and  C_15
REMARK    7  A    between atoms: C_15  and  O_16
REMARK    8  A    between atoms: O_16  and  C_17
REMARK    9  A    between atoms: C_23  and  C_24
REMARK   10  A    between atoms: C_25  and  C_26
REMARK   11  A    between atoms: C_26  and  C_27
REMARK   12  A    between atoms: C_27  and  C_28
REMARK   13  A    between atoms: C_28  and  C_30
REMARK   14  A    between atoms: C_30  and  O_31
REMARK   15  A    between atoms: O_31  and  C_32
REMARK                            x       y       z     vdW  Elec       q    Type
REMARK                         _______ _______ _______ _____ _____    ______ ____
ROOT
ATOM      1  C   UNL     1      31.257 -23.400 -15.257  0.00  0.00    +0.038 C 
ATOM      2  C   UNL     1      30.727 -22.288 -16.177  0.00  0.00    +0.051 C 
ATOM      3  C   UNL     1      30.009 -23.787 -14.459  0.00  0.00    +0.114 C 
ATOM      4  C   UNL     1      29.322 -22.776 -16.573  0.00  0.00    +0.117 C 
ATOM      5  C   UNL     1      28.903 -23.809 -15.515  0.00  0.00    +0.059 C 
ENDROOT
BRANCH   3   6
ATOM      6  O   UNL     1      29.698 -22.843 -13.441  0.00  0.00    -0.384 OA
ATOM      7  H   UNL     1      29.734 -21.947 -13.809  0.00  0.00    +0.210 HD
ENDBRANCH   3   6
BRANCH   4   8
ATOM      8  O   UNL     1      28.405 -21.688 -16.567  0.00  0.00    -0.384 OA
ATOM      9  H   UNL     1      27.508 -22.022 -16.719  0.00  0.00    +0.210 HD
ENDBRANCH   4   8
BRANCH   2  10
ATOM     10  C   UNL     1      31.594 -22.035 -17.371  0.00  0.00    -0.023 C 
ATOM     11  C   UNL     1      32.846 -22.496 -17.494  0.00  0.00    +0.038 C 
BRANCH  11  14
ATOM     12  F   UNL     1      33.548 -23.228 -19.604  0.00  0.00    -0.196 F 
ATOM     13  F   UNL     1      35.049 -22.283 -18.345  0.00  0.00    -0.196 F 
ATOM     14  C   UNL     1      33.729 -22.245 -18.679  0.00  0.00    +0.322 C 
BRANCH  14  15
ATOM     15  C   UNL     1      33.431 -20.903 -19.329  0.00  0.00    +0.276 C 
BRANCH  15  16
ATOM     16  O   UNL     1      34.647 -20.176 -19.458  0.00  0.00    -0.469 OA
BRANCH  16  17
ATOM     17  C   UNL     1      34.810 -19.447 -20.606  0.00  0.00    +0.139 C 
ATOM     18  C   UNL     1      33.796 -19.419 -21.564  0.00  0.00    +0.037 C 
ATOM     19  C   UNL     1      35.990 -18.736 -20.819  0.00  0.00    +0.037 C 
ATOM     20  C   UNL     1      33.962 -18.677 -22.734  0.00  0.00    +0.003 C 
ATOM     21  C   UNL     1      36.157 -17.994 -21.988  0.00  0.00    +0.003 C 
ATOM     22  C   UNL     1      35.143 -17.965 -22.946  0.00  0.00    +0.000 C 
ENDBRANCH  16  17
ENDBRANCH  15  16
ENDBRANCH  14  15
ENDBRANCH  11  14
ENDBRANCH   2  10
BRANCH   1  23
ATOM     23  C   UNL     1      32.424 -22.962 -14.387  0.00  0.00    +0.028 C 
BRANCH  23  24
ATOM     24  C   UNL     1      33.349 -24.107 -14.101  0.00  0.00    -0.031 C 
ATOM     25  C   UNL     1      34.668 -24.081 -14.347  0.00  0.00    -0.031 C 
BRANCH  25  26
ATOM     26  C   UNL     1      35.380 -22.899 -14.937  0.00  0.00    +0.026 C 
BRANCH  26  27
ATOM     27  C   UNL     1      36.586 -22.445 -14.104  0.00  0.00    +0.016 C 
BRANCH  27  28
ATOM     28  C   UNL     1      36.475 -22.746 -12.609  0.00  0.00    +0.110 C 
BRANCH  28  30
ATOM     29  O   UNL     1      37.574 -24.193 -11.003  0.00  0.00    -0.250 OA
ATOM     30  C   UNL     1      37.536 -23.707 -12.126  0.00  0.00    +0.317 C 
BRANCH  30  31
ATOM     31  O   UNL     1      38.413 -23.964 -13.140  0.00  0.00    -0.452 OA
BRANCH  31  32
ATOM     32  C   UNL     1      38.764 -25.340 -13.318  0.00  0.00    +0.169 C 
ATOM     33  C   UNL     1      37.626 -26.058 -14.028  0.00  0.00    +0.047 C 
ATOM     34  C   UNL     1      40.065 -25.427 -14.101  0.00  0.00    +0.047 C 
ENDBRANCH  31  32
ENDBRANCH  30  31
ENDBRANCH  28  30
ENDBRANCH  27  28
ENDBRANCH  26  27
ENDBRANCH  25  26
ENDBRANCH  23  24
ENDBRANCH   1  23
TORSDOF 15
ENDMDL
MODEL 5
REMARK VINA RESULT:      -9.7      2.747      4.994
REMARK  Name = 9868491
REMARK  15 active torsions:
REMARK  status: ('A' for Active; 'I' for Inactive)
REMARK    1  A    between atoms: C_1  and  C_23
REMARK    2  A    between atoms: C_2  and  C_10
REMARK    3  A    between atoms: C_3  and  O_6
REMARK    4  A    between atoms: C_4  and  O_8
REMARK    5  A    between atoms: C_11  and  C_14
REMARK    6  A    between atoms: C_14  and  C_15
REMARK    7  A    between atoms: C_15  and  O_16
REMARK    8  A    between atoms: O_16  and  C_17
REMARK    9  A    between atoms: C_23  and  C_24
REMARK   10  A    between atoms: C_25  and  C_26
REMARK   11  A    between atoms: C_26  and  C_27
REMARK   12  A    between atoms: C_27  and  C_28
REMARK   13  A    between atoms: C_28  and  C_30
REMARK   14  A    between atoms: C_30  and  O_31
REMARK   15  A    between atoms: O_31  and  C_32
REMARK                            x       y       z     vdW  Elec       q    Type
REMARK                         _______ _______ _______ _____ _____    ______ ____
ROOT
ATOM      1  C   UNL     1      34.636 -19.594 -19.919  0.00  0.00    +0.038 C 
ATOM      2  C   UNL     1      34.916 -21.064 -19.566  0.00  0.00    +0.051 C 
ATOM      3  C   UNL     1      33.211 -19.657 -20.476  0.00  0.00    +0.114 C 
ATOM      4  C   UNL     1      33.576 -21.569 -19.002  0.00  0.00    +0.117 C 
ATOM      5  C   UNL     1      32.494 -20.606 -19.517  0.00  0.00    +0.059 C 
ENDROOT
BRANCH   3   6
ATOM      6  O   UNL     1      33.167 -20.172 -21.802  0.00  0.00    -0.384 OA
ATOM      7  H   UNL     1      33.404 -21.112 -21.792  0.00  0.00    +0.210 HD
ENDBRANCH   3   6
BRANCH   4   8
ATOM      8  O   UNL     1      33.309 -22.884 -19.476  0.00  0.00    -0.384 OA
ATOM      9  H   UNL     1      33.397 -23.514 -18.746  0.00  0.00    +0.210 HD
ENDBRANCH   4   8
BRANCH   2  10
ATOM     10  C   UNL     1      36.040 -21.243 -18.594  0.00  0.00    -0.023 C 
ATOM     11  C   UNL     1      35.875 -21.300 -17.265  0.00  0.00    +0.038 C 
BRANCH  11  14
ATOM     12  F   UNL     1      37.743 -20.337 -16.234  0.00  0.00    -0.196 F 
ATOM     13  F   UNL     1      37.839 -22.471 -16.642  0.00  0.00    -0.196 F 
ATOM     14  C   UNL     1      36.990 -21.471 -16.279  0.00  0.00    +0.322 C 
BRANCH  14  15
ATOM     15  C   UNL     1      36.465 -21.762 -14.881  0.00  0.00    +0.276 C 
BRANCH  15  16
ATOM     16  O   UNL     1      37.474 -22.446 -14.146  0.00  0.00    -0.469 OA
BRANCH  16  17
ATOM     17  C   UNL     1      37.281 -23.785 -13.936  0.00  0.00    +0.139 C 
ATOM     18  C   UNL     1      38.004 -24.447 -12.944  0.00  0.00    +0.037 C 
ATOM     19  C   UNL     1      36.362 -24.488 -14.716  0.00  0.00    +0.037 C 
ATOM     20  C   UNL     1      37.808 -25.812 -12.730  0.00  0.00    +0.003 C 
ATOM     21  C   UNL     1      36.166 -25.853 -14.502  0.00  0.00    +0.003 C 
ATOM     22  C   UNL     1      36.889 -26.514 -13.510  0.00  0.00    +0.000 C 
ENDBRANCH  16  17
ENDBRANCH  15  16
ENDBRANCH  14  15
ENDBRANCH  11  14
ENDBRANCH   2  10
BRANCH   1  23
ATOM     23  C   UNL     1      35.644 -19.001 -20.890  0.00  0.00    +0.028 C 
BRANCH  23  24
ATOM     24  C   UNL     1      35.432 -17.527 -21.061  0.00  0.00    -0.031 C 
ATOM     25  C   UNL     1      34.910 -16.970 -22.165  0.00  0.00    -0.031 C 
BRANCH  25  26
ATOM     26  C   UNL     1      34.474 -17.759 -23.366  0.00  0.00    +0.026 C 
BRANCH  26  27
ATOM     27  C   UNL     1      33.638 -16.936 -24.355  0.00  0.00    +0.016 C 
BRANCH  27  28
ATOM     28  C   UNL     1      34.256 -15.593 -24.748  0.00  0.00    +0.110 C 
BRANCH  28  30
ATOM     29  O   UNL     1      32.817 -14.045 -25.937  0.00  0.00    -0.250 OA
ATOM     30  C   UNL     1      33.230 -14.492 -24.874  0.00  0.00    +0.317 C 
BRANCH  30  31
ATOM     31  O   UNL     1      32.821 -14.106 -23.631  0.00  0.00    -0.452 OA
BRANCH  31  32
ATOM     32  C   UNL     1      33.698 -13.207 -22.944  0.00  0.00    +0.169 C 
ATOM     33  C   UNL     1      33.293 -11.775 -23.260  0.00  0.00    +0.047 C 
ATOM     34  C   UNL     1      33.643 -13.495 -21.452  0.00  0.00    +0.047 C 
ENDBRANCH  31  32
ENDBRANCH  30  31
ENDBRANCH  28  30
ENDBRANCH  27  28
ENDBRANCH  26  27
ENDBRANCH  25  26
ENDBRANCH  23  24
ENDBRANCH   1  23
TORSDOF 15
ENDMDL
MODEL 6
REMARK VINA RESULT:      -9.7      2.605      9.437
REMARK  Name = 9868491
REMARK  15 active torsions:
REMARK  status: ('A' for Active; 'I' for Inactive)
REMARK    1  A    between atoms: C_1  and  C_23
REMARK    2  A    between atoms: C_2  and  C_10
REMARK    3  A    between atoms: C_3  and  O_6
REMARK    4  A    between atoms: C_4  and  O_8
REMARK    5  A    between atoms: C_11  and  C_14
REMARK    6  A    between atoms: C_14  and  C_15
REMARK    7  A    between atoms: C_15  and  O_16
REMARK    8  A    between atoms: O_16  and  C_17
REMARK    9  A    between atoms: C_23  and  C_24
REMARK   10  A    between atoms: C_25  and  C_26
REMARK   11  A    between atoms: C_26  and  C_27
REMARK   12  A    between atoms: C_27  and  C_28
REMARK   13  A    between atoms: C_28  and  C_30
REMARK   14  A    between atoms: C_30  and  O_31
REMARK   15  A    between atoms: O_31  and  C_32
REMARK                            x       y       z     vdW  Elec       q    Type
REMARK                         _______ _______ _______ _____ _____    ______ ____
ROOT
ATOM      1  C   UNL     1      35.160 -21.756 -18.112  0.00  0.00    +0.038 C 
ATOM      2  C   UNL     1      34.282 -20.844 -18.984  0.00  0.00    +0.051 C 
ATOM      3  C   UNL     1      34.122 -22.654 -17.431  0.00  0.00    +0.114 C 
ATOM      4  C   UNL     1      33.182 -21.783 -19.509  0.00  0.00    +0.117 C 
ATOM      5  C   UNL     1      33.147 -22.990 -18.558  0.00  0.00    +0.059 C 
ENDROOT
BRANCH   3   6
ATOM      6  O   UNL     1      33.441 -21.993 -16.371  0.00  0.00    -0.384 OA
ATOM      7  H   UNL     1      32.588 -22.427 -16.214  0.00  0.00    +0.210 HD
ENDBRANCH   3   6
BRANCH   4   8
ATOM      8  O   UNL     1      31.922 -21.122 -19.489  0.00  0.00    -0.384 OA
ATOM      9  H   UNL     1      31.601 -21.069 -18.576  0.00  0.00    +0.210 HD
ENDBRANCH   4   8
BRANCH   2  10
ATOM     10  C   UNL     1      35.031 -20.176 -20.094  0.00  0.00    -0.023 C 
ATOM     11  C   UNL     1      34.503 -19.236 -20.890  0.00  0.00    +0.038 C 
BRANCH  11  14
ATOM     12  F   UNL     1      35.325 -19.407 -23.076  0.00  0.00    -0.196 F 
ATOM     13  F   UNL     1      36.520 -18.260 -21.667  0.00  0.00    -0.196 F 
ATOM     14  C   UNL     1      35.238 -18.563 -22.011  0.00  0.00    +0.322 C 
BRANCH  14  15
ATOM     15  C   UNL     1      34.539 -17.288 -22.455  0.00  0.00    +0.276 C 
BRANCH  15  16
ATOM     16  O   UNL     1      34.768 -16.276 -21.481  0.00  0.00    -0.469 OA
BRANCH  16  17
ATOM     17  C   UNL     1      34.174 -15.062 -21.701  0.00  0.00    +0.139 C 
ATOM     18  C   UNL     1      34.155 -14.519 -22.986  0.00  0.00    +0.037 C 
ATOM     19  C   UNL     1      33.591 -14.368 -20.641  0.00  0.00    +0.037 C 
ATOM     20  C   UNL     1      33.549 -13.281 -23.210  0.00  0.00    +0.003 C 
ATOM     21  C   UNL     1      32.986 -13.132 -20.866  0.00  0.00    +0.003 C 
ATOM     22  C   UNL     1      32.966 -12.588 -22.150  0.00  0.00    +0.000 C 
ENDBRANCH  16  17
ENDBRANCH  15  16
ENDBRANCH  14  15
ENDBRANCH  11  14
ENDBRANCH   2  10
BRANCH   1  23
ATOM     23  C   UNL     1      36.041 -20.995 -17.134  0.00  0.00    +0.028 C 
BRANCH  23  24
ATOM     24  C   UNL     1      37.234 -21.810 -16.731  0.00  0.00    -0.031 C 
ATOM     25  C   UNL     1      37.361 -22.408 -15.537  0.00  0.00    -0.031 C 
BRANCH  25  26
ATOM     26  C   UNL     1      36.321 -22.336 -14.457  0.00  0.00    +0.026 C 
BRANCH  26  27
ATOM     27  C   UNL     1      36.040 -23.693 -13.799  0.00  0.00    +0.016 C 
BRANCH  27  28
ATOM     28  C   UNL     1      34.729 -24.351 -14.234  0.00  0.00    +0.110 C 
BRANCH  28  30
ATOM     29  O   UNL     1      33.604 -23.647 -12.204  0.00  0.00    -0.250 OA
ATOM     30  C   UNL     1      33.549 -23.912 -13.398  0.00  0.00    +0.317 C 
BRANCH  30  31
ATOM     31  O   UNL     1      32.438 -23.830 -14.186  0.00  0.00    -0.452 OA
BRANCH  31  32
ATOM     32  C   UNL     1      31.250 -23.374 -13.532  0.00  0.00    +0.169 C 
ATOM     33  C   UNL     1      30.537 -22.374 -14.430  0.00  0.00    +0.047 C 
ATOM     34  C   UNL     1      30.369 -24.570 -13.204  0.00  0.00    +0.047 C 
ENDBRANCH  31  32
ENDBRANCH  30  31
ENDBRANCH  28  30
ENDBRANCH  27  28
ENDBRANCH  26  27
ENDBRANCH  25  26
ENDBRANCH  23  24
ENDBRANCH   1  23
TORSDOF 15
ENDMDL
MODEL 7
REMARK VINA RESULT:      -9.6      2.420      5.218
REMARK  Name = 9868491
REMARK  15 active torsions:
REMARK  status: ('A' for Active; 'I' for Inactive)
REMARK    1  A    between atoms: C_1  and  C_23
REMARK    2  A    between atoms: C_2  and  C_10
REMARK    3  A    between atoms: C_3  and  O_6
REMARK    4  A    between atoms: C_4  and  O_8
REMARK    5  A    between atoms: C_11  and  C_14
REMARK    6  A    between atoms: C_14  and  C_15
REMARK    7  A    between atoms: C_15  and  O_16
REMARK    8  A    between atoms: O_16  and  C_17
REMARK    9  A    between atoms: C_23  and  C_24
REMARK   10  A    between atoms: C_25  and  C_26
REMARK   11  A    between atoms: C_26  and  C_27
REMARK   12  A    between atoms: C_27  and  C_28
REMARK   13  A    between atoms: C_28  and  C_30
REMARK   14  A    between atoms: C_30  and  O_31
REMARK   15  A    between atoms: O_31  and  C_32
REMARK                            x       y       z     vdW  Elec       q    Type
REMARK                         _______ _______ _______ _____ _____    ______ ____
ROOT
ATOM      1  C   UNL     1      34.747 -19.632 -19.893  0.00  0.00    +0.038 C 
ATOM      2  C   UNL     1      34.985 -21.096 -19.489  0.00  0.00    +0.051 C 
ATOM      3  C   UNL     1      33.349 -19.688 -20.515  0.00  0.00    +0.114 C 
ATOM      4  C   UNL     1      33.613 -21.564 -18.975  0.00  0.00    +0.117 C 
ATOM      5  C   UNL     1      32.572 -20.598 -19.564  0.00  0.00    +0.059 C 
ENDROOT
BRANCH   3   6
ATOM      6  O   UNL     1      33.358 -20.239 -21.827  0.00  0.00    -0.384 OA
ATOM      7  H   UNL     1      33.387 -19.521 -22.478  0.00  0.00    +0.210 HD
ENDBRANCH   3   6
BRANCH   4   8
ATOM      8  O   UNL     1      33.345 -22.887 -19.425  0.00  0.00    -0.384 OA
ATOM      9  H   UNL     1      32.491 -23.181 -19.074  0.00  0.00    +0.210 HD
ENDBRANCH   4   8
BRANCH   2  10
ATOM     10  C   UNL     1      36.061 -21.265 -18.461  0.00  0.00    -0.023 C 
ATOM     11  C   UNL     1      35.826 -21.609 -17.187  0.00  0.00    +0.038 C 
BRANCH  11  14
ATOM     12  F   UNL     1      37.351 -20.554 -15.757  0.00  0.00    -0.196 F 
ATOM     13  F   UNL     1      37.971 -22.449 -16.626  0.00  0.00    -0.196 F 
ATOM     14  C   UNL     1      36.891 -21.776 -16.144  0.00  0.00    +0.322 C 
BRANCH  14  15
ATOM     15  C   UNL     1      36.367 -22.509 -14.919  0.00  0.00    +0.276 C 
BRANCH  15  16
ATOM     16  O   UNL     1      35.491 -23.547 -15.346  0.00  0.00    -0.469 OA
BRANCH  16  17
ATOM     17  C   UNL     1      34.205 -23.498 -14.878  0.00  0.00    +0.139 C 
ATOM     18  C   UNL     1      33.179 -23.043 -15.707  0.00  0.00    +0.037 C 
ATOM     19  C   UNL     1      33.921 -23.901 -13.573  0.00  0.00    +0.037 C 
ATOM     20  C   UNL     1      31.868 -22.993 -15.230  0.00  0.00    +0.003 C 
ATOM     21  C   UNL     1      32.612 -23.851 -13.097  0.00  0.00    +0.003 C 
ATOM     22  C   UNL     1      31.586 -23.396 -13.925  0.00  0.00    +0.000 C 
ENDBRANCH  16  17
ENDBRANCH  15  16
ENDBRANCH  14  15
ENDBRANCH  11  14
ENDBRANCH   2  10
BRANCH   1  23
ATOM     23  C   UNL     1      35.809 -19.082 -20.832  0.00  0.00    +0.028 C 
BRANCH  23  24
ATOM     24  C   UNL     1      35.634 -17.608 -21.046  0.00  0.00    -0.031 C 
ATOM     25  C   UNL     1      35.073 -17.074 -22.142  0.00  0.00    -0.031 C 
BRANCH  25  26
ATOM     26  C   UNL     1      34.549 -17.890 -23.288  0.00  0.00    +0.026 C 
BRANCH  26  27
ATOM     27  C   UNL     1      33.829 -17.046 -24.348  0.00  0.00    +0.016 C 
BRANCH  27  28
ATOM     28  C   UNL     1      34.362 -15.620 -24.496  0.00  0.00    +0.110 C 
BRANCH  28  30
ATOM     29  O   UNL     1      32.914 -14.376 -25.991  0.00  0.00    -0.250 OA
ATOM     30  C   UNL     1      33.282 -14.625 -24.850  0.00  0.00    +0.317 C 
BRANCH  30  31
ATOM     31  O   UNL     1      32.769 -14.084 -23.707  0.00  0.00    -0.452 OA
BRANCH  31  32
ATOM     32  C   UNL     1      33.640 -13.194 -23.001  0.00  0.00    +0.169 C 
ATOM     33  C   UNL     1      33.351 -11.764 -23.434  0.00  0.00    +0.047 C 
ATOM     34  C   UNL     1      33.444 -13.383 -21.505  0.00  0.00    +0.047 C 
ENDBRANCH  31  32
ENDBRANCH  30  31
ENDBRANCH  28  30
ENDBRANCH  27  28
ENDBRANCH  26  27
ENDBRANCH  25  26
ENDBRANCH  23  24
ENDBRANCH   1  23
TORSDOF 15
ENDMDL
MODEL 8
REMARK VINA RESULT:      -9.5      1.770      2.865
REMARK  Name = 9868491
REMARK  15 active torsions:
REMARK  status: ('A' for Active; 'I' for Inactive)
REMARK    1  A    between atoms: C_1  and  C_23
REMARK    2  A    between atoms: C_2  and  C_10
REMARK    3  A    between atoms: C_3  and  O_6
REMARK    4  A    between atoms: C_4  and  O_8
REMARK    5  A    between atoms: C_11  and  C_14
REMARK    6  A    between atoms: C_14  and  C_15
REMARK    7  A    between atoms: C_15  and  O_16
REMARK    8  A    between atoms: O_16  and  C_17
REMARK    9  A    between atoms: C_23  and  C_24
REMARK   10  A    between atoms: C_25  and  C_26
REMARK   11  A    between atoms: C_26  and  C_27
REMARK   12  A    between atoms: C_27  and  C_28
REMARK   13  A    between atoms: C_28  and  C_30
REMARK   14  A    between atoms: C_30  and  O_31
REMARK   15  A    between atoms: O_31  and  C_32
REMARK                            x       y       z     vdW  Elec       q    Type
REMARK                         _______ _______ _______ _____ _____    ______ ____
ROOT
ATOM      1  C   UNL     1      32.116 -22.580 -15.427  0.00  0.00    +0.038 C 
ATOM      2  C   UNL     1      32.407 -23.555 -14.274  0.00  0.00    +0.051 C 
ATOM      3  C   UNL     1      30.597 -22.699 -15.579  0.00  0.00    +0.114 C 
ATOM      4  C   UNL     1      31.225 -23.350 -13.311  0.00  0.00    +0.117 C 
ATOM      5  C   UNL     1      30.094 -22.714 -14.136  0.00  0.00    +0.059 C 
ENDROOT
BRANCH   3   6
ATOM      6  O   UNL     1      30.208 -23.894 -16.248  0.00  0.00    -0.384 OA
ATOM      7  H   UNL     1      29.487 -24.319 -15.758  0.00  0.00    +0.210 HD
ENDBRANCH   3   6
BRANCH   4   8
ATOM      8  O   UNL     1      30.791 -24.602 -12.793  0.00  0.00    -0.384 OA
ATOM      9  H   UNL     1      29.998 -24.892 -13.270  0.00  0.00    +0.210 HD
ENDBRANCH   4   8
BRANCH   2  10
ATOM     10  C   UNL     1      33.726 -23.314 -13.607  0.00  0.00    -0.023 C 
ATOM     11  C   UNL     1      34.032 -23.758 -12.379  0.00  0.00    +0.038 C 
BRANCH  11  14
ATOM     12  F   UNL     1      35.128 -23.071 -10.428  0.00  0.00    -0.196 F 
ATOM     13  F   UNL     1      36.072 -22.552 -12.316  0.00  0.00    -0.196 F 
ATOM     14  C   UNL     1      35.344 -23.520 -11.695  0.00  0.00    +0.322 C 
BRANCH  14  15
ATOM     15  C   UNL     1      36.180 -24.788 -11.625  0.00  0.00    +0.276 C 
BRANCH  15  16
ATOM     16  O   UNL     1      36.316 -25.320 -12.939  0.00  0.00    -0.469 OA
BRANCH  16  17
ATOM     17  C   UNL     1      37.484 -25.043 -13.597  0.00  0.00    +0.139 C 
ATOM     18  C   UNL     1      38.655 -25.721 -13.256  0.00  0.00    +0.037 C 
ATOM     19  C   UNL     1      37.504 -24.083 -14.609  0.00  0.00    +0.037 C 
ATOM     20  C   UNL     1      39.845 -25.438 -13.927  0.00  0.00    +0.003 C 
ATOM     21  C   UNL     1      38.694 -23.801 -15.280  0.00  0.00    +0.003 C 
ATOM     22  C   UNL     1      39.864 -24.478 -14.938  0.00  0.00    +0.000 C 
ENDBRANCH  16  17
ENDBRANCH  15  16
ENDBRANCH  14  15
ENDBRANCH  11  14
ENDBRANCH   2  10
BRANCH   1  23
ATOM     23  C   UNL     1      32.882 -22.902 -16.700  0.00  0.00    +0.028 C 
BRANCH  23  24
ATOM     24  C   UNL     1      32.394 -22.075 -17.851  0.00  0.00    -0.031 C 
ATOM     25  C   UNL     1      33.204 -21.464 -18.730  0.00  0.00    -0.031 C 
BRANCH  25  26
ATOM     26  C   UNL     1      34.702 -21.537 -18.666  0.00  0.00    +0.026 C 
BRANCH  26  27
ATOM     27  C   UNL     1      35.392 -20.726 -19.771  0.00  0.00    +0.016 C 
BRANCH  27  28
ATOM     28  C   UNL     1      34.453 -19.834 -20.585  0.00  0.00    +0.110 C 
BRANCH  28  30
ATOM     29  O   UNL     1      36.160 -18.112 -20.537  0.00  0.00    -0.250 OA
ATOM     30  C   UNL     1      35.081 -18.511 -20.956  0.00  0.00    +0.317 C 
BRANCH  30  31
ATOM     31  O   UNL     1      34.277 -17.860 -21.846  0.00  0.00    -0.452 OA
BRANCH  31  32
ATOM     32  C   UNL     1      34.771 -16.602 -22.319  0.00  0.00    +0.169 C 
ATOM     33  C   UNL     1      34.351 -16.413 -23.769  0.00  0.00    +0.047 C 
ATOM     34  C   UNL     1      34.244 -15.490 -21.426  0.00  0.00    +0.047 C 
ENDBRANCH  31  32
ENDBRANCH  30  31
ENDBRANCH  28  30
ENDBRANCH  27  28
ENDBRANCH  26  27
ENDBRANCH  25  26
ENDBRANCH  23  24
ENDBRANCH   1  23
TORSDOF 15
ENDMDL
MODEL 9
REMARK VINA RESULT:      -9.3      4.040     10.914
REMARK  Name = 9868491
REMARK  15 active torsions:
REMARK  status: ('A' for Active; 'I' for Inactive)
REMARK    1  A    between atoms: C_1  and  C_23
REMARK    2  A    between atoms: C_2  and  C_10
REMARK    3  A    between atoms: C_3  and  O_6
REMARK    4  A    between atoms: C_4  and  O_8
REMARK    5  A    between atoms: C_11  and  C_14
REMARK    6  A    between atoms: C_14  and  C_15
REMARK    7  A    between atoms: C_15  and  O_16
REMARK    8  A    between atoms: O_16  and  C_17
REMARK    9  A    between atoms: C_23  and  C_24
REMARK   10  A    between atoms: C_25  and  C_26
REMARK   11  A    between atoms: C_26  and  C_27
REMARK   12  A    between atoms: C_27  and  C_28
REMARK   13  A    between atoms: C_28  and  C_30
REMARK   14  A    between atoms: C_30  and  O_31
REMARK   15  A    between atoms: O_31  and  C_32
REMARK                            x       y       z     vdW  Elec       q    Type
REMARK                         _______ _______ _______ _____ _____    ______ ____
ROOT
ATOM      1  C   UNL     1      34.409 -19.117 -20.725  0.00  0.00    +0.038 C 
ATOM      2  C   UNL     1      35.146 -18.627 -21.982  0.00  0.00    +0.051 C 
ATOM      3  C   UNL     1      35.547 -19.708 -19.888  0.00  0.00    +0.114 C 
ATOM      4  C   UNL     1      36.468 -18.060 -21.436  0.00  0.00    +0.117 C 
ATOM      5  C   UNL     1      36.674 -18.689 -20.049  0.00  0.00    +0.059 C 
ENDROOT
BRANCH   3   6
ATOM      6  O   UNL     1      35.965 -20.983 -20.361  0.00  0.00    -0.384 OA
ATOM      7  H   UNL     1      35.218 -21.600 -20.332  0.00  0.00    +0.210 HD
ENDBRANCH   3   6
BRANCH   4   8
ATOM      8  O   UNL     1      37.547 -18.423 -22.290  0.00  0.00    -0.384 OA
ATOM      9  H   UNL     1      37.690 -17.723 -22.945  0.00  0.00    +0.210 HD
ENDBRANCH   4   8
BRANCH   2  10
ATOM     10  C   UNL     1      34.378 -17.611 -22.768  0.00  0.00    -0.023 C 
ATOM     11  C   UNL     1      34.775 -16.341 -22.934  0.00  0.00    +0.038 C 
BRANCH  11  14
ATOM     12  F   UNL     1      32.801 -15.811 -24.076  0.00  0.00    -0.196 F 
ATOM     13  F   UNL     1      34.647 -14.980 -24.871  0.00  0.00    -0.196 F 
ATOM     14  C   UNL     1      34.014 -15.310 -23.712  0.00  0.00    +0.322 C 
BRANCH  14  15
ATOM     15  C   UNL     1      33.794 -14.043 -22.900  0.00  0.00    +0.276 C 
BRANCH  15  16
ATOM     16  O   UNL     1      32.762 -13.279 -23.514  0.00  0.00    -0.469 OA
BRANCH  16  17
ATOM     17  C   UNL     1      32.291 -12.203 -22.811  0.00  0.00    +0.139 C 
ATOM     18  C   UNL     1      32.415 -10.917 -23.338  0.00  0.00    +0.037 C 
ATOM     19  C   UNL     1      31.689 -12.392 -21.567  0.00  0.00    +0.037 C 
ATOM     20  C   UNL     1      31.935  -9.820 -22.620  0.00  0.00    +0.003 C 
ATOM     21  C   UNL     1      31.209 -11.296 -20.850  0.00  0.00    +0.003 C 
ATOM     22  C   UNL     1      31.333 -10.010 -21.377  0.00  0.00    +0.000 C 
ENDBRANCH  16  17
ENDBRANCH  15  16
ENDBRANCH  14  15
ENDBRANCH  11  14
ENDBRANCH   2  10
BRANCH   1  23
ATOM     23  C   UNL     1      33.295 -20.107 -21.023  0.00  0.00    +0.028 C 
BRANCH  23  24
ATOM     24  C   UNL     1      32.278 -20.130 -19.921  0.00  0.00    -0.031 C 
ATOM     25  C   UNL     1      32.230 -21.073 -18.968  0.00  0.00    -0.031 C 
BRANCH  25  26
ATOM     26  C   UNL     1      33.192 -22.223 -18.888  0.00  0.00    +0.026 C 
BRANCH  26  27
ATOM     27  C   UNL     1      34.012 -22.233 -17.592  0.00  0.00    +0.016 C 
BRANCH  27  28
ATOM     28  C   UNL     1      33.254 -22.743 -16.364  0.00  0.00    +0.110 C 
BRANCH  28  30
ATOM     29  O   UNL     1      33.836 -23.436 -14.115  0.00  0.00    -0.250 OA
ATOM     30  C   UNL     1      34.175 -23.242 -15.275  0.00  0.00    +0.317 C 
BRANCH  30  31
ATOM     31  O   UNL     1      35.415 -23.470 -15.796  0.00  0.00    -0.452 OA
BRANCH  31  32
ATOM     32  C   UNL     1      36.506 -22.906 -15.061  0.00  0.00    +0.169 C 
ATOM     33  C   UNL     1      37.384 -24.029 -14.530  0.00  0.00    +0.047 C 
ATOM     34  C   UNL     1      37.282 -21.959 -15.964  0.00  0.00    +0.047 C 
ENDBRANCH  31  32
ENDBRANCH  30  31
ENDBRANCH  28  30
ENDBRANCH  27  28
ENDBRANCH  26  27
ENDBRANCH  25  26
ENDBRANCH  23  24
ENDBRANCH   1  23
TORSDOF 15
ENDMDL
