MODEL 1
REMARK VINA RESULT:     -12.5      0.000      0.000
REMARK  Name = 16659285
REMARK  3 active torsions:
REMARK  status: ('A' for Active; 'I' for Inactive)
REMARK    1  A    between atoms: C_3  and  C_14
REMARK    2  A    between atoms: C_9  and  C_30
REMARK    3  A    between atoms: C_20  and  C_24
REMARK                            x       y       z     vdW  Elec       q    Type
REMARK                         _______ _______ _______ _____ _____    ______ ____
ROOT
ATOM      1  N   UNL     1      34.021 -15.405 -21.122  0.00  0.00    -0.315 N 
ATOM      2  N   UNL     1      34.191 -16.156 -23.207  0.00  0.00    -0.315 N 
ATOM      3  C   UNL     1      32.747 -12.296 -22.711  0.00  0.00    +0.001 C 
ATOM      4  C   UNL     1      33.583 -14.377 -21.918  0.00  0.00    +0.059 C 
ATOM      5  C   UNL     1      33.700 -14.871 -23.215  0.00  0.00    +0.059 C 
ATOM      6  C   UNL     1      33.112 -13.097 -21.624  0.00  0.00    +0.016 C 
ATOM      7  C   UNL     1      32.852 -12.763 -24.024  0.00  0.00    +0.001 C 
ATOM      8  C   UNL     1      33.328 -14.052 -24.295  0.00  0.00    +0.016 C 
ATOM      9  C   UNL     1      34.371 -16.444 -21.938  0.00  0.00    +0.168 C 
ATOM     10  H   UNL     1      34.071 -15.396 -20.139  0.00  0.00    +0.149 HD
ATOM     11  H   UNL     1      34.369 -16.734 -23.983  0.00  0.00    +0.149 HD
ENDROOT
BRANCH   3  14
ATOM     12  N   UNL     1      32.452  -7.398 -23.515  0.00  0.00    -0.315 N 
ATOM     13  N   UNL     1      30.939  -7.058 -21.924  0.00  0.00    -0.315 N 
ATOM     14  C   UNL     1      32.249 -10.958 -22.469  0.00  0.00    +0.001 C 
ATOM     15  C   UNL     1      32.213  -8.633 -22.967  0.00  0.00    +0.059 C 
ATOM     16  C   UNL     1      31.266  -8.393 -21.976  0.00  0.00    +0.059 C 
ATOM     17  C   UNL     1      32.729  -9.899 -23.245  0.00  0.00    +0.016 C 
ATOM     18  C   UNL     1      31.298 -10.750 -21.466  0.00  0.00    +0.001 C 
ATOM     19  C   UNL     1      30.794  -9.469 -21.206  0.00  0.00    +0.016 C 
ATOM     20  C   UNL     1      31.668  -6.492 -22.859  0.00  0.00    +0.168 C 
ATOM     21  H   UNL     1      33.076  -7.201 -24.251  0.00  0.00    +0.149 HD
ATOM     22  H   UNL     1      30.299  -6.621 -21.317  0.00  0.00    +0.149 HD
BRANCH  20  24
ATOM     23  N   UNL     1      31.689  -2.371 -23.852  0.00  0.00    -0.242 NA
ATOM     24  C   UNL     1      31.677  -5.088 -23.195  0.00  0.00    +0.017 C 
ATOM     25  C   UNL     1      32.454  -4.629 -24.252  0.00  0.00    +0.020 C 
ATOM     26  C   UNL     1      30.905  -4.190 -22.466  0.00  0.00    +0.020 C 
ATOM     27  C   UNL     1      32.426  -3.274 -24.537  0.00  0.00    +0.099 C 
ATOM     28  C   UNL     1      30.946  -2.855 -22.831  0.00  0.00    +0.099 C 
ENDBRANCH  20  24
ENDBRANCH   3  14
BRANCH   9  30
ATOM     29  N   UNL     1      35.849 -20.103 -20.391  0.00  0.00    -0.242 NA
ATOM     30  C   UNL     1      34.875 -17.691 -21.413  0.00  0.00    +0.017 C 
ATOM     31  C   UNL     1      36.244 -17.912 -21.333  0.00  0.00    +0.020 C 
ATOM     32  C   UNL     1      33.990 -18.675 -20.982  0.00  0.00    +0.020 C 
ATOM     33  C   UNL     1      36.677 -19.123 -20.818  0.00  0.00    +0.099 C 
ATOM     34  C   UNL     1      34.524 -19.852 -20.484  0.00  0.00    +0.099 C 
ENDBRANCH   9  30
TORSDOF 3
ENDMDL
MODEL 2
REMARK VINA RESULT:     -12.5      0.045     11.411
REMARK  Name = 16659285
REMARK  3 active torsions:
REMARK  status: ('A' for Active; 'I' for Inactive)
REMARK    1  A    between atoms: C_3  and  C_14
REMARK    2  A    between atoms: C_9  and  C_30
REMARK    3  A    between atoms: C_20  and  C_24
REMARK                            x       y       z     vdW  Elec       q    Type
REMARK                         _______ _______ _______ _____ _____    ______ ____
ROOT
ATOM      1  N   UNL     1      32.427  -7.421 -23.507  0.00  0.00    -0.315 N 
ATOM      2  N   UNL     1      30.915  -7.091 -21.912  0.00  0.00    -0.315 N 
ATOM      3  C   UNL     1      32.253 -10.982 -22.457  0.00  0.00    +0.001 C 
ATOM      4  C   UNL     1      32.198  -8.657 -22.957  0.00  0.00    +0.059 C 
ATOM      5  C   UNL     1      31.251  -8.424 -21.964  0.00  0.00    +0.059 C 
ATOM      6  C   UNL     1      32.724  -9.920 -23.235  0.00  0.00    +0.016 C 
ATOM      7  C   UNL     1      31.303 -10.780 -21.452  0.00  0.00    +0.001 C 
ATOM      8  C   UNL     1      30.789  -9.503 -21.191  0.00  0.00    +0.016 C 
ATOM      9  C   UNL     1      31.637  -6.520 -22.849  0.00  0.00    +0.168 C 
ATOM     10  H   UNL     1      33.048  -7.220 -24.244  0.00  0.00    +0.149 HD
ATOM     11  H   UNL     1      30.273  -6.658 -21.304  0.00  0.00    +0.149 HD
ENDROOT
BRANCH   3  14
ATOM     12  N   UNL     1      34.018 -15.431 -21.107  0.00  0.00    -0.315 N 
ATOM     13  N   UNL     1      34.229 -16.167 -23.194  0.00  0.00    -0.315 N 
ATOM     14  C   UNL     1      32.761 -12.316 -22.699  0.00  0.00    +0.001 C 
ATOM     15  C   UNL     1      33.591 -14.399 -21.905  0.00  0.00    +0.059 C 
ATOM     16  C   UNL     1      33.734 -14.883 -23.202  0.00  0.00    +0.059 C 
ATOM     17  C   UNL     1      33.109 -13.123 -21.611  0.00  0.00    +0.016 C 
ATOM     18  C   UNL     1      32.893 -12.773 -24.012  0.00  0.00    +0.001 C 
ATOM     19  C   UNL     1      33.379 -14.058 -24.282  0.00  0.00    +0.016 C 
ATOM     20  C   UNL     1      34.388 -16.463 -21.924  0.00  0.00    +0.168 C 
ATOM     21  H   UNL     1      34.050 -15.428 -20.123  0.00  0.00    +0.149 HD
ATOM     22  H   UNL     1      34.424 -16.738 -23.971  0.00  0.00    +0.149 HD
BRANCH  20  24
ATOM     23  N   UNL     1      35.851 -20.126 -20.374  0.00  0.00    -0.242 NA
ATOM     24  C   UNL     1      34.886 -17.711 -21.398  0.00  0.00    +0.017 C 
ATOM     25  C   UNL     1      36.254 -17.943 -21.331  0.00  0.00    +0.020 C 
ATOM     26  C   UNL     1      33.998 -18.686 -20.954  0.00  0.00    +0.020 C 
ATOM     27  C   UNL     1      36.683 -19.156 -20.815  0.00  0.00    +0.099 C 
ATOM     28  C   UNL     1      34.527 -19.865 -20.455  0.00  0.00    +0.099 C 
ENDBRANCH  20  24
ENDBRANCH   3  14
BRANCH   9  30
ATOM     29  N   UNL     1      31.624  -2.401 -23.846  0.00  0.00    -0.242 NA
ATOM     30  C   UNL     1      31.635  -5.117 -23.187  0.00  0.00    +0.017 C 
ATOM     31  C   UNL     1      32.368  -4.660 -24.275  0.00  0.00    +0.020 C 
ATOM     32  C   UNL     1      30.895  -4.217 -22.427  0.00  0.00    +0.020 C 
ATOM     33  C   UNL     1      32.330  -3.305 -24.561  0.00  0.00    +0.099 C 
ATOM     34  C   UNL     1      30.923  -2.882 -22.795  0.00  0.00    +0.099 C 
ENDBRANCH   9  30
TORSDOF 3
ENDMDL
MODEL 3
REMARK VINA RESULT:     -11.2      5.354     10.421
REMARK  Name = 16659285
REMARK  3 active torsions:
REMARK  status: ('A' for Active; 'I' for Inactive)
REMARK    1  A    between atoms: C_3  and  C_14
REMARK    2  A    between atoms: C_9  and  C_30
REMARK    3  A    between atoms: C_20  and  C_24
REMARK                            x       y       z     vdW  Elec       q    Type
REMARK                         _______ _______ _______ _____ _____    ______ ____
ROOT
ATOM      1  N   UNL     1      36.102 -22.672 -15.621  0.00  0.00    -0.315 N 
ATOM      2  N   UNL     1      34.214 -23.843 -15.699  0.00  0.00    -0.315 N 
ATOM      3  C   UNL     1      34.815 -21.043 -18.704  0.00  0.00    +0.001 C 
ATOM      4  C   UNL     1      35.434 -22.218 -16.730  0.00  0.00    +0.059 C 
ATOM      5  C   UNL     1      34.260 -22.965 -16.757  0.00  0.00    +0.059 C 
ATOM      6  C   UNL     1      35.749 -21.249 -17.684  0.00  0.00    +0.016 C 
ATOM      7  C   UNL     1      33.627 -21.777 -18.758  0.00  0.00    +0.001 C 
ATOM      8  C   UNL     1      33.332 -22.745 -17.790  0.00  0.00    +0.016 C 
ATOM      9  C   UNL     1      35.332 -23.641 -15.040  0.00  0.00    +0.168 C 
ATOM     10  H   UNL     1      36.977 -22.356 -15.301  0.00  0.00    +0.149 HD
ATOM     11  H   UNL     1      33.499 -24.484 -15.484  0.00  0.00    +0.149 HD
ENDROOT
BRANCH   3  14
ATOM     12  N   UNL     1      33.662 -17.225 -21.674  0.00  0.00    -0.315 N 
ATOM     13  N   UNL     1      35.673 -17.133 -22.616  0.00  0.00    -0.315 N 
ATOM     14  C   UNL     1      35.085 -20.049 -19.722  0.00  0.00    +0.001 C 
ATOM     15  C   UNL     1      34.391 -18.223 -21.079  0.00  0.00    +0.059 C 
ATOM     16  C   UNL     1      35.642 -18.146 -21.685  0.00  0.00    +0.059 C 
ATOM     17  C   UNL     1      34.073 -19.160 -20.095  0.00  0.00    +0.016 C 
ATOM     18  C   UNL     1      36.351 -19.996 -20.311  0.00  0.00    +0.001 C 
ATOM     19  C   UNL     1      36.647 -19.048 -21.298  0.00  0.00    +0.016 C 
ATOM     20  C   UNL     1      34.471 -16.603 -22.583  0.00  0.00    +0.168 C 
ATOM     21  H   UNL     1      32.724 -16.998 -21.479  0.00  0.00    +0.149 HD
ATOM     22  H   UNL     1      36.430 -16.865 -23.185  0.00  0.00    +0.149 HD
BRANCH  20  24
ATOM     23  N   UNL     1      33.105 -13.357 -24.940  0.00  0.00    -0.242 NA
ATOM     24  C   UNL     1      34.008 -15.497 -23.387  0.00  0.00    +0.017 C 
ATOM     25  C   UNL     1      33.637 -15.703 -24.710  0.00  0.00    +0.020 C 
ATOM     26  C   UNL     1      33.927 -14.222 -22.838  0.00  0.00    +0.020 C 
ATOM     27  C   UNL     1      33.196 -14.610 -25.438  0.00  0.00    +0.099 C 
ATOM     28  C   UNL     1      33.474 -13.195 -23.649  0.00  0.00    +0.099 C 
ENDBRANCH  20  24
ENDBRANCH   3  14
BRANCH   9  30
ATOM     29  N   UNL     1      36.557 -25.656 -11.518  0.00  0.00    -0.242 NA
ATOM     30  C   UNL     1      35.747 -24.329 -13.841  0.00  0.00    +0.017 C 
ATOM     31  C   UNL     1      36.546 -25.462 -13.927  0.00  0.00    +0.020 C 
ATOM     32  C   UNL     1      35.353 -23.857 -12.593  0.00  0.00    +0.020 C 
ATOM     33  C   UNL     1      36.921 -26.085 -12.747  0.00  0.00    +0.099 C 
ATOM     34  C   UNL     1      35.781 -24.550 -11.473  0.00  0.00    +0.099 C 
ENDBRANCH   9  30
TORSDOF 3
ENDMDL
MODEL 4
REMARK VINA RESULT:     -11.2      5.350     14.342
REMARK  Name = 16659285
REMARK  3 active torsions:
REMARK  status: ('A' for Active; 'I' for Inactive)
REMARK    1  A    between atoms: C_3  and  C_14
REMARK    2  A    between atoms: C_9  and  C_30
REMARK    3  A    between atoms: C_20  and  C_24
REMARK                            x       y       z     vdW  Elec       q    Type
REMARK                         _______ _______ _______ _____ _____    ______ ____
ROOT
ATOM      1  N   UNL     1      33.635 -17.224 -21.711  0.00  0.00    -0.315 N 
ATOM      2  N   UNL     1      35.656 -17.098 -22.626  0.00  0.00    -0.315 N 
ATOM      3  C   UNL     1      35.080 -20.023 -19.738  0.00  0.00    +0.001 C 
ATOM      4  C   UNL     1      34.373 -18.209 -21.106  0.00  0.00    +0.059 C 
ATOM      5  C   UNL     1      35.631 -18.111 -21.695  0.00  0.00    +0.059 C 
ATOM      6  C   UNL     1      34.058 -19.151 -20.125  0.00  0.00    +0.016 C 
ATOM      7  C   UNL     1      36.352 -19.948 -20.311  0.00  0.00    +0.001 C 
ATOM      8  C   UNL     1      36.646 -18.995 -21.293  0.00  0.00    +0.016 C 
ATOM      9  C   UNL     1      34.445 -16.589 -22.610  0.00  0.00    +0.168 C 
ATOM     10  H   UNL     1      32.691 -17.012 -21.528  0.00  0.00    +0.149 HD
ATOM     11  H   UNL     1      36.417 -16.817 -23.184  0.00  0.00    +0.149 HD
ENDROOT
BRANCH   3  14
ATOM     12  N   UNL     1      36.102 -22.649 -15.640  0.00  0.00    -0.315 N 
ATOM     13  N   UNL     1      34.222 -23.831 -15.726  0.00  0.00    -0.315 N 
ATOM     14  C   UNL     1      34.813 -21.021 -18.723  0.00  0.00    +0.001 C 
ATOM     15  C   UNL     1      35.435 -22.196 -16.751  0.00  0.00    +0.059 C 
ATOM     16  C   UNL     1      34.265 -22.951 -16.783  0.00  0.00    +0.059 C 
ATOM     17  C   UNL     1      35.746 -21.223 -17.701  0.00  0.00    +0.016 C 
ATOM     18  C   UNL     1      33.630 -21.762 -18.782  0.00  0.00    +0.001 C 
ATOM     19  C   UNL     1      33.340 -22.734 -17.817  0.00  0.00    +0.016 C 
ATOM     20  C   UNL     1      35.337 -23.624 -15.064  0.00  0.00    +0.168 C 
ATOM     21  H   UNL     1      36.975 -22.328 -15.317  0.00  0.00    +0.149 HD
ATOM     22  H   UNL     1      33.511 -24.478 -15.514  0.00  0.00    +0.149 HD
BRANCH  20  24
ATOM     23  N   UNL     1      36.565 -25.639 -11.543  0.00  0.00    -0.242 NA
ATOM     24  C   UNL     1      35.753 -24.312 -13.865  0.00  0.00    +0.017 C 
ATOM     25  C   UNL     1      36.543 -25.451 -13.953  0.00  0.00    +0.020 C 
ATOM     26  C   UNL     1      35.368 -23.834 -12.616  0.00  0.00    +0.020 C 
ATOM     27  C   UNL     1      36.919 -26.073 -12.773  0.00  0.00    +0.099 C 
ATOM     28  C   UNL     1      35.797 -24.528 -11.497  0.00  0.00    +0.099 C 
ENDBRANCH  20  24
ENDBRANCH   3  14
BRANCH   9  30
ATOM     29  N   UNL     1      33.056 -13.367 -24.986  0.00  0.00    -0.242 NA
ATOM     30  C   UNL     1      33.974 -15.491 -23.420  0.00  0.00    +0.017 C 
ATOM     31  C   UNL     1      33.651 -15.698 -24.755  0.00  0.00    +0.020 C 
ATOM     32  C   UNL     1      33.838 -14.223 -22.865  0.00  0.00    +0.020 C 
ATOM     33  C   UNL     1      33.200 -14.613 -25.489  0.00  0.00    +0.099 C 
ATOM     34  C   UNL     1      33.379 -13.204 -23.684  0.00  0.00    +0.099 C 
ENDBRANCH   9  30
TORSDOF 3
ENDMDL
MODEL 5
REMARK VINA RESULT:     -11.0      1.143      1.732
REMARK  Name = 16659285
REMARK  3 active torsions:
REMARK  status: ('A' for Active; 'I' for Inactive)
REMARK    1  A    between atoms: C_3  and  C_14
REMARK    2  A    between atoms: C_9  and  C_30
REMARK    3  A    between atoms: C_20  and  C_24
REMARK                            x       y       z     vdW  Elec       q    Type
REMARK                         _______ _______ _______ _____ _____    ______ ____
ROOT
ATOM      1  N   UNL     1      34.452 -15.205 -21.701  0.00  0.00    -0.315 N 
ATOM      2  N   UNL     1      33.675 -16.281 -23.484  0.00  0.00    -0.315 N 
ATOM      3  C   UNL     1      33.440 -12.137 -23.539  0.00  0.00    +0.001 C 
ATOM      4  C   UNL     1      34.004 -14.227 -22.553  0.00  0.00    +0.059 C 
ATOM      5  C   UNL     1      33.525 -14.925 -23.658  0.00  0.00    +0.059 C 
ATOM      6  C   UNL     1      33.980 -12.835 -22.454  0.00  0.00    +0.016 C 
ATOM      7  C   UNL     1      32.951 -12.809 -24.663  0.00  0.00    +0.001 C 
ATOM      8  C   UNL     1      32.985 -14.207 -24.739  0.00  0.00    +0.016 C 
ATOM      9  C   UNL     1      34.233 -16.413 -22.302  0.00  0.00    +0.168 C 
ATOM     10  H   UNL     1      34.857 -15.061 -20.815  0.00  0.00    +0.149 HD
ATOM     11  H   UNL     1      33.420 -16.997 -24.109  0.00  0.00    +0.149 HD
ENDROOT
BRANCH   3  14
ATOM     12  N   UNL     1      31.280  -7.746 -22.655  0.00  0.00    -0.315 N 
ATOM     13  N   UNL     1      33.047  -6.559 -23.294  0.00  0.00    -0.315 N 
ATOM     14  C   UNL     1      33.386 -10.691 -23.495  0.00  0.00    +0.001 C 
ATOM     15  C   UNL     1      32.227  -8.668 -23.024  0.00  0.00    +0.059 C 
ATOM     16  C   UNL     1      33.319  -7.902 -23.420  0.00  0.00    +0.059 C 
ATOM     17  C   UNL     1      32.220 -10.063 -23.047  0.00  0.00    +0.016 C 
ATOM     18  C   UNL     1      34.499  -9.949 -23.899  0.00  0.00    +0.001 C 
ATOM     19  C   UNL     1      34.483  -8.550 -23.867  0.00  0.00    +0.016 C 
ATOM     20  C   UNL     1      31.818  -6.502 -22.834  0.00  0.00    +0.168 C 
ATOM     21  H   UNL     1      30.376  -7.946 -22.320  0.00  0.00    +0.149 HD
ATOM     22  H   UNL     1      33.643  -5.805 -23.505  0.00  0.00    +0.149 HD
BRANCH  20  24
ATOM     23  N   UNL     1      29.639  -2.975 -21.958  0.00  0.00    -0.242 NA
ATOM     24  C   UNL     1      31.077  -5.300 -22.534  0.00  0.00    +0.017 C 
ATOM     25  C   UNL     1      31.124  -4.218 -23.404  0.00  0.00    +0.020 C 
ATOM     26  C   UNL     1      30.312  -5.222 -21.376  0.00  0.00    +0.020 C 
ATOM     27  C   UNL     1      30.393  -3.088 -23.074  0.00  0.00    +0.099 C 
ATOM     28  C   UNL     1      29.617  -4.048 -21.136  0.00  0.00    +0.099 C 
ENDBRANCH  20  24
ENDBRANCH   3  14
BRANCH   9  30
ATOM     29  N   UNL     1      35.282 -20.066 -20.427  0.00  0.00    -0.242 NA
ATOM     30  C   UNL     1      34.591 -17.658 -21.666  0.00  0.00    +0.017 C 
ATOM     31  C   UNL     1      35.909 -17.902 -21.302  0.00  0.00    +0.020 C 
ATOM     32  C   UNL     1      33.616 -18.617 -21.410  0.00  0.00    +0.020 C 
ATOM     33  C   UNL     1      36.201 -19.111 -20.691  0.00  0.00    +0.099 C 
ATOM     34  C   UNL     1      34.010 -19.794 -20.794  0.00  0.00    +0.099 C 
ENDBRANCH   9  30
TORSDOF 3
ENDMDL
MODEL 6
REMARK VINA RESULT:     -11.0      4.587      9.253
REMARK  Name = 16659285
REMARK  3 active torsions:
REMARK  status: ('A' for Active; 'I' for Inactive)
REMARK    1  A    between atoms: C_3  and  C_14
REMARK    2  A    between atoms: C_9  and  C_30
REMARK    3  A    between atoms: C_20  and  C_24
REMARK                            x       y       z     vdW  Elec       q    Type
REMARK                         _______ _______ _______ _____ _____    ______ ____
ROOT
ATOM      1  N   UNL     1      36.837 -21.547 -16.903  0.00  0.00    -0.315 N 
ATOM      2  N   UNL     1      35.096 -22.836 -16.407  0.00  0.00    -0.315 N 
ATOM      3  C   UNL     1      34.697 -20.317 -19.681  0.00  0.00    +0.001 C 
ATOM      4  C   UNL     1      35.881 -21.249 -17.840  0.00  0.00    +0.059 C 
ATOM      5  C   UNL     1      34.805 -22.067 -17.510  0.00  0.00    +0.059 C 
ATOM      6  C   UNL     1      35.868 -20.361 -18.917  0.00  0.00    +0.016 C 
ATOM      7  C   UNL     1      33.600 -21.125 -19.375  0.00  0.00    +0.001 C 
ATOM      8  C   UNL     1      33.636 -22.009 -18.289  0.00  0.00    +0.016 C 
ATOM      9  C   UNL     1      36.320 -22.500 -16.070  0.00  0.00    +0.168 C 
ATOM     10  H   UNL     1      37.734 -21.146 -16.841  0.00  0.00    +0.149 HD
ATOM     11  H   UNL     1      34.513 -23.497 -15.967  0.00  0.00    +0.149 HD
ENDROOT
BRANCH   3  14
ATOM     12  N   UNL     1      33.794 -15.958 -21.898  0.00  0.00    -0.315 N 
ATOM     13  N   UNL     1      34.350 -16.682 -23.924  0.00  0.00    -0.315 N 
ATOM     14  C   UNL     1      34.623 -19.414 -20.811  0.00  0.00    +0.001 C 
ATOM     15  C   UNL     1      34.152 -17.271 -21.732  0.00  0.00    +0.059 C 
ATOM     16  C   UNL     1      34.494 -17.701 -23.011  0.00  0.00    +0.059 C 
ATOM     17  C   UNL     1      34.203 -18.096 -20.607  0.00  0.00    +0.016 C 
ATOM     18  C   UNL     1      34.973 -19.874 -22.083  0.00  0.00    +0.001 C 
ATOM     19  C   UNL     1      34.914 -19.028 -23.197  0.00  0.00    +0.016 C 
ATOM     20  C   UNL     1      33.929 -15.653 -23.223  0.00  0.00    +0.168 C 
ATOM     21  H   UNL     1      33.495 -15.344 -21.188  0.00  0.00    +0.149 HD
ATOM     22  H   UNL     1      34.523 -16.716 -24.892  0.00  0.00    +0.149 HD
BRANCH  20  24
ATOM     23  N   UNL     1      33.052 -11.793 -24.736  0.00  0.00    -0.242 NA
ATOM     24  C   UNL     1      33.633 -14.338 -23.739  0.00  0.00    +0.017 C 
ATOM     25  C   UNL     1      33.197 -14.185 -25.049  0.00  0.00    +0.020 C 
ATOM     26  C   UNL     1      33.779 -13.220 -22.925  0.00  0.00    +0.020 C 
ATOM     27  C   UNL     1      32.922 -12.902 -25.496  0.00  0.00    +0.099 C 
ATOM     28  C   UNL     1      33.478 -11.981 -23.466  0.00  0.00    +0.099 C 
ENDBRANCH  20  24
ENDBRANCH   3  14
BRANCH   9  30
ATOM     29  N   UNL     1      38.531 -24.084 -12.820  0.00  0.00    -0.242 NA
ATOM     30  C   UNL     1      37.074 -23.037 -14.963  0.00  0.00    +0.017 C 
ATOM     31  C   UNL     1      36.656 -22.809 -13.658  0.00  0.00    +0.020 C 
ATOM     32  C   UNL     1      38.220 -23.790 -15.199  0.00  0.00    +0.020 C 
ATOM     33  C   UNL     1      37.413 -23.349 -12.630  0.00  0.00    +0.099 C 
ATOM     34  C   UNL     1      38.906 -24.286 -14.103  0.00  0.00    +0.099 C 
ENDBRANCH   9  30
TORSDOF 3
ENDMDL
MODEL 7
REMARK VINA RESULT:     -11.0      4.586     13.588
REMARK  Name = 16659285
REMARK  3 active torsions:
REMARK  status: ('A' for Active; 'I' for Inactive)
REMARK    1  A    between atoms: C_3  and  C_14
REMARK    2  A    between atoms: C_9  and  C_30
REMARK    3  A    between atoms: C_20  and  C_24
REMARK                            x       y       z     vdW  Elec       q    Type
REMARK                         _______ _______ _______ _____ _____    ______ ____
ROOT
ATOM      1  N   UNL     1      33.819 -15.954 -21.917  0.00  0.00    -0.315 N 
ATOM      2  N   UNL     1      34.374 -16.678 -23.943  0.00  0.00    -0.315 N 
ATOM      3  C   UNL     1      34.653 -19.409 -20.830  0.00  0.00    +0.001 C 
ATOM      4  C   UNL     1      34.179 -17.267 -21.751  0.00  0.00    +0.059 C 
ATOM      5  C   UNL     1      34.520 -17.697 -23.030  0.00  0.00    +0.059 C 
ATOM      6  C   UNL     1      34.232 -18.092 -20.625  0.00  0.00    +0.016 C 
ATOM      7  C   UNL     1      35.003 -19.869 -22.102  0.00  0.00    +0.001 C 
ATOM      8  C   UNL     1      34.942 -19.024 -23.217  0.00  0.00    +0.016 C 
ATOM      9  C   UNL     1      33.953 -15.650 -23.242  0.00  0.00    +0.168 C 
ATOM     10  H   UNL     1      33.519 -15.341 -21.207  0.00  0.00    +0.149 HD
ATOM     11  H   UNL     1      34.547 -16.712 -24.911  0.00  0.00    +0.149 HD
ENDROOT
BRANCH   3  14
ATOM     12  N   UNL     1      36.881 -21.556 -16.937  0.00  0.00    -0.315 N 
ATOM     13  N   UNL     1      35.135 -22.831 -16.427  0.00  0.00    -0.315 N 
ATOM     14  C   UNL     1      34.730 -20.311 -19.700  0.00  0.00    +0.001 C 
ATOM     15  C   UNL     1      35.921 -21.251 -17.867  0.00  0.00    +0.059 C 
ATOM     16  C   UNL     1      34.841 -22.061 -17.528  0.00  0.00    +0.059 C 
ATOM     17  C   UNL     1      35.906 -20.364 -18.945  0.00  0.00    +0.016 C 
ATOM     18  C   UNL     1      33.629 -21.112 -19.384  0.00  0.00    +0.001 C 
ATOM     19  C   UNL     1      33.668 -21.995 -18.298  0.00  0.00    +0.016 C 
ATOM     20  C   UNL     1      36.364 -22.504 -16.099  0.00  0.00    +0.168 C 
ATOM     21  H   UNL     1      37.782 -21.161 -16.882  0.00  0.00    +0.149 HD
ATOM     22  H   UNL     1      34.551 -23.487 -15.982  0.00  0.00    +0.149 HD
BRANCH  20  24
ATOM     23  N   UNL     1      38.588 -24.102 -12.865  0.00  0.00    -0.242 NA
ATOM     24  C   UNL     1      37.123 -23.046 -14.998  0.00  0.00    +0.017 C 
ATOM     25  C   UNL     1      36.692 -22.853 -13.692  0.00  0.00    +0.020 C 
ATOM     26  C   UNL     1      38.287 -23.768 -15.241  0.00  0.00    +0.020 C 
ATOM     27  C   UNL     1      37.453 -23.396 -12.669  0.00  0.00    +0.099 C 
ATOM     28  C   UNL     1      38.977 -24.271 -14.149  0.00  0.00    +0.099 C 
ENDBRANCH  20  24
ENDBRANCH   3  14
BRANCH   9  30
ATOM     29  N   UNL     1      33.068 -11.791 -24.755  0.00  0.00    -0.242 NA
ATOM     30  C   UNL     1      33.654 -14.335 -23.758  0.00  0.00    +0.017 C 
ATOM     31  C   UNL     1      33.242 -14.180 -25.076  0.00  0.00    +0.020 C 
ATOM     32  C   UNL     1      33.773 -13.219 -22.937  0.00  0.00    +0.020 C 
ATOM     33  C   UNL     1      32.964 -12.898 -25.523  0.00  0.00    +0.099 C 
ATOM     34  C   UNL     1      33.471 -11.981 -23.479  0.00  0.00    +0.099 C 
ENDBRANCH   9  30
TORSDOF 3
ENDMDL
MODEL 8
REMARK VINA RESULT:     -11.0      1.137     11.306
REMARK  Name = 16659285
REMARK  3 active torsions:
REMARK  status: ('A' for Active; 'I' for Inactive)
REMARK    1  A    between atoms: C_3  and  C_14
REMARK    2  A    between atoms: C_9  and  C_30
REMARK    3  A    between atoms: C_20  and  C_24
REMARK                            x       y       z     vdW  Elec       q    Type
REMARK                         _______ _______ _______ _____ _____    ______ ____
ROOT
ATOM      1  N   UNL     1      31.297  -7.747 -22.736  0.00  0.00    -0.315 N 
ATOM      2  N   UNL     1      33.083  -6.573 -23.348  0.00  0.00    -0.315 N 
ATOM      3  C   UNL     1      33.408 -10.708 -23.503  0.00  0.00    +0.001 C 
ATOM      4  C   UNL     1      32.248  -8.676 -23.077  0.00  0.00    +0.059 C 
ATOM      5  C   UNL     1      33.352  -7.918 -23.456  0.00  0.00    +0.059 C 
ATOM      6  C   UNL     1      32.235 -10.071 -23.086  0.00  0.00    +0.016 C 
ATOM      7  C   UNL     1      34.533  -9.975 -23.890  0.00  0.00    +0.001 C 
ATOM      8  C   UNL     1      34.523  -8.575 -23.872  0.00  0.00    +0.016 C 
ATOM      9  C   UNL     1      31.844  -6.507 -22.915  0.00  0.00    +0.168 C 
ATOM     10  H   UNL     1      30.386  -7.940 -22.419  0.00  0.00    +0.149 HD
ATOM     11  H   UNL     1      33.686  -5.823 -23.553  0.00  0.00    +0.149 HD
ENDROOT
BRANCH   3  14
ATOM     12  N   UNL     1      34.490 -15.207 -21.680  0.00  0.00    -0.315 N 
ATOM     13  N   UNL     1      33.679 -16.299 -23.437  0.00  0.00    -0.315 N 
ATOM     14  C   UNL     1      33.456 -12.155 -23.533  0.00  0.00    +0.001 C 
ATOM     15  C   UNL     1      34.031 -14.236 -22.534  0.00  0.00    +0.059 C 
ATOM     16  C   UNL     1      33.530 -14.944 -23.624  0.00  0.00    +0.059 C 
ATOM     17  C   UNL     1      34.013 -12.843 -22.450  0.00  0.00    +0.016 C 
ATOM     18  C   UNL     1      32.946 -12.837 -24.640  0.00  0.00    +0.001 C 
ATOM     19  C   UNL     1      32.975 -14.235 -24.702  0.00  0.00    +0.016 C 
ATOM     20  C   UNL     1      34.256 -16.420 -22.264  0.00  0.00    +0.168 C 
ATOM     21  H   UNL     1      34.910 -15.055 -20.803  0.00  0.00    +0.149 HD
ATOM     22  H   UNL     1      33.411 -17.021 -24.051  0.00  0.00    +0.149 HD
BRANCH  20  24
ATOM     23  N   UNL     1      35.326 -20.057 -20.369  0.00  0.00    -0.242 NA
ATOM     24  C   UNL     1      34.621 -17.660 -21.621  0.00  0.00    +0.017 C 
ATOM     25  C   UNL     1      35.935 -17.880 -21.225  0.00  0.00    +0.020 C 
ATOM     26  C   UNL     1      33.658 -18.637 -21.391  0.00  0.00    +0.020 C 
ATOM     27  C   UNL     1      36.234 -19.085 -20.608  0.00  0.00    +0.099 C 
ATOM     28  C   UNL     1      34.059 -19.807 -20.767  0.00  0.00    +0.099 C 
ENDBRANCH  20  24
ENDBRANCH   3  14
BRANCH   9  30
ATOM     29  N   UNL     1      29.662  -2.962 -22.118  0.00  0.00    -0.242 NA
ATOM     30  C   UNL     1      31.103  -5.299 -22.643  0.00  0.00    +0.017 C 
ATOM     31  C   UNL     1      31.103  -4.258 -23.563  0.00  0.00    +0.020 C 
ATOM     32  C   UNL     1      30.383  -5.173 -21.459  0.00  0.00    +0.020 C 
ATOM     33  C   UNL     1      30.373  -3.121 -23.257  0.00  0.00    +0.099 C 
ATOM     34  C   UNL     1      29.686  -3.995 -21.247  0.00  0.00    +0.099 C 
ENDBRANCH   9  30
TORSDOF 3
ENDMDL
MODEL 9
REMARK VINA RESULT:     -11.0      1.703     11.219
REMARK  Name = 16659285
REMARK  3 active torsions:
REMARK  status: ('A' for Active; 'I' for Inactive)
REMARK    1  A    between atoms: C_3  and  C_14
REMARK    2  A    between atoms: C_9  and  C_30
REMARK    3  A    between atoms: C_20  and  C_24
REMARK                            x       y       z     vdW  Elec       q    Type
REMARK                         _______ _______ _______ _____ _____    ______ ____
ROOT
ATOM      1  N   UNL     1      33.543  -6.324 -24.449  0.00  0.00    -0.315 N 
ATOM      2  N   UNL     1      31.513  -5.427 -24.343  0.00  0.00    -0.315 N 
ATOM      3  C   UNL     1      31.965  -9.242 -22.773  0.00  0.00    +0.001 C 
ATOM      4  C   UNL     1      32.756  -7.269 -23.839  0.00  0.00    +0.059 C 
ATOM      5  C   UNL     1      31.494  -6.684 -23.785  0.00  0.00    +0.059 C 
ATOM      6  C   UNL     1      33.033  -8.544 -23.345  0.00  0.00    +0.016 C 
ATOM      7  C   UNL     1      30.687  -8.683 -22.703  0.00  0.00    +0.001 C 
ATOM      8  C   UNL     1      30.432  -7.401 -23.206  0.00  0.00    +0.016 C 
ATOM      9  C   UNL     1      32.755  -5.244 -24.731  0.00  0.00    +0.168 C 
ATOM     10  H   UNL     1      34.503  -6.411 -24.649  0.00  0.00    +0.149 HD
ATOM     11  H   UNL     1      30.759  -4.800 -24.432  0.00  0.00    +0.149 HD
ENDROOT
BRANCH   3  14
ATOM     12  N   UNL     1      33.856 -13.841 -22.833  0.00  0.00    -0.315 N 
ATOM     13  N   UNL     1      32.950 -14.420 -20.888  0.00  0.00    -0.315 N 
ATOM     14  C   UNL     1      32.190 -10.571 -22.244  0.00  0.00    +0.001 C 
ATOM     15  C   UNL     1      33.162 -12.737 -22.409  0.00  0.00    +0.059 C 
ATOM     16  C   UNL     1      32.605 -13.124 -21.193  0.00  0.00    +0.059 C 
ATOM     17  C   UNL     1      32.979 -11.471 -22.968  0.00  0.00    +0.016 C 
ATOM     18  C   UNL     1      31.618 -10.930 -21.021  0.00  0.00    +0.001 C 
ATOM     19  C   UNL     1      31.816 -12.207 -20.480  0.00  0.00    +0.016 C 
ATOM     20  C   UNL     1      33.698 -14.819 -21.891  0.00  0.00    +0.168 C 
ATOM     21  H   UNL     1      34.375 -13.915 -23.667  0.00  0.00    +0.149 HD
ATOM     22  H   UNL     1      32.690 -14.937 -20.092  0.00  0.00    +0.149 HD
BRANCH  20  24
ATOM     23  N   UNL     1      35.481 -18.642 -22.301  0.00  0.00    -0.242 NA
ATOM     24  C   UNL     1      34.308 -16.120 -22.031  0.00  0.00    +0.017 C 
ATOM     25  C   UNL     1      34.888 -16.741 -20.932  0.00  0.00    +0.020 C 
ATOM     26  C   UNL     1      34.312 -16.759 -23.267  0.00  0.00    +0.020 C 
ATOM     27  C   UNL     1      35.457 -17.990 -21.118  0.00  0.00    +0.099 C 
ATOM     28  C   UNL     1      34.906 -18.008 -23.348  0.00  0.00    +0.099 C 
ENDBRANCH  20  24
ENDBRANCH   3  14
BRANCH   9  30
ATOM     29  N   UNL     1      34.286  -1.787 -26.645  0.00  0.00    -0.242 NA
ATOM     30  C   UNL     1      33.277  -4.066 -25.380  0.00  0.00    +0.017 C 
ATOM     31  C   UNL     1      34.547  -4.085 -25.943  0.00  0.00    +0.020 C 
ATOM     32  C   UNL     1      32.509  -2.908 -25.450  0.00  0.00    +0.020 C 
ATOM     33  C   UNL     1      35.002  -2.930 -26.558  0.00  0.00    +0.099 C 
ATOM     34  C   UNL     1      33.054  -1.806 -26.088  0.00  0.00    +0.099 C 
ENDBRANCH   9  30
TORSDOF 3
ENDMDL
