MODEL 1
REMARK VINA RESULT:     -10.5      0.000      0.000
REMARK  Name = 11464526
REMARK  8 active torsions:
REMARK  status: ('A' for Active; 'I' for Inactive)
REMARK    1  A    between atoms: N_1  and  C_19
REMARK    2  A    between atoms: N_3  and  C_12
REMARK    3  A    between atoms: C_11  and  C_18
REMARK    4  A    between atoms: C_20  and  O_25
REMARK    5  A    between atoms: O_25  and  C_26
REMARK    6  A    between atoms: C_26  and  C_27
REMARK    7  A    between atoms: C_27  and  C_28
REMARK    8  A    between atoms: C_28  and  N_29
REMARK                            x       y       z     vdW  Elec       q    Type
REMARK                         _______ _______ _______ _____ _____    ______ ____
ROOT
ATOM      1  N   UNL     1      35.126 -23.906 -13.945  0.00  0.00    -0.284 N 
ATOM      2  H   UNL     1      34.937 -23.948 -12.980  0.00  0.00    +0.155 HD
ATOM      3  N   UNL     1      30.580 -23.155 -14.178  0.00  0.00    -0.262 N 
ATOM      4  N   UNL     1      32.319 -23.535 -12.836  0.00  0.00    -0.240 NA
ATOM      5  N   UNL     1      31.703 -23.174 -16.333  0.00  0.00    -0.315 NA
ATOM      6  N   UNL     1      34.096 -23.580 -16.080  0.00  0.00    -0.315 NA
ATOM      7  C   UNL     1      31.669 -23.269 -14.994  0.00  0.00    +0.219 C 
ATOM      8  C   UNL     1      31.020 -23.321 -12.893  0.00  0.00    +0.222 C 
ATOM      9  C   UNL     1      32.736 -23.505 -14.143  0.00  0.00    +0.168 C 
ATOM     10  C   UNL     1      33.987 -23.663 -14.732  0.00  0.00    +0.218 C 
ATOM     11  C   UNL     1      32.964 -23.344 -16.786  0.00  0.00    +0.215 C 
ENDROOT
BRANCH   1  12
ATOM     12  C   UNL     1      36.488 -24.101 -14.264  0.00  0.00    +0.085 C 
ATOM     13  C   UNL     1      37.204 -23.118 -14.947  0.00  0.00    +0.152 C 
ATOM     14  C   UNL     1      37.116 -25.287 -13.888  0.00  0.00    +0.018 C 
ATOM     15  C   UNL     1      38.550 -23.323 -15.255  0.00  0.00    +0.038 C 
ATOM     16  C   UNL     1      38.461 -25.492 -14.196  0.00  0.00    +0.001 C 
ATOM     17  C   UNL     1      39.177 -24.510 -14.880  0.00  0.00    +0.003 C 
BRANCH  13  18
ATOM     18  O   UNL     1      36.609 -21.950 -15.323  0.00  0.00    -0.474 OA
BRANCH  18  19
ATOM     19  C   UNL     1      37.075 -21.345 -16.527  0.00  0.00    +0.207 C 
BRANCH  19  20
ATOM     20  C   UNL     1      35.874 -21.026 -17.409  0.00  0.00    +0.069 C 
BRANCH  20  21
ATOM     21  C   UNL     1      36.137 -21.253 -18.898  0.00  0.00    +0.101 C 
BRANCH  21  22
ATOM     22  N   UNL     1      35.615 -20.196 -19.755  0.00  0.00    -0.268 N 
ATOM     23  N   UNL     1      35.563 -18.339 -20.945  0.00  0.00    -0.225 NA
ATOM     24  C   UNL     1      34.356 -20.131 -20.257  0.00  0.00    +0.088 C 
ATOM     25  C   UNL     1      36.309 -19.110 -20.186  0.00  0.00    +0.168 C 
ATOM     26  C   UNL     1      34.344 -18.969 -20.994  0.00  0.00    +0.117 C 
ENDBRANCH  21  22
ENDBRANCH  20  21
ENDBRANCH  19  20
ENDBRANCH  18  19
ENDBRANCH  13  18
ENDBRANCH   1  12
BRANCH   3  27
ATOM     27  C   UNL     1      29.201 -22.902 -14.589  0.00  0.00    +0.077 C 
ATOM     28  C   UNL     1      29.087 -21.921 -15.768  0.00  0.00    +0.020 C 
ATOM     29  C   UNL     1      28.417 -24.164 -15.001  0.00  0.00    +0.020 C 
ATOM     30  C   UNL     1      27.907 -22.436 -16.580  0.00  0.00    +0.002 C 
ATOM     31  C   UNL     1      28.034 -23.946 -16.461  0.00  0.00    +0.002 C 
ENDBRANCH   3  27
BRANCH  11  33
ATOM     32  N   UNL     1      33.259 -23.200 -19.356  0.00  0.00    -0.178 NA
ATOM     33  C   UNL     1      33.126 -23.265 -18.199  0.00  0.00    +0.198 C 
ENDBRANCH  11  33
TORSDOF 8
ENDMDL
MODEL 2
REMARK VINA RESULT:     -10.0      2.539      6.597
REMARK  Name = 11464526
REMARK  8 active torsions:
REMARK  status: ('A' for Active; 'I' for Inactive)
REMARK    1  A    between atoms: N_1  and  C_19
REMARK    2  A    between atoms: N_3  and  C_12
REMARK    3  A    between atoms: C_11  and  C_18
REMARK    4  A    between atoms: C_20  and  O_25
REMARK    5  A    between atoms: O_25  and  C_26
REMARK    6  A    between atoms: C_26  and  C_27
REMARK    7  A    between atoms: C_27  and  C_28
REMARK    8  A    between atoms: C_28  and  N_29
REMARK                            x       y       z     vdW  Elec       q    Type
REMARK                         _______ _______ _______ _____ _____    ______ ____
ROOT
ATOM      1  N   UNL     1      35.275 -21.446 -18.039  0.00  0.00    -0.284 N 
ATOM      2  H   UNL     1      36.193 -21.260 -18.342  0.00  0.00    +0.155 HD
ATOM      3  N   UNL     1      37.496 -23.319 -14.455  0.00  0.00    -0.262 N 
ATOM      4  N   UNL     1      37.708 -22.263 -16.406  0.00  0.00    -0.240 NA
ATOM      5  N   UNL     1      35.074 -23.456 -14.314  0.00  0.00    -0.315 NA
ATOM      6  N   UNL     1      34.015 -22.435 -16.261  0.00  0.00    -0.315 NA
ATOM      7  C   UNL     1      36.226 -23.107 -14.909  0.00  0.00    +0.219 C 
ATOM      8  C   UNL     1      38.350 -22.795 -15.387  0.00  0.00    +0.222 C 
ATOM      9  C   UNL     1      36.379 -22.452 -16.119  0.00  0.00    +0.168 C 
ATOM     10  C   UNL     1      35.214 -22.113 -16.803  0.00  0.00    +0.218 C 
ATOM     11  C   UNL     1      34.019 -23.077 -15.068  0.00  0.00    +0.215 C 
ENDROOT
BRANCH   1  12
ATOM     12  C   UNL     1      34.281 -20.989 -18.931  0.00  0.00    +0.085 C 
ATOM     13  C   UNL     1      34.630 -20.269 -20.073  0.00  0.00    +0.152 C 
ATOM     14  C   UNL     1      32.941 -21.267 -18.663  0.00  0.00    +0.018 C 
ATOM     15  C   UNL     1      33.637 -19.824 -20.947  0.00  0.00    +0.038 C 
ATOM     16  C   UNL     1      31.949 -20.822 -19.537  0.00  0.00    +0.001 C 
ATOM     17  C   UNL     1      32.296 -20.101 -20.678  0.00  0.00    +0.003 C 
BRANCH  13  18
ATOM     18  O   UNL     1      35.934 -19.987 -20.354  0.00  0.00    -0.474 OA
BRANCH  18  19
ATOM     19  C   UNL     1      36.288 -18.611 -20.469  0.00  0.00    +0.207 C 
BRANCH  19  20
ATOM     20  C   UNL     1      35.854 -18.109 -21.840  0.00  0.00    +0.069 C 
BRANCH  20  21
ATOM     21  C   UNL     1      35.034 -16.820 -21.782  0.00  0.00    +0.101 C 
BRANCH  21  22
ATOM     22  N   UNL     1      34.384 -16.479 -23.042  0.00  0.00    -0.268 N 
ATOM     23  N   UNL     1      33.335 -16.749 -24.965  0.00  0.00    -0.225 NA
ATOM     24  C   UNL     1      34.214 -15.226 -23.533  0.00  0.00    +0.088 C 
ATOM     25  C   UNL     1      33.848 -17.365 -23.922  0.00  0.00    +0.168 C 
ATOM     26  C   UNL     1      33.560 -15.415 -24.728  0.00  0.00    +0.117 C 
ENDBRANCH  21  22
ENDBRANCH  20  21
ENDBRANCH  19  20
ENDBRANCH  18  19
ENDBRANCH  13  18
ENDBRANCH   1  12
BRANCH   3  27
ATOM     27  C   UNL     1      37.882 -23.980 -13.211  0.00  0.00    +0.077 C 
ATOM     28  C   UNL     1      37.085 -23.493 -11.989  0.00  0.00    +0.020 C 
ATOM     29  C   UNL     1      37.738 -25.515 -13.233  0.00  0.00    +0.020 C 
ATOM     30  C   UNL     1      36.913 -24.733 -11.124  0.00  0.00    +0.002 C 
ATOM     31  C   UNL     1      36.725 -25.845 -12.143  0.00  0.00    +0.002 C 
ENDBRANCH   3  27
BRANCH  11  33
ATOM     32  N   UNL     1      31.686 -23.656 -14.103  0.00  0.00    -0.178 NA
ATOM     33  C   UNL     1      32.737 -23.395 -14.537  0.00  0.00    +0.198 C 
ENDBRANCH  11  33
TORSDOF 8
ENDMDL
MODEL 3
REMARK VINA RESULT:      -9.9      1.982      7.334
REMARK  Name = 11464526
REMARK  8 active torsions:
REMARK  status: ('A' for Active; 'I' for Inactive)
REMARK    1  A    between atoms: N_1  and  C_19
REMARK    2  A    between atoms: N_3  and  C_12
REMARK    3  A    between atoms: C_11  and  C_18
REMARK    4  A    between atoms: C_20  and  O_25
REMARK    5  A    between atoms: O_25  and  C_26
REMARK    6  A    between atoms: C_26  and  C_27
REMARK    7  A    between atoms: C_27  and  C_28
REMARK    8  A    between atoms: C_28  and  N_29
REMARK                            x       y       z     vdW  Elec       q    Type
REMARK                         _______ _______ _______ _____ _____    ______ ____
ROOT
ATOM      1  N   UNL     1      31.778 -22.513 -16.943  0.00  0.00    -0.284 N 
ATOM      2  H   UNL     1      30.978 -22.296 -17.475  0.00  0.00    +0.155 HD
ATOM      3  N   UNL     1      33.895 -20.190 -20.321  0.00  0.00    -0.262 N 
ATOM      4  N   UNL     1      31.945 -20.923 -19.531  0.00  0.00    -0.240 NA
ATOM      5  N   UNL     1      35.388 -21.035 -18.600  0.00  0.00    -0.315 NA
ATOM      6  N   UNL     1      34.155 -22.243 -16.875  0.00  0.00    -0.315 NA
ATOM      7  C   UNL     1      34.183 -20.853 -19.163  0.00  0.00    +0.219 C 
ATOM      8  C   UNL     1      32.540 -20.258 -20.499  0.00  0.00    +0.222 C 
ATOM      9  C   UNL     1      32.960 -21.301 -18.689  0.00  0.00    +0.168 C 
ATOM     10  C   UNL     1      32.972 -22.020 -17.498  0.00  0.00    +0.218 C 
ATOM     11  C   UNL     1      35.272 -21.744 -17.456  0.00  0.00    +0.215 C 
ENDROOT
BRANCH   1  12
ATOM     12  C   UNL     1      31.498 -23.255 -15.776  0.00  0.00    +0.085 C 
ATOM     13  C   UNL     1      32.386 -23.246 -14.700  0.00  0.00    +0.152 C 
ATOM     14  C   UNL     1      30.321 -24.000 -15.704  0.00  0.00    +0.018 C 
ATOM     15  C   UNL     1      32.096 -23.984 -13.551  0.00  0.00    +0.038 C 
ATOM     16  C   UNL     1      30.032 -24.737 -14.556  0.00  0.00    +0.001 C 
ATOM     17  C   UNL     1      30.919 -24.730 -13.480  0.00  0.00    +0.003 C 
BRANCH  13  18
ATOM     18  O   UNL     1      33.541 -22.524 -14.750  0.00  0.00    -0.474 OA
BRANCH  18  19
ATOM     19  C   UNL     1      34.541 -22.837 -13.783  0.00  0.00    +0.207 C 
BRANCH  19  20
ATOM     20  C   UNL     1      35.172 -24.175 -14.150  0.00  0.00    +0.069 C 
BRANCH  20  21
ATOM     21  C   UNL     1      36.028 -24.769 -13.031  0.00  0.00    +0.101 C 
BRANCH  21  22
ATOM     22  N   UNL     1      37.379 -25.124 -13.449  0.00  0.00    -0.268 N 
ATOM     23  N   UNL     1      39.011 -26.233 -14.437  0.00  0.00    -0.225 NA
ATOM     24  C   UNL     1      38.514 -24.459 -13.115  0.00  0.00    +0.088 C 
ATOM     25  C   UNL     1      37.712 -26.178 -14.239  0.00  0.00    +0.168 C 
ATOM     26  C   UNL     1      39.516 -25.164 -13.739  0.00  0.00    +0.117 C 
ENDBRANCH  21  22
ENDBRANCH  20  21
ENDBRANCH  19  20
ENDBRANCH  18  19
ENDBRANCH  13  18
ENDBRANCH   1  12
BRANCH   3  27
ATOM     27  C   UNL     1      34.847 -19.527 -21.209  0.00  0.00    +0.077 C 
ATOM     28  C   UNL     1      34.236 -19.117 -22.560  0.00  0.00    +0.020 C 
ATOM     29  C   UNL     1      35.488 -18.254 -20.623  0.00  0.00    +0.020 C 
ATOM     30  C   UNL     1      34.921 -17.802 -22.906  0.00  0.00    +0.002 C 
ATOM     31  C   UNL     1      35.072 -17.122 -21.556  0.00  0.00    +0.002 C 
ENDBRANCH   3  27
BRANCH  11  33
ATOM     32  N   UNL     1      37.489 -22.215 -16.200  0.00  0.00    -0.178 NA
ATOM     33  C   UNL     1      36.491 -22.002 -16.766  0.00  0.00    +0.198 C 
ENDBRANCH  11  33
TORSDOF 8
ENDMDL
MODEL 4
REMARK VINA RESULT:      -9.8      2.285      4.834
REMARK  Name = 11464526
REMARK  8 active torsions:
REMARK  status: ('A' for Active; 'I' for Inactive)
REMARK    1  A    between atoms: N_1  and  C_19
REMARK    2  A    between atoms: N_3  and  C_12
REMARK    3  A    between atoms: C_11  and  C_18
REMARK    4  A    between atoms: C_20  and  O_25
REMARK    5  A    between atoms: O_25  and  C_26
REMARK    6  A    between atoms: C_26  and  C_27
REMARK    7  A    between atoms: C_27  and  C_28
REMARK    8  A    between atoms: C_28  and  N_29
REMARK                            x       y       z     vdW  Elec       q    Type
REMARK                         _______ _______ _______ _____ _____    ______ ____
ROOT
ATOM      1  N   UNL     1      34.203 -23.422 -14.690  0.00  0.00    -0.284 N 
ATOM      2  H   UNL     1      34.063 -23.880 -13.830  0.00  0.00    +0.155 HD
ATOM      3  N   UNL     1      29.591 -23.500 -14.777  0.00  0.00    -0.262 N 
ATOM      4  N   UNL     1      31.422 -24.052 -13.633  0.00  0.00    -0.240 NA
ATOM      5  N   UNL     1      30.610 -22.451 -16.717  0.00  0.00    -0.315 NA
ATOM      6  N   UNL     1      33.045 -22.471 -16.556  0.00  0.00    -0.315 NA
ATOM      7  C   UNL     1      30.648 -23.075 -15.529  0.00  0.00    +0.219 C 
ATOM      8  C   UNL     1      30.105 -24.079 -13.648  0.00  0.00    +0.222 C 
ATOM      9  C   UNL     1      31.774 -23.428 -14.803  0.00  0.00    +0.168 C 
ATOM     10  C   UNL     1      33.008 -23.103 -15.358  0.00  0.00    +0.218 C 
ATOM     11  C   UNL     1      31.862 -22.188 -17.152  0.00  0.00    +0.215 C 
ENDROOT
BRANCH   1  12
ATOM     12  C   UNL     1      35.563 -23.217 -15.009  0.00  0.00    +0.085 C 
ATOM     13  C   UNL     1      36.457 -24.287 -15.023  0.00  0.00    +0.152 C 
ATOM     14  C   UNL     1      36.009 -21.931 -15.313  0.00  0.00    +0.018 C 
ATOM     15  C   UNL     1      37.799 -24.071 -15.341  0.00  0.00    +0.038 C 
ATOM     16  C   UNL     1      37.350 -21.715 -15.630  0.00  0.00    +0.001 C 
ATOM     17  C   UNL     1      38.245 -22.784 -15.644  0.00  0.00    +0.003 C 
BRANCH  13  18
ATOM     18  O   UNL     1      36.042 -25.552 -14.730  0.00  0.00    -0.474 OA
BRANCH  18  19
ATOM     19  C   UNL     1      37.028 -26.461 -14.246  0.00  0.00    +0.207 C 
BRANCH  19  20
ATOM     20  C   UNL     1      36.877 -26.585 -12.735  0.00  0.00    +0.069 C 
BRANCH  20  21
ATOM     21  C   UNL     1      37.675 -25.537 -11.958  0.00  0.00    +0.101 C 
BRANCH  21  22
ATOM     22  N   UNL     1      36.913 -24.337 -11.638  0.00  0.00    -0.268 N 
ATOM     23  N   UNL     1      36.436 -22.196 -11.397  0.00  0.00    -0.225 NA
ATOM     24  C   UNL     1      35.643 -24.307 -11.160  0.00  0.00    +0.088 C 
ATOM     25  C   UNL     1      37.356 -23.059 -11.767  0.00  0.00    +0.168 C 
ATOM     26  C   UNL     1      35.365 -22.967 -11.017  0.00  0.00    +0.117 C 
ENDBRANCH  21  22
ENDBRANCH  20  21
ENDBRANCH  19  20
ENDBRANCH  18  19
ENDBRANCH  13  18
ENDBRANCH   1  12
BRANCH   3  27
ATOM     27  C   UNL     1      28.173 -23.366 -15.104  0.00  0.00    +0.077 C 
ATOM     28  C   UNL     1      27.674 -21.912 -15.066  0.00  0.00    +0.020 C 
ATOM     29  C   UNL     1      27.785 -23.917 -16.491  0.00  0.00    +0.020 C 
ATOM     30  C   UNL     1      26.651 -21.829 -16.189  0.00  0.00    +0.002 C 
ATOM     31  C   UNL     1      27.242 -22.722 -17.267  0.00  0.00    +0.002 C 
ENDBRANCH   3  27
BRANCH  11  33
ATOM     32  N   UNL     1      32.022 -20.980 -19.439  0.00  0.00    -0.178 NA
ATOM     33  C   UNL     1      31.950 -21.525 -18.409  0.00  0.00    +0.198 C 
ENDBRANCH  11  33
TORSDOF 8
ENDMDL
MODEL 5
REMARK VINA RESULT:      -9.4     12.817     18.411
REMARK  Name = 11464526
REMARK  8 active torsions:
REMARK  status: ('A' for Active; 'I' for Inactive)
REMARK    1  A    between atoms: N_1  and  C_19
REMARK    2  A    between atoms: N_3  and  C_12
REMARK    3  A    between atoms: C_11  and  C_18
REMARK    4  A    between atoms: C_20  and  O_25
REMARK    5  A    between atoms: O_25  and  C_26
REMARK    6  A    between atoms: C_26  and  C_27
REMARK    7  A    between atoms: C_27  and  C_28
REMARK    8  A    between atoms: C_28  and  N_29
REMARK                            x       y       z     vdW  Elec       q    Type
REMARK                         _______ _______ _______ _____ _____    ______ ____
ROOT
ATOM      1  N   UNL     1      32.662  -7.392 -22.628  0.00  0.00    -0.284 N 
ATOM      2  H   UNL     1      33.336  -7.926 -23.108  0.00  0.00    +0.155 HD
ATOM      3  N   UNL     1      33.865  -4.208 -25.742  0.00  0.00    -0.262 N 
ATOM      4  N   UNL     1      34.206  -6.282 -25.002  0.00  0.00    -0.240 NA
ATOM      5  N   UNL     1      32.153  -3.482 -24.179  0.00  0.00    -0.315 NA
ATOM      6  N   UNL     1      31.603  -5.247 -22.586  0.00  0.00    -0.315 NA
ATOM      7  C   UNL     1      33.019  -4.374 -24.684  0.00  0.00    +0.219 C 
ATOM      8  C   UNL     1      34.556  -5.380 -25.895  0.00  0.00    +0.222 C 
ATOM      9  C   UNL     1      33.246  -5.666 -24.238  0.00  0.00    +0.168 C 
ATOM     10  C   UNL     1      32.497  -6.096 -23.147  0.00  0.00    +0.218 C 
ATOM     11  C   UNL     1      31.488  -4.011 -23.129  0.00  0.00    +0.215 C 
ENDROOT
BRANCH   1  12
ATOM     12  C   UNL     1      32.052  -8.080 -21.557  0.00  0.00    +0.085 C 
ATOM     13  C   UNL     1      31.541  -9.365 -21.739  0.00  0.00    +0.152 C 
ATOM     14  C   UNL     1      31.966  -7.465 -20.309  0.00  0.00    +0.018 C 
ATOM     15  C   UNL     1      30.942 -10.035 -20.670  0.00  0.00    +0.038 C 
ATOM     16  C   UNL     1      31.367  -8.134 -19.241  0.00  0.00    +0.001 C 
ATOM     17  C   UNL     1      30.855  -9.418 -19.422  0.00  0.00    +0.003 C 
BRANCH  13  18
ATOM     18  O   UNL     1      31.616  -9.985 -22.951  0.00  0.00    -0.474 OA
BRANCH  18  19
ATOM     19  C   UNL     1      32.760 -10.802 -23.190  0.00  0.00    +0.207 C 
BRANCH  19  20
ATOM     20  C   UNL     1      32.389 -12.254 -22.912  0.00  0.00    +0.069 C 
BRANCH  20  21
ATOM     21  C   UNL     1      33.407 -13.255 -23.460  0.00  0.00    +0.101 C 
BRANCH  21  22
ATOM     22  N   UNL     1      33.815 -14.267 -22.493  0.00  0.00    -0.268 N 
ATOM     23  N   UNL     1      34.157 -15.242 -20.544  0.00  0.00    -0.225 NA
ATOM     24  C   UNL     1      34.375 -15.467 -22.789  0.00  0.00    +0.088 C 
ATOM     25  C   UNL     1      33.700 -14.165 -21.143  0.00  0.00    +0.168 C 
ATOM     26  C   UNL     1      34.579 -16.058 -21.564  0.00  0.00    +0.117 C 
ENDBRANCH  21  22
ENDBRANCH  20  21
ENDBRANCH  19  20
ENDBRANCH  18  19
ENDBRANCH  13  18
ENDBRANCH   1  12
BRANCH   3  27
ATOM     27  C   UNL     1      34.014  -3.009 -26.565  0.00  0.00    +0.077 C 
ATOM     28  C   UNL     1      35.446  -2.799 -27.082  0.00  0.00    +0.020 C 
ATOM     29  C   UNL     1      33.098  -2.969 -27.804  0.00  0.00    +0.020 C 
ATOM     30  C   UNL     1      35.268  -2.202 -28.471  0.00  0.00    +0.002 C 
ATOM     31  C   UNL     1      34.039  -2.921 -29.004  0.00  0.00    +0.002 C 
ENDBRANCH   3  27
BRANCH  11  33
ATOM     32  N   UNL     1      29.755  -2.451 -21.999  0.00  0.00    -0.178 NA
ATOM     33  C   UNL     1      30.536  -3.153 -22.508  0.00  0.00    +0.198 C 
ENDBRANCH  11  33
TORSDOF 8
ENDMDL
MODEL 6
REMARK VINA RESULT:      -9.2      1.592      3.096
REMARK  Name = 11464526
REMARK  8 active torsions:
REMARK  status: ('A' for Active; 'I' for Inactive)
REMARK    1  A    between atoms: N_1  and  C_19
REMARK    2  A    between atoms: N_3  and  C_12
REMARK    3  A    between atoms: C_11  and  C_18
REMARK    4  A    between atoms: C_20  and  O_25
REMARK    5  A    between atoms: O_25  and  C_26
REMARK    6  A    between atoms: C_26  and  C_27
REMARK    7  A    between atoms: C_27  and  C_28
REMARK    8  A    between atoms: C_28  and  N_29
REMARK                            x       y       z     vdW  Elec       q    Type
REMARK                         _______ _______ _______ _____ _____    ______ ____
ROOT
ATOM      1  N   UNL     1      36.450 -24.444 -14.999  0.00  0.00    -0.284 N 
ATOM      2  H   UNL     1      36.221 -24.414 -15.956  0.00  0.00    +0.155 HD
ATOM      3  N   UNL     1      31.956 -23.513 -14.526  0.00  0.00    -0.262 N 
ATOM      4  N   UNL     1      33.620 -23.882 -15.962  0.00  0.00    -0.240 NA
ATOM      5  N   UNL     1      33.161 -23.721 -12.426  0.00  0.00    -0.315 NA
ATOM      6  N   UNL     1      35.521 -24.212 -12.805  0.00  0.00    -0.315 NA
ATOM      7  C   UNL     1      33.070 -23.727 -13.765  0.00  0.00    +0.219 C 
ATOM      8  C   UNL     1      32.336 -23.617 -15.836  0.00  0.00    +0.222 C 
ATOM      9  C   UNL     1      34.090 -23.954 -14.674  0.00  0.00    +0.168 C 
ATOM     10  C   UNL     1      35.355 -24.204 -14.150  0.00  0.00    +0.218 C 
ATOM     11  C   UNL     1      34.430 -23.974 -12.038  0.00  0.00    +0.215 C 
ENDROOT
BRANCH   1  12
ATOM     12  C   UNL     1      37.812 -24.720 -14.751  0.00  0.00    +0.085 C 
ATOM     13  C   UNL     1      38.804 -23.847 -15.197  0.00  0.00    +0.152 C 
ATOM     14  C   UNL     1      38.161 -25.875 -14.052  0.00  0.00    +0.018 C 
ATOM     15  C   UNL     1      40.148 -24.131 -14.944  0.00  0.00    +0.038 C 
ATOM     16  C   UNL     1      39.503 -26.159 -13.800  0.00  0.00    +0.001 C 
ATOM     17  C   UNL     1      40.496 -25.287 -14.246  0.00  0.00    +0.003 C 
BRANCH  13  18
ATOM     18  O   UNL     1      38.485 -22.712 -15.881  0.00  0.00    -0.474 OA
BRANCH  18  19
ATOM     19  C   UNL     1      37.379 -21.954 -15.396  0.00  0.00    +0.207 C 
BRANCH  19  20
ATOM     20  C   UNL     1      36.799 -21.145 -16.550  0.00  0.00    +0.069 C 
BRANCH  20  21
ATOM     21  C   UNL     1      35.774 -21.920 -17.378  0.00  0.00    +0.101 C 
BRANCH  21  22
ATOM     22  N   UNL     1      35.262 -21.179 -18.524  0.00  0.00    -0.268 N 
ATOM     23  N   UNL     1      35.240 -19.820 -20.262  0.00  0.00    -0.225 NA
ATOM     24  C   UNL     1      33.987 -21.214 -18.987  0.00  0.00    +0.088 C 
ATOM     25  C   UNL     1      35.983 -20.336 -19.309  0.00  0.00    +0.168 C 
ATOM     26  C   UNL     1      33.994 -20.363 -20.067  0.00  0.00    +0.117 C 
ENDBRANCH  21  22
ENDBRANCH  20  21
ENDBRANCH  19  20
ENDBRANCH  18  19
ENDBRANCH  13  18
ENDBRANCH   1  12
BRANCH   3  27
ATOM     27  C   UNL     1      30.607 -23.227 -14.042  0.00  0.00    +0.077 C 
ATOM     28  C   UNL     1      29.746 -22.459 -15.058  0.00  0.00    +0.020 C 
ATOM     29  C   UNL     1      29.794 -24.475 -13.644  0.00  0.00    +0.020 C 
ATOM     30  C   UNL     1      28.341 -23.012 -14.863  0.00  0.00    +0.002 C 
ATOM     31  C   UNL     1      28.583 -24.483 -14.570  0.00  0.00    +0.002 C 
ENDBRANCH   3  27
BRANCH  11  33
ATOM     32  N   UNL     1      34.835 -24.009  -9.480  0.00  0.00    -0.178 NA
ATOM     33  C   UNL     1      34.652 -23.993 -10.632  0.00  0.00    +0.198 C 
ENDBRANCH  11  33
TORSDOF 8
ENDMDL
MODEL 7
REMARK VINA RESULT:      -9.2     11.313     16.616
REMARK  Name = 11464526
REMARK  8 active torsions:
REMARK  status: ('A' for Active; 'I' for Inactive)
REMARK    1  A    between atoms: N_1  and  C_19
REMARK    2  A    between atoms: N_3  and  C_12
REMARK    3  A    between atoms: C_11  and  C_18
REMARK    4  A    between atoms: C_20  and  O_25
REMARK    5  A    between atoms: O_25  and  C_26
REMARK    6  A    between atoms: C_26  and  C_27
REMARK    7  A    between atoms: C_27  and  C_28
REMARK    8  A    between atoms: C_28  and  N_29
REMARK                            x       y       z     vdW  Elec       q    Type
REMARK                         _______ _______ _______ _____ _____    ______ ____
ROOT
ATOM      1  N   UNL     1      31.796  -9.448 -23.004  0.00  0.00    -0.284 N 
ATOM      2  H   UNL     1      31.676  -9.653 -23.959  0.00  0.00    +0.155 HD
ATOM      3  N   UNL     1      31.867  -5.113 -24.580  0.00  0.00    -0.262 N 
ATOM      4  N   UNL     1      31.680  -7.266 -25.120  0.00  0.00    -0.240 NA
ATOM      5  N   UNL     1      32.129  -5.306 -22.173  0.00  0.00    -0.315 NA
ATOM      6  N   UNL     1      32.076  -7.640 -21.461  0.00  0.00    -0.315 NA
ATOM      7  C   UNL     1      31.960  -5.805 -23.407  0.00  0.00    +0.219 C 
ATOM      8  C   UNL     1      31.699  -6.032 -25.580  0.00  0.00    +0.222 C 
ATOM      9  C   UNL     1      31.843  -7.138 -23.764  0.00  0.00    +0.168 C 
ATOM     10  C   UNL     1      31.906  -8.073 -22.734  0.00  0.00    +0.218 C 
ATOM     11  C   UNL     1      32.176  -6.303 -21.263  0.00  0.00    +0.215 C 
ENDROOT
BRANCH   1  12
ATOM     12  C   UNL     1      31.823 -10.592 -22.177  0.00  0.00    +0.085 C 
ATOM     13  C   UNL     1      32.302 -11.807 -22.664  0.00  0.00    +0.152 C 
ATOM     14  C   UNL     1      31.367 -10.498 -20.863  0.00  0.00    +0.018 C 
ATOM     15  C   UNL     1      32.324 -12.931 -21.835  0.00  0.00    +0.038 C 
ATOM     16  C   UNL     1      31.389 -11.620 -20.035  0.00  0.00    +0.001 C 
ATOM     17  C   UNL     1      31.868 -12.836 -20.521  0.00  0.00    +0.003 C 
BRANCH  13  18
ATOM     18  O   UNL     1      32.753 -11.921 -23.946  0.00  0.00    -0.474 OA
BRANCH  18  19
ATOM     19  C   UNL     1      32.816 -13.235 -24.495  0.00  0.00    +0.207 C 
BRANCH  19  20
ATOM     20  C   UNL     1      33.968 -13.984 -23.836  0.00  0.00    +0.069 C 
BRANCH  20  21
ATOM     21  C   UNL     1      33.931 -15.492 -24.084  0.00  0.00    +0.101 C 
BRANCH  21  22
ATOM     22  N   UNL     1      34.319 -16.288 -22.926  0.00  0.00    -0.268 N 
ATOM     23  N   UNL     1      34.828 -16.785 -20.837  0.00  0.00    -0.225 NA
ATOM     24  C   UNL     1      34.592 -17.618 -22.933  0.00  0.00    +0.088 C 
ATOM     25  C   UNL     1      34.470 -15.823 -21.659  0.00  0.00    +0.168 C 
ATOM     26  C   UNL     1      34.905 -17.907 -21.625  0.00  0.00    +0.117 C 
ENDBRANCH  21  22
ENDBRANCH  20  21
ENDBRANCH  19  20
ENDBRANCH  18  19
ENDBRANCH  13  18
ENDBRANCH   1  12
BRANCH   3  27
ATOM     27  C   UNL     1      31.932  -3.662 -24.748  0.00  0.00    +0.077 C 
ATOM     28  C   UNL     1      32.174  -3.228 -26.204  0.00  0.00    +0.020 C 
ATOM     29  C   UNL     1      30.672  -2.909 -24.279  0.00  0.00    +0.020 C 
ATOM     30  C   UNL     1      31.366  -1.948 -26.360  0.00  0.00    +0.002 C 
ATOM     31  C   UNL     1      30.127  -2.212 -25.521  0.00  0.00    +0.002 C 
ENDBRANCH   3  27
BRANCH  11  33
ATOM     32  N   UNL     1      32.500  -5.560 -18.802  0.00  0.00    -0.178 NA
ATOM     33  C   UNL     1      32.353  -5.895 -19.910  0.00  0.00    +0.198 C 
ENDBRANCH  11  33
TORSDOF 8
ENDMDL
MODEL 8
REMARK VINA RESULT:      -8.5      9.194     14.250
REMARK  Name = 11464526
REMARK  8 active torsions:
REMARK  status: ('A' for Active; 'I' for Inactive)
REMARK    1  A    between atoms: N_1  and  C_19
REMARK    2  A    between atoms: N_3  and  C_12
REMARK    3  A    between atoms: C_11  and  C_18
REMARK    4  A    between atoms: C_20  and  O_25
REMARK    5  A    between atoms: O_25  and  C_26
REMARK    6  A    between atoms: C_26  and  C_27
REMARK    7  A    between atoms: C_27  and  C_28
REMARK    8  A    between atoms: C_28  and  N_29
REMARK                            x       y       z     vdW  Elec       q    Type
REMARK                         _______ _______ _______ _____ _____    ______ ____
ROOT
ATOM      1  N   UNL     1      32.232 -11.218 -22.034  0.00  0.00    -0.284 N 
ATOM      2  H   UNL     1      32.307 -11.325 -21.058  0.00  0.00    +0.155 HD
ATOM      3  N   UNL     1      34.291 -15.347 -22.022  0.00  0.00    -0.262 N 
ATOM      4  N   UNL     1      33.488 -13.685 -20.773  0.00  0.00    -0.240 NA
ATOM      5  N   UNL     1      33.808 -14.476 -24.238  0.00  0.00    -0.315 NA
ATOM      6  N   UNL     1      32.723 -12.293 -24.114  0.00  0.00    -0.315 NA
ATOM      7  C   UNL     1      33.808 -14.417 -22.898  0.00  0.00    +0.219 C 
ATOM      8  C   UNL     1      34.076 -14.863 -20.760  0.00  0.00    +0.222 C 
ATOM      9  C   UNL     1      33.316 -13.394 -22.104  0.00  0.00    +0.168 C 
ATOM     10  C   UNL     1      32.756 -12.301 -22.760  0.00  0.00    +0.218 C 
ATOM     11  C   UNL     1      33.243 -13.365 -24.760  0.00  0.00    +0.215 C 
ENDROOT
BRANCH   1  12
ATOM     12  C   UNL     1      31.619 -10.009 -22.426  0.00  0.00    +0.085 C 
ATOM     13  C   UNL     1      30.620  -9.433 -21.641  0.00  0.00    +0.152 C 
ATOM     14  C   UNL     1      32.022  -9.388 -23.607  0.00  0.00    +0.018 C 
ATOM     15  C   UNL     1      30.022  -8.236 -22.040  0.00  0.00    +0.038 C 
ATOM     16  C   UNL     1      31.425  -8.192 -24.006  0.00  0.00    +0.001 C 
ATOM     17  C   UNL     1      30.426  -7.616 -23.223  0.00  0.00    +0.003 C 
BRANCH  13  18
ATOM     18  O   UNL     1      30.211 -10.023 -20.482  0.00  0.00    -0.474 OA
BRANCH  18  19
ATOM     19  C   UNL     1      30.513  -9.340 -19.267  0.00  0.00    +0.207 C 
BRANCH  19  20
ATOM     20  C   UNL     1      31.870  -8.661 -19.414  0.00  0.00    +0.069 C 
BRANCH  20  21
ATOM     21  C   UNL     1      31.838  -7.167 -19.089  0.00  0.00    +0.101 C 
BRANCH  21  22
ATOM     22  N   UNL     1      32.099  -6.309 -20.239  0.00  0.00    -0.268 N 
ATOM     23  N   UNL     1      33.046  -5.562 -22.086  0.00  0.00    -0.225 NA
ATOM     24  C   UNL     1      31.419  -5.177 -20.554  0.00  0.00    +0.088 C 
ATOM     25  C   UNL     1      33.063  -6.509 -21.175  0.00  0.00    +0.168 C 
ATOM     26  C   UNL     1      32.024  -4.729 -21.705  0.00  0.00    +0.117 C 
ENDBRANCH  21  22
ENDBRANCH  20  21
ENDBRANCH  19  20
ENDBRANCH  18  19
ENDBRANCH  13  18
ENDBRANCH   1  12
BRANCH   3  27
ATOM     27  C   UNL     1      34.920 -16.622 -22.359  0.00  0.00    +0.077 C 
ATOM     28  C   UNL     1      35.215 -17.498 -21.131  0.00  0.00    +0.020 C 
ATOM     29  C   UNL     1      34.104 -17.499 -23.328  0.00  0.00    +0.020 C 
ATOM     30  C   UNL     1      34.980 -18.923 -21.612  0.00  0.00    +0.002 C 
ATOM     31  C   UNL     1      33.800 -18.781 -22.559  0.00  0.00    +0.002 C 
ENDBRANCH   3  27
BRANCH  11  33
ATOM     32  N   UNL     1      33.140 -13.268 -27.347  0.00  0.00    -0.178 NA
ATOM     33  C   UNL     1      33.186 -13.312 -26.182  0.00  0.00    +0.198 C 
ENDBRANCH  11  33
TORSDOF 8
ENDMDL
MODEL 9
REMARK VINA RESULT:      -8.4      2.053      6.629
REMARK  Name = 11464526
REMARK  8 active torsions:
REMARK  status: ('A' for Active; 'I' for Inactive)
REMARK    1  A    between atoms: N_1  and  C_19
REMARK    2  A    between atoms: N_3  and  C_12
REMARK    3  A    between atoms: C_11  and  C_18
REMARK    4  A    between atoms: C_20  and  O_25
REMARK    5  A    between atoms: O_25  and  C_26
REMARK    6  A    between atoms: C_26  and  C_27
REMARK    7  A    between atoms: C_27  and  C_28
REMARK    8  A    between atoms: C_28  and  N_29
REMARK                            x       y       z     vdW  Elec       q    Type
REMARK                         _______ _______ _______ _____ _____    ______ ____
ROOT
ATOM      1  N   UNL     1      34.447 -23.521 -15.280  0.00  0.00    -0.284 N 
ATOM      2  H   UNL     1      33.649 -24.005 -15.592  0.00  0.00    +0.155 HD
ATOM      3  N   UNL     1      34.095 -21.518 -19.421  0.00  0.00    -0.262 N 
ATOM      4  N   UNL     1      33.222 -23.012 -18.017  0.00  0.00    -0.240 NA
ATOM      5  N   UNL     1      35.961 -20.725 -18.082  0.00  0.00    -0.315 NA
ATOM      6  N   UNL     1      36.042 -21.856 -15.921  0.00  0.00    -0.315 NA
ATOM      7  C   UNL     1      34.881 -21.490 -18.305  0.00  0.00    +0.219 C 
ATOM      8  C   UNL     1      33.113 -22.446 -19.201  0.00  0.00    +0.222 C 
ATOM      9  C   UNL     1      34.323 -22.424 -17.446  0.00  0.00    +0.168 C 
ATOM     10  C   UNL     1      34.945 -22.595 -16.213  0.00  0.00    +0.218 C 
ATOM     11  C   UNL     1      36.475 -20.980 -16.859  0.00  0.00    +0.215 C 
ENDROOT
BRANCH   1  12
ATOM     12  C   UNL     1      34.865 -23.894 -13.984  0.00  0.00    +0.085 C 
ATOM     13  C   UNL     1      34.027 -23.701 -12.886  0.00  0.00    +0.152 C 
ATOM     14  C   UNL     1      36.126 -24.461 -13.807  0.00  0.00    +0.018 C 
ATOM     15  C   UNL     1      34.452 -24.075 -11.610  0.00  0.00    +0.038 C 
ATOM     16  C   UNL     1      36.551 -24.835 -12.532  0.00  0.00    +0.001 C 
ATOM     17  C   UNL     1      35.714 -24.642 -11.434  0.00  0.00    +0.003 C 
BRANCH  13  18
ATOM     18  O   UNL     1      32.789 -23.149 -13.036  0.00  0.00    -0.474 OA
BRANCH  18  19
ATOM     19  C   UNL     1      31.714 -24.040 -13.323  0.00  0.00    +0.207 C 
BRANCH  19  20
ATOM     20  C   UNL     1      30.731 -23.336 -14.251  0.00  0.00    +0.069 C 
BRANCH  20  21
ATOM     21  C   UNL     1      29.467 -24.151 -14.526  0.00  0.00    +0.101 C 
BRANCH  21  22
ATOM     22  N   UNL     1      28.536 -23.501 -15.439  0.00  0.00    -0.268 N 
ATOM     23  N   UNL     1      27.125 -23.247 -17.117  0.00  0.00    -0.225 NA
ATOM     24  C   UNL     1      28.157 -22.198 -15.392  0.00  0.00    +0.088 C 
ATOM     25  C   UNL     1      27.900 -24.098 -16.482  0.00  0.00    +0.168 C 
ATOM     26  C   UNL     1      27.280 -22.061 -16.443  0.00  0.00    +0.117 C 
ENDBRANCH  21  22
ENDBRANCH  20  21
ENDBRANCH  19  20
ENDBRANCH  18  19
ENDBRANCH  13  18
ENDBRANCH   1  12
BRANCH   3  27
ATOM     27  C   UNL     1      34.262 -20.713 -20.629  0.00  0.00    +0.077 C 
ATOM     28  C   UNL     1      33.395 -19.443 -20.639  0.00  0.00    +0.020 C 
ATOM     29  C   UNL     1      35.708 -20.249 -20.891  0.00  0.00    +0.020 C 
ATOM     30  C   UNL     1      34.253 -18.400 -21.341  0.00  0.00    +0.002 C 
ATOM     31  C   UNL     1      35.658 -18.725 -20.862  0.00  0.00    +0.002 C 
ENDBRANCH   3  27
BRANCH  11  33
ATOM     32  N   UNL     1      38.578 -19.606 -16.221  0.00  0.00    -0.178 NA
ATOM     33  C   UNL     1      37.631 -20.225 -16.508  0.00  0.00    +0.198 C 
ENDBRANCH  11  33
TORSDOF 8
ENDMDL
