MODEL 1
REMARK VINA RESULT:     -11.1      0.000      0.000
REMARK  Name = 73571
REMARK  4 active torsions:
REMARK  status: ('A' for Active; 'I' for Inactive)
REMARK    1  A    between atoms: C_3  and  C_12
REMARK    2  A    between atoms: C_8  and  O_20
REMARK    3  A    between atoms: C_10  and  O_22
REMARK    4  A    between atoms: C_17  and  O_18
REMARK                            x       y       z     vdW  Elec       q    Type
REMARK                         _______ _______ _______ _____ _____    ______ ____
ROOT
ATOM      1  O   UNL     1      33.167 -13.131 -22.125  0.00  0.00    -0.474 OA
ATOM      2  O   UNL     1      32.996 -14.582 -25.958  0.00  0.00    -0.291 OA
ATOM      3  C   UNL     1      33.183 -12.238 -23.249  0.00  0.00    +0.196 C 
ATOM      4  C   UNL     1      32.413 -12.828 -24.428  0.00  0.00    +0.117 C 
ATOM      5  C   UNL     1      33.647 -14.917 -23.714  0.00  0.00    +0.103 C 
ATOM      6  C   UNL     1      33.037 -14.143 -24.815  0.00  0.00    +0.183 C 
ATOM      7  C   UNL     1      33.657 -14.376 -22.425  0.00  0.00    +0.148 C 
ATOM      8  C   UNL     1      34.168 -16.192 -23.948  0.00  0.00    +0.142 C 
ATOM      9  C   UNL     1      34.159 -15.126 -21.361  0.00  0.00    +0.074 C 
ATOM     10  C   UNL     1      34.678 -16.400 -21.592  0.00  0.00    +0.145 C 
ATOM     11  C   UNL     1      34.687 -16.930 -22.882  0.00  0.00    +0.074 C 
ENDROOT
BRANCH   3  12
ATOM     12  C   UNL     1      32.588 -10.913 -22.817  0.00  0.00    +0.018 C 
ATOM     13  C   UNL     1      31.513 -10.889 -21.928  0.00  0.00    +0.002 C 
ATOM     14  C   UNL     1      33.115  -9.720 -23.308  0.00  0.00    +0.002 C 
ATOM     15  C   UNL     1      30.965  -9.669 -21.531  0.00  0.00    +0.036 C 
ATOM     16  C   UNL     1      32.567  -8.501 -22.911  0.00  0.00    +0.036 C 
ATOM     17  C   UNL     1      31.491  -8.476 -22.023  0.00  0.00    +0.134 C 
BRANCH  17  18
ATOM     18  O   UNL     1      30.956  -7.286 -21.634  0.00  0.00    -0.506 OA
ATOM     19  H   UNL     1      30.113  -7.025 -21.949  0.00  0.00    +0.292 HD
ENDBRANCH  17  18
ENDBRANCH   3  12
BRANCH   8  20
ATOM     20  O   UNL     1      34.187 -16.764 -25.184  0.00  0.00    -0.505 OA
ATOM     21  H   UNL     1      34.330 -17.686 -25.271  0.00  0.00    +0.292 HD
ENDBRANCH   8  20
BRANCH  10  22
ATOM     22  O   UNL     1      35.179 -17.128 -20.555  0.00  0.00    -0.471 OA
ATOM     23  C   UNL     1      35.994 -18.252 -20.886  0.00  0.00    +0.252 C 
ENDBRANCH  10  22
TORSDOF 4
ENDMDL
MODEL 2
REMARK VINA RESULT:     -10.9      2.455      7.960
REMARK  Name = 73571
REMARK  4 active torsions:
REMARK  status: ('A' for Active; 'I' for Inactive)
REMARK    1  A    between atoms: C_3  and  C_12
REMARK    2  A    between atoms: C_8  and  O_20
REMARK    3  A    between atoms: C_10  and  O_22
REMARK    4  A    between atoms: C_17  and  O_18
REMARK                            x       y       z     vdW  Elec       q    Type
REMARK                         _______ _______ _______ _____ _____    ______ ____
ROOT
ATOM      1  O   UNL     1      34.430 -17.338 -21.072  0.00  0.00    -0.474 OA
ATOM      2  O   UNL     1      33.746 -18.226 -25.018  0.00  0.00    -0.291 OA
ATOM      3  C   UNL     1      33.875 -18.607 -21.454  0.00  0.00    +0.196 C 
ATOM      4  C   UNL     1      34.361 -19.022 -22.840  0.00  0.00    +0.117 C 
ATOM      5  C   UNL     1      33.899 -16.584 -23.329  0.00  0.00    +0.103 C 
ATOM      6  C   UNL     1      33.957 -17.969 -23.839  0.00  0.00    +0.183 C 
ATOM      7  C   UNL     1      34.161 -16.344 -21.978  0.00  0.00    +0.148 C 
ATOM      8  C   UNL     1      33.629 -15.521 -24.195  0.00  0.00    +0.142 C 
ATOM      9  C   UNL     1      34.187 -15.034 -21.497  0.00  0.00    +0.074 C 
ATOM     10  C   UNL     1      33.919 -13.972 -22.360  0.00  0.00    +0.145 C 
ATOM     11  C   UNL     1      33.636 -14.214 -23.703  0.00  0.00    +0.074 C 
ENDROOT
BRANCH   3  12
ATOM     12  C   UNL     1      34.263 -19.633 -20.409  0.00  0.00    +0.018 C 
ATOM     13  C   UNL     1      33.278 -20.397 -19.785  0.00  0.00    +0.002 C 
ATOM     14  C   UNL     1      35.604 -19.812 -20.073  0.00  0.00    +0.002 C 
ATOM     15  C   UNL     1      33.635 -21.342 -18.822  0.00  0.00    +0.036 C 
ATOM     16  C   UNL     1      35.961 -20.756 -19.110  0.00  0.00    +0.036 C 
ATOM     17  C   UNL     1      34.976 -21.520 -18.485  0.00  0.00    +0.134 C 
BRANCH  17  18
ATOM     18  O   UNL     1      35.323 -22.443 -17.546  0.00  0.00    -0.506 OA
ATOM     19  H   UNL     1      35.213 -23.356 -17.723  0.00  0.00    +0.292 HD
ENDBRANCH  17  18
ENDBRANCH   3  12
BRANCH   8  20
ATOM     20  O   UNL     1      33.363 -15.699 -25.519  0.00  0.00    -0.505 OA
ATOM     21  H   UNL     1      33.730 -15.114 -26.153  0.00  0.00    +0.292 HD
ENDBRANCH   8  20
BRANCH  10  22
ATOM     22  O   UNL     1      33.933 -12.694 -21.888  0.00  0.00    -0.471 OA
ATOM     23  C   UNL     1      32.790 -11.887 -22.169  0.00  0.00    +0.252 C 
ENDBRANCH  10  22
TORSDOF 4
ENDMDL
MODEL 3
REMARK VINA RESULT:     -10.5      6.650     12.140
REMARK  Name = 73571
REMARK  4 active torsions:
REMARK  status: ('A' for Active; 'I' for Inactive)
REMARK    1  A    between atoms: C_3  and  C_12
REMARK    2  A    between atoms: C_8  and  O_20
REMARK    3  A    between atoms: C_10  and  O_22
REMARK    4  A    between atoms: C_17  and  O_18
REMARK                            x       y       z     vdW  Elec       q    Type
REMARK                         _______ _______ _______ _____ _____    ______ ____
ROOT
ATOM      1  O   UNL     1      35.655 -21.975 -17.642  0.00  0.00    -0.474 OA
ATOM      2  O   UNL     1      31.571 -22.115 -17.997  0.00  0.00    -0.291 OA
ATOM      3  C   UNL     1      34.828 -22.238 -16.498  0.00  0.00    +0.196 C 
ATOM      4  C   UNL     1      33.539 -22.947 -16.906  0.00  0.00    +0.117 C 
ATOM      5  C   UNL     1      33.623 -21.240 -18.770  0.00  0.00    +0.103 C 
ATOM      6  C   UNL     1      32.791 -22.084 -17.888  0.00  0.00    +0.183 C 
ATOM      7  C   UNL     1      35.011 -21.251 -18.612  0.00  0.00    +0.148 C 
ATOM      8  C   UNL     1      33.034 -20.474 -19.780  0.00  0.00    +0.142 C 
ATOM      9  C   UNL     1      35.816 -20.520 -19.487  0.00  0.00    +0.074 C 
ATOM     10  C   UNL     1      35.230 -19.756 -20.496  0.00  0.00    +0.145 C 
ATOM     11  C   UNL     1      33.843 -19.729 -20.639  0.00  0.00    +0.074 C 
ENDROOT
BRANCH   3  12
ATOM     12  C   UNL     1      35.621 -23.071 -15.513  0.00  0.00    +0.018 C 
ATOM     13  C   UNL     1      36.989 -22.849 -15.357  0.00  0.00    +0.002 C 
ATOM     14  C   UNL     1      34.984 -24.060 -14.766  0.00  0.00    +0.002 C 
ATOM     15  C   UNL     1      37.720 -23.618 -14.450  0.00  0.00    +0.036 C 
ATOM     16  C   UNL     1      35.715 -24.828 -13.860  0.00  0.00    +0.036 C 
ATOM     17  C   UNL     1      37.083 -24.607 -13.703  0.00  0.00    +0.134 C 
BRANCH  17  18
ATOM     18  O   UNL     1      37.798 -25.356 -12.818  0.00  0.00    -0.506 OA
ATOM     19  H   UNL     1      38.286 -26.097 -13.118  0.00  0.00    +0.292 HD
ENDBRANCH  17  18
ENDBRANCH   3  12
BRANCH   8  20
ATOM     20  O   UNL     1      31.687 -20.425 -19.975  0.00  0.00    -0.505 OA
ATOM     21  H   UNL     1      31.172 -19.781 -19.529  0.00  0.00    +0.292 HD
ENDBRANCH   8  20
BRANCH  10  22
ATOM     22  O   UNL     1      36.015 -19.033 -21.343  0.00  0.00    -0.471 OA
ATOM     23  C   UNL     1      35.633 -17.680 -21.585  0.00  0.00    +0.252 C 
ENDBRANCH  10  22
TORSDOF 4
ENDMDL
MODEL 4
REMARK VINA RESULT:     -10.5      6.171     10.061
REMARK  Name = 73571
REMARK  4 active torsions:
REMARK  status: ('A' for Active; 'I' for Inactive)
REMARK    1  A    between atoms: C_3  and  C_12
REMARK    2  A    between atoms: C_8  and  O_20
REMARK    3  A    between atoms: C_10  and  O_22
REMARK    4  A    between atoms: C_17  and  O_18
REMARK                            x       y       z     vdW  Elec       q    Type
REMARK                         _______ _______ _______ _____ _____    ______ ____
ROOT
ATOM      1  O   UNL     1      35.740 -20.756 -18.229  0.00  0.00    -0.474 OA
ATOM      2  O   UNL     1      32.278 -22.840 -17.522  0.00  0.00    -0.291 OA
ATOM      3  C   UNL     1      34.820 -21.034 -19.296  0.00  0.00    +0.196 C 
ATOM      4  C   UNL     1      33.388 -21.121 -18.775  0.00  0.00    +0.117 C 
ATOM      5  C   UNL     1      34.526 -22.427 -16.933  0.00  0.00    +0.103 C 
ATOM      6  C   UNL     1      33.306 -22.209 -17.736  0.00  0.00    +0.183 C 
ATOM      7  C   UNL     1      35.669 -21.671 -17.210  0.00  0.00    +0.148 C 
ATOM      8  C   UNL     1      34.527 -23.345 -15.880  0.00  0.00    +0.142 C 
ATOM      9  C   UNL     1      36.804 -21.810 -16.411  0.00  0.00    +0.074 C 
ATOM     10  C   UNL     1      36.806 -22.724 -15.358  0.00  0.00    +0.145 C 
ATOM     11  C   UNL     1      35.673 -23.494 -15.096  0.00  0.00    +0.074 C 
ENDROOT
BRANCH   3  12
ATOM     12  C   UNL     1      34.956 -19.947 -20.342  0.00  0.00    +0.018 C 
ATOM     13  C   UNL     1      36.143 -19.222 -20.442  0.00  0.00    +0.002 C 
ATOM     14  C   UNL     1      33.894 -19.672 -21.202  0.00  0.00    +0.002 C 
ATOM     15  C   UNL     1      36.267 -18.220 -21.404  0.00  0.00    +0.036 C 
ATOM     16  C   UNL     1      34.019 -18.670 -22.164  0.00  0.00    +0.036 C 
ATOM     17  C   UNL     1      35.206 -17.943 -22.265  0.00  0.00    +0.134 C 
BRANCH  17  18
ATOM     18  O   UNL     1      35.329 -16.966 -23.204  0.00  0.00    -0.506 OA
ATOM     19  H   UNL     1      36.036 -16.353 -23.154  0.00  0.00    +0.292 HD
ENDBRANCH  17  18
ENDBRANCH   3  12
BRANCH   8  20
ATOM     20  O   UNL     1      33.443 -24.109 -15.569  0.00  0.00    -0.505 OA
ATOM     21  H   UNL     1      33.155 -24.776 -16.161  0.00  0.00    +0.292 HD
ENDBRANCH   8  20
BRANCH  10  22
ATOM     22  O   UNL     1      37.919 -22.868 -14.585  0.00  0.00    -0.471 OA
ATOM     23  C   UNL     1      38.265 -24.194 -14.187  0.00  0.00    +0.252 C 
ENDBRANCH  10  22
TORSDOF 4
ENDMDL
MODEL 5
REMARK VINA RESULT:     -10.4      5.305      8.820
REMARK  Name = 73571
REMARK  4 active torsions:
REMARK  status: ('A' for Active; 'I' for Inactive)
REMARK    1  A    between atoms: C_3  and  C_12
REMARK    2  A    between atoms: C_8  and  O_20
REMARK    3  A    between atoms: C_10  and  O_22
REMARK    4  A    between atoms: C_17  and  O_18
REMARK                            x       y       z     vdW  Elec       q    Type
REMARK                         _______ _______ _______ _____ _____    ______ ____
ROOT
ATOM      1  O   UNL     1      35.240 -19.957 -19.351  0.00  0.00    -0.474 OA
ATOM      2  O   UNL     1      31.794 -22.016 -18.507  0.00  0.00    -0.291 OA
ATOM      3  C   UNL     1      34.264 -20.204 -20.374  0.00  0.00    +0.196 C 
ATOM      4  C   UNL     1      32.858 -20.285 -19.782  0.00  0.00    +0.117 C 
ATOM      5  C   UNL     1      34.074 -21.640 -18.027  0.00  0.00    +0.103 C 
ATOM      6  C   UNL     1      32.817 -21.392 -18.762  0.00  0.00    +0.183 C 
ATOM      7  C   UNL     1      35.210 -20.892 -18.348  0.00  0.00    +0.148 C 
ATOM      8  C   UNL     1      34.118 -22.579 -16.993  0.00  0.00    +0.142 C 
ATOM      9  C   UNL     1      36.383 -21.059 -17.611  0.00  0.00    +0.074 C 
ATOM     10  C   UNL     1      36.428 -21.995 -16.578  0.00  0.00    +0.145 C 
ATOM     11  C   UNL     1      35.300 -22.757 -16.273  0.00  0.00    +0.074 C 
ENDROOT
BRANCH   3  12
ATOM     12  C   UNL     1      34.359 -19.097 -21.404  0.00  0.00    +0.018 C 
ATOM     13  C   UNL     1      33.816 -19.280 -22.675  0.00  0.00    +0.002 C 
ATOM     14  C   UNL     1      34.990 -17.897 -21.080  0.00  0.00    +0.002 C 
ATOM     15  C   UNL     1      33.905 -18.261 -23.624  0.00  0.00    +0.036 C 
ATOM     16  C   UNL     1      35.079 -16.878 -22.029  0.00  0.00    +0.036 C 
ATOM     17  C   UNL     1      34.537 -17.061 -23.301  0.00  0.00    +0.134 C 
BRANCH  17  18
ATOM     18  O   UNL     1      34.622 -16.067 -24.227  0.00  0.00    -0.506 OA
ATOM     19  H   UNL     1      34.565 -16.271 -25.140  0.00  0.00    +0.292 HD
ENDBRANCH  17  18
ENDBRANCH   3  12
BRANCH   8  20
ATOM     20  O   UNL     1      33.042 -23.338 -16.642  0.00  0.00    -0.505 OA
ATOM     21  H   UNL     1      32.218 -22.928 -16.463  0.00  0.00    +0.292 HD
ENDBRANCH   8  20
BRANCH  10  22
ATOM     22  O   UNL     1      37.577 -22.167 -15.866  0.00  0.00    -0.471 OA
ATOM     23  C   UNL     1      37.611 -23.253 -14.942  0.00  0.00    +0.252 C 
ENDBRANCH  10  22
TORSDOF 4
ENDMDL
MODEL 6
REMARK VINA RESULT:     -10.3      8.188     12.531
REMARK  Name = 73571
REMARK  4 active torsions:
REMARK  status: ('A' for Active; 'I' for Inactive)
REMARK    1  A    between atoms: C_3  and  C_12
REMARK    2  A    between atoms: C_8  and  O_20
REMARK    3  A    between atoms: C_10  and  O_22
REMARK    4  A    between atoms: C_17  and  O_18
REMARK                            x       y       z     vdW  Elec       q    Type
REMARK                         _______ _______ _______ _____ _____    ______ ____
ROOT
ATOM      1  O   UNL     1      35.832 -22.454 -16.288  0.00  0.00    -0.474 OA
ATOM      2  O   UNL     1      32.922 -23.717 -13.687  0.00  0.00    -0.291 OA
ATOM      3  C   UNL     1      34.503 -22.736 -16.754  0.00  0.00    +0.196 C 
ATOM      4  C   UNL     1      33.471 -22.469 -15.660  0.00  0.00    +0.117 C 
ATOM      5  C   UNL     1      35.214 -23.630 -14.243  0.00  0.00    +0.103 C 
ATOM      6  C   UNL     1      33.785 -23.331 -14.466  0.00  0.00    +0.183 C 
ATOM      7  C   UNL     1      36.160 -23.155 -15.156  0.00  0.00    +0.148 C 
ATOM      8  C   UNL     1      35.622 -24.341 -13.111  0.00  0.00    +0.142 C 
ATOM      9  C   UNL     1      37.519 -23.363 -14.918  0.00  0.00    +0.074 C 
ATOM     10  C   UNL     1      37.928 -24.071 -13.788  0.00  0.00    +0.145 C 
ATOM     11  C   UNL     1      36.982 -24.563 -12.890  0.00  0.00    +0.074 C 
ENDROOT
BRANCH   3  12
ATOM     12  C   UNL     1      34.234 -21.885 -17.978  0.00  0.00    +0.018 C 
ATOM     13  C   UNL     1      35.298 -21.328 -18.686  0.00  0.00    +0.002 C 
ATOM     14  C   UNL     1      32.923 -21.659 -18.393  0.00  0.00    +0.002 C 
ATOM     15  C   UNL     1      35.050 -20.544 -19.813  0.00  0.00    +0.036 C 
ATOM     16  C   UNL     1      32.675 -20.874 -19.520  0.00  0.00    +0.036 C 
ATOM     17  C   UNL     1      33.739 -20.316 -20.229  0.00  0.00    +0.134 C 
BRANCH  17  18
ATOM     18  O   UNL     1      33.499 -19.551 -21.329  0.00  0.00    -0.506 OA
ATOM     19  H   UNL     1      33.294 -18.642 -21.233  0.00  0.00    +0.292 HD
ENDBRANCH  17  18
ENDBRANCH   3  12
BRANCH   8  20
ATOM     20  O   UNL     1      34.742 -24.830 -12.193  0.00  0.00    -0.505 OA
ATOM     21  H   UNL     1      34.869 -25.686 -11.832  0.00  0.00    +0.292 HD
ENDBRANCH   8  20
BRANCH  10  22
ATOM     22  O   UNL     1      39.255 -24.283 -13.563  0.00  0.00    -0.471 OA
ATOM     23  C   UNL     1      39.886 -25.310 -14.326  0.00  0.00    +0.252 C 
ENDBRANCH  10  22
TORSDOF 4
ENDMDL
MODEL 7
REMARK VINA RESULT:     -10.3      7.312     11.590
REMARK  Name = 73571
REMARK  4 active torsions:
REMARK  status: ('A' for Active; 'I' for Inactive)
REMARK    1  A    between atoms: C_3  and  C_12
REMARK    2  A    between atoms: C_8  and  O_20
REMARK    3  A    between atoms: C_10  and  O_22
REMARK    4  A    between atoms: C_17  and  O_18
REMARK                            x       y       z     vdW  Elec       q    Type
REMARK                         _______ _______ _______ _____ _____    ______ ____
ROOT
ATOM      1  O   UNL     1      35.260 -21.832 -16.955  0.00  0.00    -0.474 OA
ATOM      2  O   UNL     1      31.932 -23.615 -15.348  0.00  0.00    -0.291 OA
ATOM      3  C   UNL     1      34.144 -22.188 -17.786  0.00  0.00    +0.196 C 
ATOM      4  C   UNL     1      32.836 -22.129 -17.001  0.00  0.00    +0.117 C 
ATOM      5  C   UNL     1      34.264 -23.260 -15.247  0.00  0.00    +0.103 C 
ATOM      6  C   UNL     1      32.920 -23.074 -15.831  0.00  0.00    +0.183 C 
ATOM      7  C   UNL     1      35.356 -22.609 -15.829  0.00  0.00    +0.148 C 
ATOM      8  C   UNL     1      34.437 -24.039 -14.101  0.00  0.00    +0.142 C 
ATOM      9  C   UNL     1      36.618 -22.712 -15.243  0.00  0.00    +0.074 C 
ATOM     10  C   UNL     1      36.793 -23.489 -14.098  0.00  0.00    +0.145 C 
ATOM     11  C   UNL     1      35.706 -24.155 -13.531  0.00  0.00    +0.074 C 
ENDROOT
BRANCH   3  12
ATOM     12  C   UNL     1      34.112 -21.247 -18.973  0.00  0.00    +0.018 C 
ATOM     13  C   UNL     1      35.304 -20.814 -19.550  0.00  0.00    +0.002 C 
ATOM     14  C   UNL     1      32.890 -20.816 -19.486  0.00  0.00    +0.002 C 
ATOM     15  C   UNL     1      35.274 -19.947 -20.643  0.00  0.00    +0.036 C 
ATOM     16  C   UNL     1      32.859 -19.949 -20.578  0.00  0.00    +0.036 C 
ATOM     17  C   UNL     1      34.052 -19.514 -21.156  0.00  0.00    +0.134 C 
BRANCH  17  18
ATOM     18  O   UNL     1      34.024 -18.668 -22.223  0.00  0.00    -0.506 OA
ATOM     19  H   UNL     1      33.475 -18.859 -22.958  0.00  0.00    +0.292 HD
ENDBRANCH  17  18
ENDBRANCH   3  12
BRANCH   8  20
ATOM     20  O   UNL     1      33.409 -24.697 -13.496  0.00  0.00    -0.505 OA
ATOM     21  H   UNL     1      32.545 -24.334 -13.514  0.00  0.00    +0.292 HD
ENDBRANCH   8  20
BRANCH  10  22
ATOM     22  O   UNL     1      38.027 -23.598 -13.533  0.00  0.00    -0.471 OA
ATOM     23  C   UNL     1      38.451 -24.905 -13.150  0.00  0.00    +0.252 C 
ENDBRANCH  10  22
TORSDOF 4
ENDMDL
MODEL 8
REMARK VINA RESULT:     -10.2      1.822      7.314
REMARK  Name = 73571
REMARK  4 active torsions:
REMARK  status: ('A' for Active; 'I' for Inactive)
REMARK    1  A    between atoms: C_3  and  C_12
REMARK    2  A    between atoms: C_8  and  O_20
REMARK    3  A    between atoms: C_10  and  O_22
REMARK    4  A    between atoms: C_17  and  O_18
REMARK                            x       y       z     vdW  Elec       q    Type
REMARK                         _______ _______ _______ _____ _____    ______ ____
ROOT
ATOM      1  O   UNL     1      34.057 -15.783 -21.280  0.00  0.00    -0.474 OA
ATOM      2  O   UNL     1      34.053 -15.524 -25.374  0.00  0.00    -0.291 OA
ATOM      3  C   UNL     1      33.977 -16.966 -22.090  0.00  0.00    +0.196 C 
ATOM      4  C   UNL     1      34.694 -16.766 -23.424  0.00  0.00    +0.117 C 
ATOM      5  C   UNL     1      33.517 -14.531 -23.301  0.00  0.00    +0.103 C 
ATOM      6  C   UNL     1      34.064 -15.607 -24.152  0.00  0.00    +0.183 C 
ATOM      7  C   UNL     1      33.565 -14.670 -21.911  0.00  0.00    +0.148 C 
ATOM      8  C   UNL     1      32.998 -13.368 -23.876  0.00  0.00    +0.142 C 
ATOM      9  C   UNL     1      33.124 -13.628 -21.094  0.00  0.00    +0.074 C 
ATOM     10  C   UNL     1      32.606 -12.466 -21.665  0.00  0.00    +0.145 C 
ATOM     11  C   UNL     1      32.539 -12.338 -23.053  0.00  0.00    +0.074 C 
ENDROOT
BRANCH   3  12
ATOM     12  C   UNL     1      34.580 -18.119 -21.314  0.00  0.00    +0.018 C 
ATOM     13  C   UNL     1      33.765 -19.160 -20.870  0.00  0.00    +0.002 C 
ATOM     14  C   UNL     1      35.947 -18.138 -21.045  0.00  0.00    +0.002 C 
ATOM     15  C   UNL     1      34.320 -20.222 -20.155  0.00  0.00    +0.036 C 
ATOM     16  C   UNL     1      36.502 -19.199 -20.330  0.00  0.00    +0.036 C 
ATOM     17  C   UNL     1      35.688 -20.241 -19.884  0.00  0.00    +0.134 C 
BRANCH  17  18
ATOM     18  O   UNL     1      36.228 -21.278 -19.187  0.00  0.00    -0.506 OA
ATOM     19  H   UNL     1      37.012 -21.690 -19.492  0.00  0.00    +0.292 HD
ENDBRANCH  17  18
ENDBRANCH   3  12
BRANCH   8  20
ATOM     20  O   UNL     1      32.924 -13.182 -25.224  0.00  0.00    -0.505 OA
ATOM     21  H   UNL     1      32.091 -13.197 -25.653  0.00  0.00    +0.292 HD
ENDBRANCH   8  20
BRANCH  10  22
ATOM     22  O   UNL     1      32.165 -11.455 -20.867  0.00  0.00    -0.471 OA
ATOM     23  C   UNL     1      30.870 -10.925 -21.148  0.00  0.00    +0.252 C 
ENDBRANCH  10  22
TORSDOF 4
ENDMDL
MODEL 9
REMARK VINA RESULT:     -10.1      7.800     12.039
REMARK  Name = 73571
REMARK  4 active torsions:
REMARK  status: ('A' for Active; 'I' for Inactive)
REMARK    1  A    between atoms: C_3  and  C_12
REMARK    2  A    between atoms: C_8  and  O_20
REMARK    3  A    between atoms: C_10  and  O_22
REMARK    4  A    between atoms: C_17  and  O_18
REMARK                            x       y       z     vdW  Elec       q    Type
REMARK                         _______ _______ _______ _____ _____    ______ ____
ROOT
ATOM      1  O   UNL     1      34.634 -22.005 -16.279  0.00  0.00    -0.474 OA
ATOM      2  O   UNL     1      31.146 -23.703 -14.945  0.00  0.00    -0.291 OA
ATOM      3  C   UNL     1      33.621 -22.425 -17.205  0.00  0.00    +0.196 C 
ATOM      4  C   UNL     1      32.231 -22.324 -16.581  0.00  0.00    +0.117 C 
ATOM      5  C   UNL     1      33.451 -23.322 -14.602  0.00  0.00    +0.103 C 
ATOM      6  C   UNL     1      32.182 -23.188 -15.347  0.00  0.00    +0.183 C 
ATOM      7  C   UNL     1      34.601 -22.704 -15.099  0.00  0.00    +0.148 C 
ATOM      8  C   UNL     1      33.492 -24.022 -13.394  0.00  0.00    +0.142 C 
ATOM      9  C   UNL     1      35.789 -22.756 -14.368  0.00  0.00    +0.074 C 
ATOM     10  C   UNL     1      35.832 -23.453 -13.160  0.00  0.00    +0.145 C 
ATOM     11  C   UNL     1      34.688 -24.088 -12.677  0.00  0.00    +0.074 C 
ENDROOT
BRANCH   3  12
ATOM     12  C   UNL     1      33.724 -21.567 -18.449  0.00  0.00    +0.018 C 
ATOM     13  C   UNL     1      32.566 -21.117 -19.083  0.00  0.00    +0.002 C 
ATOM     14  C   UNL     1      34.976 -21.229 -18.960  0.00  0.00    +0.002 C 
ATOM     15  C   UNL     1      32.661 -20.328 -20.229  0.00  0.00    +0.036 C 
ATOM     16  C   UNL     1      35.071 -20.440 -20.106  0.00  0.00    +0.036 C 
ATOM     17  C   UNL     1      33.913 -19.990 -20.741  0.00  0.00    +0.134 C 
BRANCH  17  18
ATOM     18  O   UNL     1      34.005 -19.218 -21.859  0.00  0.00    -0.506 OA
ATOM     19  H   UNL     1      33.601 -19.499 -22.657  0.00  0.00    +0.292 HD
ENDBRANCH  17  18
ENDBRANCH   3  12
BRANCH   8  20
ATOM     20  O   UNL     1      32.402 -24.646 -12.867  0.00  0.00    -0.505 OA
ATOM     21  H   UNL     1      31.900 -24.226 -12.196  0.00  0.00    +0.292 HD
ENDBRANCH   8  20
BRANCH  10  22
ATOM     22  O   UNL     1      36.994 -23.514 -12.452  0.00  0.00    -0.471 OA
ATOM     23  C   UNL     1      37.483 -24.812 -12.120  0.00  0.00    +0.252 C 
ENDBRANCH  10  22
TORSDOF 4
ENDMDL
