MODEL 1
REMARK VINA RESULT:     -13.4      0.000      0.000
REMARK  Name = 6852168
REMARK  5 active torsions:
REMARK  status: ('A' for Active; 'I' for Inactive)
REMARK    1  A    between atoms: N_1  and  C_5
REMARK    2  A    between atoms: N_1  and  S_19
REMARK    3  A    between atoms: N_4  and  C_9
REMARK    4  A    between atoms: C_9  and  C_14
REMARK    5  A    between atoms: S_19  and  C_23
REMARK                            x       y       z     vdW  Elec       q    Type
REMARK                         _______ _______ _______ _____ _____    ______ ____
ROOT
ATOM      1  N   UNL     1      34.081 -16.947 -22.079  0.00  0.00    -0.172 NA
ATOM      2  H   UNL     1      34.033 -16.912 -21.061  0.00  0.00    +0.149 HD
ENDROOT
BRANCH   1   5
ATOM      3  O   UNL     1      34.167 -14.294 -20.608  0.00  0.00    -0.273 OA
ATOM      4  N   UNL     1      33.108 -13.990 -22.688  0.00  0.00    -0.272 N 
ATOM      5  C   UNL     1      34.705 -15.686 -22.518  0.00  0.00    +0.153 C 
ATOM      6  C   UNL     1      34.416 -15.407 -23.988  0.00  0.00    +0.048 C 
ATOM      7  C   UNL     1      33.102 -14.647 -23.974  0.00  0.00    +0.096 C 
ATOM      8  C   UNL     1      33.998 -14.572 -21.787  0.00  0.00    +0.242 C 
BRANCH   4   9
ATOM      9  C   UNL     1      32.159 -12.946 -22.368  0.00  0.00    +0.152 C 
ATOM     10  C   UNL     1      31.940 -12.803 -20.880  0.00  0.00    +0.031 C 
BRANCH   9  14
ATOM     11  O   UNL     1      30.684  -8.118 -22.396  0.00  0.00    -0.350 OA
ATOM     12  O   UNL     1      33.724 -11.787 -23.720  0.00  0.00    -0.273 OA
ATOM     13  N   UNL     1      32.204 -10.485 -22.543  0.00  0.00    -0.273 N 
ATOM     14  C   UNL     1      32.772 -11.693 -22.940  0.00  0.00    +0.244 C 
ATOM     15  C   UNL     1      31.160 -10.331 -21.524  0.00  0.00    +0.126 C 
ATOM     16  C   UNL     1      32.735  -9.222 -23.054  0.00  0.00    +0.126 C 
ATOM     17  C   UNL     1      30.091  -9.359 -22.008  0.00  0.00    +0.164 C 
ATOM     18  C   UNL     1      31.600  -8.302 -23.478  0.00  0.00    +0.164 C 
ENDBRANCH   9  14
ENDBRANCH   4   9
ENDBRANCH   1   5
BRANCH   1  19
ATOM     19  S   UNL     1      34.795 -18.439 -22.486  0.00  0.00    +0.061 S 
ATOM     20  O   UNL     1      36.238 -18.311 -22.425  0.00  0.00    -0.153 OA
ATOM     21  O   UNL     1      34.158 -18.958 -23.682  0.00  0.00    -0.153 OA
BRANCH  19  23
ATOM     22 CL   UNL     1      33.520 -23.406 -15.749  0.00  0.00    -0.082 Cl
ATOM     23  C   UNL     1      34.280 -19.465 -21.142  0.00  0.00    +0.122 C 
ATOM     24  C   UNL     1      35.232 -19.960 -20.267  0.00  0.00    +0.020 C 
ATOM     25  C   UNL     1      32.938 -19.754 -20.990  0.00  0.00    +0.020 C 
ATOM     26  C   UNL     1      34.839 -20.777 -19.194  0.00  0.00    +0.001 C 
ATOM     27  C   UNL     1      33.468 -21.083 -19.022  0.00  0.00    +0.001 C 
ATOM     28  C   UNL     1      32.530 -20.562 -19.930  0.00  0.00    +0.001 C 
ATOM     29  C   UNL     1      35.777 -21.295 -18.287  0.00  0.00    +0.001 C 
ATOM     30  C   UNL     1      33.076 -21.899 -17.950  0.00  0.00    +0.011 C 
ATOM     31  C   UNL     1      35.369 -22.105 -17.226  0.00  0.00    +0.011 C 
ATOM     32  C   UNL     1      34.021 -22.407 -17.059  0.00  0.00    +0.058 C 
ENDBRANCH  19  23
ENDBRANCH   1  19
TORSDOF 5
ENDMDL
MODEL 2
REMARK VINA RESULT:     -12.8      4.112      6.522
REMARK  Name = 6852168
REMARK  5 active torsions:
REMARK  status: ('A' for Active; 'I' for Inactive)
REMARK    1  A    between atoms: N_1  and  C_5
REMARK    2  A    between atoms: N_1  and  S_19
REMARK    3  A    between atoms: N_4  and  C_9
REMARK    4  A    between atoms: C_9  and  C_14
REMARK    5  A    between atoms: S_19  and  C_23
REMARK                            x       y       z     vdW  Elec       q    Type
REMARK                         _______ _______ _______ _____ _____    ______ ____
ROOT
ATOM      1  N   UNL     1      32.486 -10.613 -21.926  0.00  0.00    -0.172 NA
ATOM      2  H   UNL     1      33.122  -9.816 -21.916  0.00  0.00    +0.149 HD
ENDROOT
BRANCH   1   5
ATOM      3  O   UNL     1      31.106  -8.525 -23.642  0.00  0.00    -0.273 OA
ATOM      4  N   UNL     1      31.187  -7.764 -21.417  0.00  0.00    -0.272 N 
ATOM      5  C   UNL     1      31.124 -10.071 -21.776  0.00  0.00    +0.153 C 
ATOM      6  C   UNL     1      30.802  -9.775 -20.315  0.00  0.00    +0.048 C 
ATOM      7  C   UNL     1      31.293  -8.355 -20.103  0.00  0.00    +0.096 C 
ATOM      8  C   UNL     1      31.119  -8.714 -22.434  0.00  0.00    +0.242 C 
BRANCH   4   9
ATOM      9  C   UNL     1      31.305  -6.336 -21.615  0.00  0.00    +0.152 C 
ATOM     10  C   UNL     1      31.170  -5.562 -20.324  0.00  0.00    +0.031 C 
BRANCH   9  14
ATOM     11  O   UNL     1      32.912  -5.181 -26.260  0.00  0.00    -0.350 OA
ATOM     12  O   UNL     1      33.670  -6.502 -21.555  0.00  0.00    -0.273 OA
ATOM     13  N   UNL     1      32.742  -5.590 -23.478  0.00  0.00    -0.273 N 
ATOM     14  C   UNL     1      32.681  -6.152 -22.205  0.00  0.00    +0.244 C 
ATOM     15  C   UNL     1      31.601  -5.046 -24.223  0.00  0.00    +0.126 C 
ATOM     16  C   UNL     1      34.037  -5.380 -24.126  0.00  0.00    +0.126 C 
ATOM     17  C   UNL     1      31.650  -5.510 -25.673  0.00  0.00    +0.164 C 
ATOM     18  C   UNL     1      33.983  -5.836 -25.577  0.00  0.00    +0.164 C 
ENDBRANCH   9  14
ENDBRANCH   4   9
ENDBRANCH   1   5
BRANCH   1  19
ATOM     19  S   UNL     1      32.888 -11.544 -23.294  0.00  0.00    +0.061 S 
ATOM     20  O   UNL     1      34.039 -10.955 -23.952  0.00  0.00    -0.153 OA
ATOM     21  O   UNL     1      31.681 -11.824 -24.049  0.00  0.00    -0.153 OA
BRANCH  19  23
ATOM     22 CL   UNL     1      35.415 -19.265 -20.914  0.00  0.00    -0.082 Cl
ATOM     23  C   UNL     1      33.400 -13.067 -22.558  0.00  0.00    +0.122 C 
ATOM     24  C   UNL     1      33.694 -14.146 -23.373  0.00  0.00    +0.020 C 
ATOM     25  C   UNL     1      33.496 -13.151 -21.183  0.00  0.00    +0.020 C 
ATOM     26  C   UNL     1      34.103 -15.363 -22.803  0.00  0.00    +0.001 C 
ATOM     27  C   UNL     1      34.208 -15.468 -21.395  0.00  0.00    +0.001 C 
ATOM     28  C   UNL     1      33.901 -14.351 -20.599  0.00  0.00    +0.001 C 
ATOM     29  C   UNL     1      34.410 -16.478 -23.599  0.00  0.00    +0.001 C 
ATOM     30  C   UNL     1      34.615 -16.684 -20.825  0.00  0.00    +0.011 C 
ATOM     31  C   UNL     1      34.814 -17.680 -23.015  0.00  0.00    +0.011 C 
ATOM     32  C   UNL     1      34.916 -17.782 -21.631  0.00  0.00    +0.058 C 
ENDBRANCH  19  23
ENDBRANCH   1  19
TORSDOF 5
ENDMDL
MODEL 3
REMARK VINA RESULT:     -12.6      4.468     10.429
REMARK  Name = 6852168
REMARK  5 active torsions:
REMARK  status: ('A' for Active; 'I' for Inactive)
REMARK    1  A    between atoms: N_1  and  C_5
REMARK    2  A    between atoms: N_1  and  S_19
REMARK    3  A    between atoms: N_4  and  C_9
REMARK    4  A    between atoms: C_9  and  C_14
REMARK    5  A    between atoms: S_19  and  C_23
REMARK                            x       y       z     vdW  Elec       q    Type
REMARK                         _______ _______ _______ _____ _____    ______ ____
ROOT
ATOM      1  N   UNL     1      34.291 -19.109 -20.555  0.00  0.00    -0.172 NA
ATOM      2  H   UNL     1      33.424 -18.711 -20.915  0.00  0.00    +0.149 HD
ENDROOT
BRANCH   1   5
ATOM      3  O   UNL     1      31.827 -20.760 -19.912  0.00  0.00    -0.273 OA
ATOM      4  N   UNL     1      33.592 -21.430 -18.508  0.00  0.00    -0.272 N 
ATOM      5  C   UNL     1      34.140 -20.574 -20.611  0.00  0.00    +0.153 C 
ATOM      6  C   UNL     1      35.354 -21.279 -20.018  0.00  0.00    +0.048 C 
ATOM      7  C   UNL     1      35.036 -21.394 -18.539  0.00  0.00    +0.096 C 
ATOM      8  C   UNL     1      33.014 -20.933 -19.674  0.00  0.00    +0.242 C 
BRANCH   4   9
ATOM      9  C   UNL     1      32.871 -21.799 -17.309  0.00  0.00    +0.152 C 
ATOM     10  C   UNL     1      31.374 -21.782 -17.510  0.00  0.00    +0.031 C 
BRANCH   9  14
ATOM     11  O   UNL     1      36.041 -23.632 -13.832  0.00  0.00    -0.350 OA
ATOM     12  O   UNL     1      33.124 -24.105 -17.798  0.00  0.00    -0.273 OA
ATOM     13  N   UNL     1      34.042 -23.361 -15.800  0.00  0.00    -0.273 N 
ATOM     14  C   UNL     1      33.352 -23.194 -16.998  0.00  0.00    +0.244 C 
ATOM     15  C   UNL     1      34.219 -22.332 -14.770  0.00  0.00    +0.126 C 
ATOM     16  C   UNL     1      34.547 -24.681 -15.423  0.00  0.00    +0.126 C 
ATOM     17  C   UNL     1      35.659 -22.326 -14.273  0.00  0.00    +0.164 C 
ATOM     18  C   UNL     1      35.974 -24.575 -14.905  0.00  0.00    +0.164 C 
ENDBRANCH   9  14
ENDBRANCH   4   9
ENDBRANCH   1   5
BRANCH   1  19
ATOM     19  S   UNL     1      35.564 -18.349 -21.392  0.00  0.00    +0.061 S 
ATOM     20  O   UNL     1      35.852 -19.094 -22.603  0.00  0.00    -0.153 OA
ATOM     21  O   UNL     1      36.628 -18.040 -20.456  0.00  0.00    -0.153 OA
BRANCH  19  23
ATOM     22 CL   UNL     1      31.776 -10.851 -22.435  0.00  0.00    -0.082 Cl
ATOM     23  C   UNL     1      34.825 -16.814 -21.859  0.00  0.00    +0.122 C 
ATOM     24  C   UNL     1      34.262 -16.010 -20.883  0.00  0.00    +0.020 C 
ATOM     25  C   UNL     1      34.822 -16.445 -23.190  0.00  0.00    +0.020 C 
ATOM     26  C   UNL     1      33.671 -14.787 -21.238  0.00  0.00    +0.001 C 
ATOM     27  C   UNL     1      33.659 -14.392 -22.597  0.00  0.00    +0.001 C 
ATOM     28  C   UNL     1      34.240 -15.233 -23.561  0.00  0.00    +0.001 C 
ATOM     29  C   UNL     1      33.091 -13.946 -20.273  0.00  0.00    +0.001 C 
ATOM     30  C   UNL     1      33.068 -13.169 -22.952  0.00  0.00    +0.011 C 
ATOM     31  C   UNL     1      32.508 -12.734 -20.644  0.00  0.00    +0.011 C 
ATOM     32  C   UNL     1      32.496 -12.346 -21.981  0.00  0.00    +0.058 C 
ENDBRANCH  19  23
ENDBRANCH   1  19
TORSDOF 5
ENDMDL
MODEL 4
REMARK VINA RESULT:     -12.0      7.389     12.239
REMARK  Name = 6852168
REMARK  5 active torsions:
REMARK  status: ('A' for Active; 'I' for Inactive)
REMARK    1  A    between atoms: N_1  and  C_5
REMARK    2  A    between atoms: N_1  and  S_19
REMARK    3  A    between atoms: N_4  and  C_9
REMARK    4  A    between atoms: C_9  and  C_14
REMARK    5  A    between atoms: S_19  and  C_23
REMARK                            x       y       z     vdW  Elec       q    Type
REMARK                         _______ _______ _______ _____ _____    ______ ____
ROOT
ATOM      1  N   UNL     1      34.433 -22.902 -16.705  0.00  0.00    -0.172 NA
ATOM      2  H   UNL     1      35.184 -22.500 -17.265  0.00  0.00    +0.149 HD
ENDROOT
BRANCH   1   5
ATOM      3  O   UNL     1      36.694 -22.084 -14.853  0.00  0.00    -0.273 OA
ATOM      4  N   UNL     1      35.113 -23.331 -13.636  0.00  0.00    -0.272 N 
ATOM      5  C   UNL     1      34.350 -22.102 -15.470  0.00  0.00    +0.153 C 
ATOM      6  C   UNL     1      33.163 -22.526 -14.613  0.00  0.00    +0.048 C 
ATOM      7  C   UNL     1      33.707 -23.645 -13.744  0.00  0.00    +0.096 C 
ATOM      8  C   UNL     1      35.553 -22.464 -14.634  0.00  0.00    +0.242 C 
BRANCH   4   9
ATOM      9  C   UNL     1      35.964 -23.999 -12.675  0.00  0.00    +0.152 C 
ATOM     10  C   UNL     1      35.192 -24.512 -11.481  0.00  0.00    +0.031 C 
BRANCH   9  14
ATOM     11  O   UNL     1      40.654 -24.901 -14.314  0.00  0.00    -0.350 OA
ATOM     12  O   UNL     1      35.838 -25.977 -13.977  0.00  0.00    -0.273 OA
ATOM     13  N   UNL     1      37.966 -25.174 -13.512  0.00  0.00    -0.273 N 
ATOM     14  C   UNL     1      36.575 -25.141 -13.446  0.00  0.00    +0.244 C 
ATOM     15  C   UNL     1      38.873 -24.274 -12.790  0.00  0.00    +0.126 C 
ATOM     16  C   UNL     1      38.641 -26.245 -14.244  0.00  0.00    +0.126 C 
ATOM     17  C   UNL     1      39.982 -23.790 -13.716  0.00  0.00    +0.164 C 
ATOM     18  C   UNL     1      39.755 -25.676 -15.111  0.00  0.00    +0.164 C 
ENDBRANCH   9  14
ENDBRANCH   4   9
ENDBRANCH   1   5
BRANCH   1  19
ATOM     19  S   UNL     1      33.077 -23.037 -17.727  0.00  0.00    +0.061 S 
ATOM     20  O   UNL     1      31.873 -22.778 -16.961  0.00  0.00    -0.153 OA
ATOM     21  O   UNL     1      33.195 -24.252 -18.511  0.00  0.00    -0.153 OA
BRANCH  19  23
ATOM     22 CL   UNL     1      35.447 -16.688 -22.800  0.00  0.00    -0.082 Cl
ATOM     23  C   UNL     1      33.322 -21.682 -18.834  0.00  0.00    +0.122 C 
ATOM     24  C   UNL     1      34.609 -21.238 -19.083  0.00  0.00    +0.020 C 
ATOM     25  C   UNL     1      32.224 -21.091 -19.428  0.00  0.00    +0.020 C 
ATOM     26  C   UNL     1      34.820 -20.162 -19.961  0.00  0.00    +0.001 C 
ATOM     27  C   UNL     1      33.707 -19.545 -20.581  0.00  0.00    +0.001 C 
ATOM     28  C   UNL     1      32.415 -20.022 -20.303  0.00  0.00    +0.001 C 
ATOM     29  C   UNL     1      36.112 -19.685 -20.239  0.00  0.00    +0.001 C 
ATOM     30  C   UNL     1      33.918 -18.469 -21.458  0.00  0.00    +0.011 C 
ATOM     31  C   UNL     1      36.303 -18.615 -21.114  0.00  0.00    +0.011 C 
ATOM     32  C   UNL     1      35.208 -18.008 -21.722  0.00  0.00    +0.058 C 
ENDBRANCH  19  23
ENDBRANCH   1  19
TORSDOF 5
ENDMDL
MODEL 5
REMARK VINA RESULT:     -11.8      7.138     12.072
REMARK  Name = 6852168
REMARK  5 active torsions:
REMARK  status: ('A' for Active; 'I' for Inactive)
REMARK    1  A    between atoms: N_1  and  C_5
REMARK    2  A    between atoms: N_1  and  S_19
REMARK    3  A    between atoms: N_4  and  C_9
REMARK    4  A    between atoms: C_9  and  C_14
REMARK    5  A    between atoms: S_19  and  C_23
REMARK                            x       y       z     vdW  Elec       q    Type
REMARK                         _______ _______ _______ _____ _____    ______ ____
ROOT
ATOM      1  N   UNL     1      34.854 -22.559 -17.046  0.00  0.00    -0.172 NA
ATOM      2  H   UNL     1      35.266 -21.661 -17.299  0.00  0.00    +0.149 HD
ENDROOT
BRANCH   1   5
ATOM      3  O   UNL     1      37.129 -22.000 -15.117  0.00  0.00    -0.273 OA
ATOM      4  N   UNL     1      36.355 -24.197 -14.781  0.00  0.00    -0.272 N 
ATOM      5  C   UNL     1      34.830 -22.616 -15.573  0.00  0.00    +0.153 C 
ATOM      6  C   UNL     1      34.076 -23.844 -15.078  0.00  0.00    +0.048 C 
ATOM      7  C   UNL     1      35.133 -24.931 -15.011  0.00  0.00    +0.096 C 
ATOM      8  C   UNL     1      36.250 -22.850 -15.123  0.00  0.00    +0.242 C 
BRANCH   4   9
ATOM      9  C   UNL     1      37.577 -24.867 -14.391  0.00  0.00    +0.152 C 
ATOM     10  C   UNL     1      38.682 -24.685 -15.404  0.00  0.00    +0.031 C 
BRANCH   9  14
ATOM     11  O   UNL     1      34.916 -23.778 -10.239  0.00  0.00    -0.350 OA
ATOM     12  O   UNL     1      39.045 -23.675 -12.961  0.00  0.00    -0.273 OA
ATOM     13  N   UNL     1      37.004 -24.311 -12.055  0.00  0.00    -0.273 N 
ATOM     14  C   UNL     1      37.949 -24.230 -13.075  0.00  0.00    +0.244 C 
ATOM     15  C   UNL     1      35.750 -25.071 -12.116  0.00  0.00    +0.126 C 
ATOM     16  C   UNL     1      37.282 -23.716 -10.748  0.00  0.00    +0.126 C 
ATOM     17  C   UNL     1      34.603 -24.239 -11.556  0.00  0.00    +0.164 C 
ATOM     18  C   UNL     1      36.073 -22.938 -10.251  0.00  0.00    +0.164 C 
ENDBRANCH   9  14
ENDBRANCH   4   9
ENDBRANCH   1   5
BRANCH   1  19
ATOM     19  S   UNL     1      33.405 -22.700 -17.930  0.00  0.00    +0.061 S 
ATOM     20  O   UNL     1      32.282 -22.424 -17.054  0.00  0.00    -0.153 OA
ATOM     21  O   UNL     1      33.441 -23.926 -18.705  0.00  0.00    -0.153 OA
BRANCH  19  23
ATOM     22 CL   UNL     1      35.294 -16.347 -23.196  0.00  0.00    -0.082 Cl
ATOM     23  C   UNL     1      33.548 -21.362 -19.074  0.00  0.00    +0.122 C 
ATOM     24  C   UNL     1      34.800 -20.843 -19.355  0.00  0.00    +0.020 C 
ATOM     25  C   UNL     1      32.406 -20.857 -19.666  0.00  0.00    +0.020 C 
ATOM     26  C   UNL     1      34.930 -19.779 -20.262  0.00  0.00    +0.001 C 
ATOM     27  C   UNL     1      33.771 -19.250 -20.879  0.00  0.00    +0.001 C 
ATOM     28  C   UNL     1      32.516 -19.801 -20.570  0.00  0.00    +0.001 C 
ATOM     29  C   UNL     1      36.184 -19.229 -20.572  0.00  0.00    +0.001 C 
ATOM     30  C   UNL     1      33.901 -18.186 -21.786  0.00  0.00    +0.011 C 
ATOM     31  C   UNL     1      36.295 -18.172 -21.476  0.00  0.00    +0.011 C 
ATOM     32  C   UNL     1      35.155 -17.651 -22.081  0.00  0.00    +0.058 C 
ENDBRANCH  19  23
ENDBRANCH   1  19
TORSDOF 5
ENDMDL
MODEL 6
REMARK VINA RESULT:     -11.7      4.525     10.603
REMARK  Name = 6852168
REMARK  5 active torsions:
REMARK  status: ('A' for Active; 'I' for Inactive)
REMARK    1  A    between atoms: N_1  and  C_5
REMARK    2  A    between atoms: N_1  and  S_19
REMARK    3  A    between atoms: N_4  and  C_9
REMARK    4  A    between atoms: C_9  and  C_14
REMARK    5  A    between atoms: S_19  and  C_23
REMARK                            x       y       z     vdW  Elec       q    Type
REMARK                         _______ _______ _______ _____ _____    ______ ____
ROOT
ATOM      1  N   UNL     1      34.262 -19.020 -20.440  0.00  0.00    -0.172 NA
ATOM      2  H   UNL     1      33.334 -18.666 -20.674  0.00  0.00    +0.149 HD
ENDROOT
BRANCH   1   5
ATOM      3  O   UNL     1      31.948 -20.821 -19.656  0.00  0.00    -0.273 OA
ATOM      4  N   UNL     1      33.849 -21.419 -18.405  0.00  0.00    -0.272 N 
ATOM      5  C   UNL     1      34.188 -20.490 -20.521  0.00  0.00    +0.153 C 
ATOM      6  C   UNL     1      35.480 -21.138 -20.038  0.00  0.00    +0.048 C 
ATOM      7  C   UNL     1      35.282 -21.301 -18.543  0.00  0.00    +0.096 C 
ATOM      8  C   UNL     1      33.157 -20.931 -19.512  0.00  0.00    +0.242 C 
BRANCH   4   9
ATOM      9  C   UNL     1      33.243 -21.854 -17.166  0.00  0.00    +0.152 C 
ATOM     10  C   UNL     1      32.123 -22.844 -17.389  0.00  0.00    +0.031 C 
BRANCH   9  14
ATOM     11  O   UNL     1      33.520 -23.937 -12.575  0.00  0.00    -0.350 OA
ATOM     12  O   UNL     1      35.530 -22.370 -16.813  0.00  0.00    -0.273 OA
ATOM     13  N   UNL     1      34.028 -23.187 -15.242  0.00  0.00    -0.273 N 
ATOM     14  C   UNL     1      34.374 -22.491 -16.398  0.00  0.00    +0.244 C 
ATOM     15  C   UNL     1      32.658 -23.458 -14.792  0.00  0.00    +0.126 C 
ATOM     16  C   UNL     1      35.064 -23.831 -14.436  0.00  0.00    +0.126 C 
ATOM     17  C   UNL     1      32.534 -23.194 -13.296  0.00  0.00    +0.164 C 
ATOM     18  C   UNL     1      34.840 -23.546 -12.958  0.00  0.00    +0.164 C 
ENDBRANCH   9  14
ENDBRANCH   4   9
ENDBRANCH   1   5
BRANCH   1  19
ATOM     19  S   UNL     1      35.372 -18.166 -21.408  0.00  0.00    +0.061 S 
ATOM     20  O   UNL     1      35.362 -18.719 -22.749  0.00  0.00    -0.153 OA
ATOM     21  O   UNL     1      36.623 -18.029 -20.686  0.00  0.00    -0.153 OA
BRANCH  19  23
ATOM     22 CL   UNL     1      31.938 -10.582 -22.944  0.00  0.00    -0.082 Cl
ATOM     23  C   UNL     1      34.636 -16.561 -21.474  0.00  0.00    +0.122 C 
ATOM     24  C   UNL     1      34.411 -15.971 -22.706  0.00  0.00    +0.020 C 
ATOM     25  C   UNL     1      34.300 -15.925 -20.295  0.00  0.00    +0.020 C 
ATOM     26  C   UNL     1      33.826 -14.696 -22.775  0.00  0.00    +0.001 C 
ATOM     27  C   UNL     1      33.474 -14.030 -21.577  0.00  0.00    +0.001 C 
ATOM     28  C   UNL     1      33.717 -14.659 -20.345  0.00  0.00    +0.001 C 
ATOM     29  C   UNL     1      33.583 -14.068 -24.007  0.00  0.00    +0.001 C 
ATOM     30  C   UNL     1      32.890 -12.755 -21.646  0.00  0.00    +0.011 C 
ATOM     31  C   UNL     1      33.001 -12.800 -24.057  0.00  0.00    +0.011 C 
ATOM     32  C   UNL     1      32.656 -12.145 -22.879  0.00  0.00    +0.058 C 
ENDBRANCH  19  23
ENDBRANCH   1  19
TORSDOF 5
ENDMDL
MODEL 7
REMARK VINA RESULT:     -11.7      2.588      4.658
REMARK  Name = 6852168
REMARK  5 active torsions:
REMARK  status: ('A' for Active; 'I' for Inactive)
REMARK    1  A    between atoms: N_1  and  C_5
REMARK    2  A    between atoms: N_1  and  S_19
REMARK    3  A    between atoms: N_4  and  C_9
REMARK    4  A    between atoms: C_9  and  C_14
REMARK    5  A    between atoms: S_19  and  C_23
REMARK                            x       y       z     vdW  Elec       q    Type
REMARK                         _______ _______ _______ _____ _____    ______ ____
ROOT
ATOM      1  N   UNL     1      34.544 -19.864 -19.789  0.00  0.00    -0.172 NA
ATOM      2  H   UNL     1      35.244 -19.616 -19.089  0.00  0.00    +0.149 HD
ENDROOT
BRANCH   1   5
ATOM      3  O   UNL     1      36.768 -17.993 -20.666  0.00  0.00    -0.273 OA
ATOM      4  N   UNL     1      34.915 -17.710 -22.088  0.00  0.00    -0.272 N 
ATOM      5  C   UNL     1      35.216 -19.804 -21.099  0.00  0.00    +0.153 C 
ATOM      6  C   UNL     1      34.214 -19.921 -22.242  0.00  0.00    +0.048 C 
ATOM      7  C   UNL     1      33.774 -18.492 -22.504  0.00  0.00    +0.096 C 
ATOM      8  C   UNL     1      35.772 -18.409 -21.241  0.00  0.00    +0.242 C 
BRANCH   4   9
ATOM      9  C   UNL     1      35.025 -16.304 -22.413  0.00  0.00    +0.152 C 
ATOM     10  C   UNL     1      34.454 -15.981 -23.774  0.00  0.00    +0.031 C 
BRANCH   9  14
ATOM     11  O   UNL     1      32.459 -11.957 -22.294  0.00  0.00    -0.350 OA
ATOM     12  O   UNL     1      34.339 -16.004 -20.163  0.00  0.00    -0.273 OA
ATOM     13  N   UNL     1      33.453 -14.531 -21.723  0.00  0.00    -0.273 N 
ATOM     14  C   UNL     1      34.244 -15.607 -21.327  0.00  0.00    +0.244 C 
ATOM     15  C   UNL     1      33.218 -14.113 -23.109  0.00  0.00    +0.126 C 
ATOM     16  C   UNL     1      32.667 -13.795 -20.732  0.00  0.00    +0.126 C 
ATOM     17  C   UNL     1      33.330 -12.598 -23.228  0.00  0.00    +0.164 C 
ATOM     18  C   UNL     1      32.809 -12.296 -20.950  0.00  0.00    +0.164 C 
ENDBRANCH   9  14
ENDBRANCH   4   9
ENDBRANCH   1   5
BRANCH   1  19
ATOM     19  S   UNL     1      33.818 -21.313 -19.267  0.00  0.00    +0.061 S 
ATOM     20  O   UNL     1      34.094 -22.360 -20.231  0.00  0.00    -0.153 OA
ATOM     21  O   UNL     1      32.453 -21.039 -18.859  0.00  0.00    -0.153 OA
BRANCH  19  23
ATOM     22 CL   UNL     1      37.188 -23.573 -11.837  0.00  0.00    -0.082 Cl
ATOM     23  C   UNL     1      34.734 -21.668 -17.798  0.00  0.00    +0.122 C 
ATOM     24  C   UNL     1      34.124 -22.373 -16.775  0.00  0.00    +0.020 C 
ATOM     25  C   UNL     1      36.041 -21.234 -17.698  0.00  0.00    +0.020 C 
ATOM     26  C   UNL     1      34.839 -22.663 -15.601  0.00  0.00    +0.001 C 
ATOM     27  C   UNL     1      36.180 -22.227 -15.481  0.00  0.00    +0.001 C 
ATOM     28  C   UNL     1      36.767 -21.513 -16.540  0.00  0.00    +0.001 C 
ATOM     29  C   UNL     1      34.252 -23.378 -14.544  0.00  0.00    +0.001 C 
ATOM     30  C   UNL     1      36.894 -22.517 -14.308  0.00  0.00    +0.011 C 
ATOM     31  C   UNL     1      34.977 -23.657 -13.385  0.00  0.00    +0.011 C 
ATOM     32  C   UNL     1      36.296 -23.227 -13.267  0.00  0.00    +0.058 C 
ENDBRANCH  19  23
ENDBRANCH   1  19
TORSDOF 5
ENDMDL
MODEL 8
REMARK VINA RESULT:     -11.6      1.712      2.452
REMARK  Name = 6852168
REMARK  5 active torsions:
REMARK  status: ('A' for Active; 'I' for Inactive)
REMARK    1  A    between atoms: N_1  and  C_5
REMARK    2  A    between atoms: N_1  and  S_19
REMARK    3  A    between atoms: N_4  and  C_9
REMARK    4  A    between atoms: C_9  and  C_14
REMARK    5  A    between atoms: S_19  and  C_23
REMARK                            x       y       z     vdW  Elec       q    Type
REMARK                         _______ _______ _______ _____ _____    ______ ____
ROOT
ATOM      1  N   UNL     1      33.128 -15.757 -23.543  0.00  0.00    -0.172 NA
ATOM      2  H   UNL     1      33.173 -15.860 -22.529  0.00  0.00    +0.149 HD
ENDROOT
BRANCH   1   5
ATOM      3  O   UNL     1      33.919 -13.474 -21.705  0.00  0.00    -0.273 OA
ATOM      4  N   UNL     1      32.625 -12.625 -23.477  0.00  0.00    -0.272 N 
ATOM      5  C   UNL     1      33.894 -14.544 -23.880  0.00  0.00    +0.153 C 
ATOM      6  C   UNL     1      33.437 -13.950 -25.207  0.00  0.00    +0.048 C 
ATOM      7  C   UNL     1      32.301 -13.017 -24.829  0.00  0.00    +0.096 C 
ATOM      8  C   UNL     1      33.523 -13.496 -22.862  0.00  0.00    +0.242 C 
BRANCH   4   9
ATOM      9  C   UNL     1      31.941 -11.530 -22.824  0.00  0.00    +0.152 C 
ATOM     10  C   UNL     1      31.771 -11.761 -21.340  0.00  0.00    +0.031 C 
BRANCH   9  14
ATOM     11  O   UNL     1      30.974  -6.589 -23.202  0.00  0.00    -0.350 OA
ATOM     12  O   UNL     1      33.983 -10.505 -23.458  0.00  0.00    -0.273 OA
ATOM     13  N   UNL     1      32.246  -9.082 -22.872  0.00  0.00    -0.273 N 
ATOM     14  C   UNL     1      32.821 -10.333 -23.080  0.00  0.00    +0.244 C 
ATOM     15  C   UNL     1      30.915  -8.842 -22.304  0.00  0.00    +0.126 C 
ATOM     16  C   UNL     1      33.028  -7.867 -23.102  0.00  0.00    +0.126 C 
ATOM     17  C   UNL     1      30.183  -7.776 -23.109  0.00  0.00    +0.164 C 
ATOM     18  C   UNL     1      32.208  -6.847 -23.878  0.00  0.00    +0.164 C 
ENDBRANCH   9  14
ENDBRANCH   4   9
ENDBRANCH   1   5
BRANCH   1  19
ATOM     19  S   UNL     1      33.571 -17.260 -24.209  0.00  0.00    +0.061 S 
ATOM     20  O   UNL     1      34.568 -17.050 -25.241  0.00  0.00    -0.153 OA
ATOM     21  O   UNL     1      32.371 -18.022 -24.499  0.00  0.00    -0.153 OA
BRANCH  19  23
ATOM     22 CL   UNL     1      36.305 -21.632 -17.495  0.00  0.00    -0.082 Cl
ATOM     23  C   UNL     1      34.362 -18.045 -22.838  0.00  0.00    +0.122 C 
ATOM     24  C   UNL     1      33.663 -18.987 -22.103  0.00  0.00    +0.020 C 
ATOM     25  C   UNL     1      35.662 -17.702 -22.524  0.00  0.00    +0.020 C 
ATOM     26  C   UNL     1      34.277 -19.620 -21.011  0.00  0.00    +0.001 C 
ATOM     27  C   UNL     1      35.610 -19.283 -20.675  0.00  0.00    +0.001 C 
ATOM     28  C   UNL     1      36.289 -18.321 -21.442  0.00  0.00    +0.001 C 
ATOM     29  C   UNL     1      33.599 -20.582 -20.244  0.00  0.00    +0.001 C 
ATOM     30  C   UNL     1      36.224 -19.915 -19.582  0.00  0.00    +0.011 C 
ATOM     31  C   UNL     1      34.225 -21.200 -19.162  0.00  0.00    +0.011 C 
ATOM     32  C   UNL     1      35.535 -20.867 -18.831  0.00  0.00    +0.058 C 
ENDBRANCH  19  23
ENDBRANCH   1  19
TORSDOF 5
ENDMDL
MODEL 9
REMARK VINA RESULT:     -11.6      2.227      3.866
REMARK  Name = 6852168
REMARK  5 active torsions:
REMARK  status: ('A' for Active; 'I' for Inactive)
REMARK    1  A    between atoms: N_1  and  C_5
REMARK    2  A    between atoms: N_1  and  S_19
REMARK    3  A    between atoms: N_4  and  C_9
REMARK    4  A    between atoms: C_9  and  C_14
REMARK    5  A    between atoms: S_19  and  C_23
REMARK                            x       y       z     vdW  Elec       q    Type
REMARK                         _______ _______ _______ _____ _____    ______ ____
ROOT
ATOM      1  N   UNL     1      34.662 -19.652 -20.689  0.00  0.00    -0.172 NA
ATOM      2  H   UNL     1      34.599 -18.751 -20.216  0.00  0.00    +0.149 HD
ENDROOT
BRANCH   1   5
ATOM      3  O   UNL     1      36.791 -17.627 -21.449  0.00  0.00    -0.273 OA
ATOM      4  N   UNL     1      34.833 -17.188 -22.679  0.00  0.00    -0.272 N 
ATOM      5  C   UNL     1      35.233 -19.393 -22.022  0.00  0.00    +0.153 C 
ATOM      6  C   UNL     1      34.150 -19.371 -23.095  0.00  0.00    +0.048 C 
ATOM      7  C   UNL     1      33.675 -17.930 -23.119  0.00  0.00    +0.096 C 
ATOM      8  C   UNL     1      35.760 -17.980 -22.004  0.00  0.00    +0.242 C 
BRANCH   4   9
ATOM      9  C   UNL     1      34.902 -15.748 -22.808  0.00  0.00    +0.152 C 
ATOM     10  C   UNL     1      34.297 -15.256 -24.102  0.00  0.00    +0.031 C 
BRANCH   9  14
ATOM     11  O   UNL     1      32.012 -11.663 -22.135  0.00  0.00    -0.350 OA
ATOM     12  O   UNL     1      34.308 -15.731 -20.512  0.00  0.00    -0.273 OA
ATOM     13  N   UNL     1      33.233 -14.189 -21.873  0.00  0.00    -0.273 N 
ATOM     14  C   UNL     1      34.124 -15.229 -21.624  0.00  0.00    +0.244 C 
ATOM     15  C   UNL     1      32.896 -13.656 -23.198  0.00  0.00    +0.126 C 
ATOM     16  C   UNL     1      32.442 -13.623 -20.780  0.00  0.00    +0.126 C 
ATOM     17  C   UNL     1      32.883 -12.133 -23.166  0.00  0.00    +0.164 C 
ATOM     18  C   UNL     1      32.454 -12.103 -20.848  0.00  0.00    +0.164 C 
ENDBRANCH   9  14
ENDBRANCH   4   9
ENDBRANCH   1   5
BRANCH   1  19
ATOM     19  S   UNL     1      35.446 -20.716 -19.616  0.00  0.00    +0.061 S 
ATOM     20  O   UNL     1      36.328 -19.958 -18.749  0.00  0.00    -0.153 OA
ATOM     21  O   UNL     1      35.957 -21.851 -20.362  0.00  0.00    -0.153 OA
BRANCH  19  23
ATOM     22 CL   UNL     1      29.839 -23.988 -14.182  0.00  0.00    -0.082 Cl
ATOM     23  C   UNL     1      34.097 -21.306 -18.639  0.00  0.00    +0.122 C 
ATOM     24  C   UNL     1      34.361 -22.001 -17.471  0.00  0.00    +0.020 C 
ATOM     25  C   UNL     1      32.804 -21.065 -19.061  0.00  0.00    +0.020 C 
ATOM     26  C   UNL     1      33.299 -22.476 -16.684  0.00  0.00    +0.001 C 
ATOM     27  C   UNL     1      31.968 -22.237 -17.100  0.00  0.00    +0.001 C 
ATOM     28  C   UNL     1      31.738 -21.529 -18.292  0.00  0.00    +0.001 C 
ATOM     29  C   UNL     1      33.530 -23.182 -15.493  0.00  0.00    +0.001 C 
ATOM     30  C   UNL     1      30.906 -22.712 -16.314  0.00  0.00    +0.011 C 
ATOM     31  C   UNL     1      32.463 -23.648 -14.723  0.00  0.00    +0.011 C 
ATOM     32  C   UNL     1      31.154 -23.413 -15.133  0.00  0.00    +0.058 C 
ENDBRANCH  19  23
ENDBRANCH   1  19
TORSDOF 5
ENDMDL
