MODEL 1
REMARK VINA RESULT:     -14.3      0.000      0.000
REMARK  Name = 44141871
REMARK  6 active torsions:
REMARK  status: ('A' for Active; 'I' for Inactive)
REMARK    1  A    between atoms: C_1  and  C_10
REMARK    2  A    between atoms: C_4  and  O_20
REMARK    3  A    between atoms: C_9  and  C_13
REMARK    4  A    between atoms: C_13  and  C_15
REMARK    5  A    between atoms: O_20  and  C_21
REMARK    6  A    between atoms: C_21  and  C_23
REMARK                            x       y       z     vdW  Elec       q    Type
REMARK                         _______ _______ _______ _____ _____    ______ ____
ROOT
ATOM      1  C   UNL     1      34.657 -17.918 -22.183  0.00  0.00    +0.015 C 
ATOM      2  C   UNL     1      33.776 -18.878 -21.685  0.00  0.00    +0.004 C 
ATOM      3  C   UNL     1      35.978 -17.888 -21.737  0.00  0.00    +0.004 C 
ATOM      4  C   UNL     1      35.537 -19.777 -20.297  0.00  0.00    +0.139 C 
ATOM      5  C   UNL     1      34.216 -19.807 -20.743  0.00  0.00    +0.037 C 
ATOM      6  C   UNL     1      36.418 -18.817 -20.795  0.00  0.00    +0.037 C 
ENDROOT
BRANCH   1  10
ATOM      7  N   UNL     1      33.867 -17.308 -24.433  0.00  0.00    -0.236 N 
ATOM      8  N   UNL     1      33.467 -16.273 -25.193  0.00  0.00    -0.180 NA
ATOM      9  C   UNL     1      34.009 -15.601 -23.077  0.00  0.00    +0.018 C 
ATOM     10  C   UNL     1      34.202 -16.958 -23.158  0.00  0.00    +0.063 C 
ATOM     11  C   UNL     1      33.555 -15.233 -24.359  0.00  0.00    +0.115 C 
ATOM     12  H   UNL     1      33.912 -18.233 -24.766  0.00  0.00    +0.174 HD
BRANCH   9  13
ATOM     13  C   UNL     1      34.223 -14.717 -21.918  0.00  0.00    +0.056 C 
BRANCH  13  15
ATOM     14  N   UNL     1      31.691 -11.220 -21.837  0.00  0.00    -0.242 NA
ATOM     15  C   UNL     1      33.330 -13.484 -21.890  0.00  0.00    -0.015 C 
ATOM     16  C   UNL     1      32.376 -13.336 -20.888  0.00  0.00    +0.017 C 
ATOM     17  C   UNL     1      33.465 -12.501 -22.864  0.00  0.00    +0.017 C 
ATOM     18  C   UNL     1      31.589 -12.196 -20.907  0.00  0.00    +0.099 C 
ATOM     19  C   UNL     1      32.629 -11.399 -22.793  0.00  0.00    +0.099 C 
ENDBRANCH  13  15
ENDBRANCH   9  13
ENDBRANCH   1  10
BRANCH   4  20
ATOM     20  O   UNL     1      35.970 -20.691 -19.374  0.00  0.00    -0.468 OA
BRANCH  20  21
ATOM     21  C   UNL     1      34.983 -21.534 -18.794  0.00  0.00    +0.264 C 
BRANCH  21  23
ATOM     22  N   UNL     1      34.433 -22.482 -16.636  0.00  0.00    -0.406 NA
ATOM     23  C   UNL     1      35.361 -21.843 -17.384  0.00  0.00    +0.152 C 
ATOM     24  C   UNL     1      35.985 -22.439 -14.794  0.00  0.00    +0.026 C 
ATOM     25  C   UNL     1      34.738 -22.777 -15.358  0.00  0.00    +0.113 C 
ATOM     26  C   UNL     1      36.606 -21.471 -16.920  0.00  0.00    +0.031 C 
ATOM     27  C   UNL     1      36.918 -21.777 -15.603  0.00  0.00    +0.005 C 
ATOM     28  C   UNL     1      36.270 -22.764 -13.456  0.00  0.00    +0.002 C 
ATOM     29  C   UNL     1      33.812 -23.436 -14.553  0.00  0.00    +0.085 C 
ATOM     30  C   UNL     1      35.325 -23.422 -12.674  0.00  0.00    -0.004 C 
ATOM     31  C   UNL     1      34.095 -23.759 -13.224  0.00  0.00    -0.019 C 
ENDBRANCH  21  23
ENDBRANCH  20  21
ENDBRANCH   4  20
TORSDOF 6
ENDMDL
MODEL 2
REMARK VINA RESULT:     -14.0      2.123     10.869
REMARK  Name = 44141871
REMARK  6 active torsions:
REMARK  status: ('A' for Active; 'I' for Inactive)
REMARK    1  A    between atoms: C_1  and  C_10
REMARK    2  A    between atoms: C_4  and  O_20
REMARK    3  A    between atoms: C_9  and  C_13
REMARK    4  A    between atoms: C_13  and  C_15
REMARK    5  A    between atoms: O_20  and  C_21
REMARK    6  A    between atoms: C_21  and  C_23
REMARK                            x       y       z     vdW  Elec       q    Type
REMARK                         _______ _______ _______ _____ _____    ______ ____
ROOT
ATOM      1  C   UNL     1      33.735 -22.007 -17.557  0.00  0.00    +0.015 C 
ATOM      2  C   UNL     1      32.660 -21.628 -18.361  0.00  0.00    +0.004 C 
ATOM      3  C   UNL     1      35.036 -21.675 -17.932  0.00  0.00    +0.004 C 
ATOM      4  C   UNL     1      34.188 -20.583 -19.913  0.00  0.00    +0.139 C 
ATOM      5  C   UNL     1      32.886 -20.916 -19.538  0.00  0.00    +0.037 C 
ATOM      6  C   UNL     1      35.263 -20.963 -19.110  0.00  0.00    +0.037 C 
ENDROOT
BRANCH   1  10
ATOM      7  N   UNL     1      32.249 -23.080 -15.914  0.00  0.00    -0.236 N 
ATOM      8  N   UNL     1      32.234 -23.764 -14.756  0.00  0.00    -0.180 NA
ATOM      9  C   UNL     1      34.365 -23.239 -15.394  0.00  0.00    +0.018 C 
ATOM     10  C   UNL     1      33.500 -22.743 -16.339  0.00  0.00    +0.063 C 
ATOM     11  C   UNL     1      33.530 -23.858 -14.443  0.00  0.00    +0.115 C 
ATOM     12  H   UNL     1      31.431 -22.846 -16.410  0.00  0.00    +0.174 HD
BRANCH   9  13
ATOM     13  C   UNL     1      35.835 -23.150 -15.368  0.00  0.00    +0.056 C 
BRANCH  13  15
ATOM     14  N   UNL     1      37.746 -25.857 -12.599  0.00  0.00    -0.242 NA
ATOM     15  C   UNL     1      36.509 -24.105 -14.391  0.00  0.00    -0.015 C 
ATOM     16  C   UNL     1      37.089 -23.615 -13.226  0.00  0.00    +0.017 C 
ATOM     17  C   UNL     1      36.546 -25.468 -14.661  0.00  0.00    +0.017 C 
ATOM     18  C   UNL     1      37.690 -24.525 -12.371  0.00  0.00    +0.099 C 
ATOM     19  C   UNL     1      37.171 -26.294 -13.741  0.00  0.00    +0.099 C 
ENDBRANCH  13  15
ENDBRANCH   9  13
ENDBRANCH   1  10
BRANCH   4  20
ATOM     20  O   UNL     1      34.411 -19.881 -21.068  0.00  0.00    -0.468 OA
BRANCH  20  21
ATOM     21  C   UNL     1      35.458 -18.920 -21.042  0.00  0.00    +0.264 C 
BRANCH  21  23
ATOM     22  N   UNL     1      34.682 -16.637 -20.829  0.00  0.00    -0.406 NA
ATOM     23  C   UNL     1      34.983 -17.652 -21.670  0.00  0.00    +0.152 C 
ATOM     24  C   UNL     1      34.107 -15.303 -22.751  0.00  0.00    +0.026 C 
ATOM     25  C   UNL     1      34.250 -15.477 -21.359  0.00  0.00    +0.113 C 
ATOM     26  C   UNL     1      34.875 -17.577 -23.043  0.00  0.00    +0.031 C 
ATOM     27  C   UNL     1      34.429 -16.380 -23.587  0.00  0.00    +0.005 C 
ATOM     28  C   UNL     1      33.654 -14.078 -23.270  0.00  0.00    +0.002 C 
ATOM     29  C   UNL     1      33.930 -14.406 -20.528  0.00  0.00    +0.085 C 
ATOM     30  C   UNL     1      33.340 -13.024 -22.416  0.00  0.00    -0.004 C 
ATOM     31  C   UNL     1      33.479 -13.188 -21.044  0.00  0.00    -0.019 C 
ENDBRANCH  21  23
ENDBRANCH  20  21
ENDBRANCH   4  20
TORSDOF 6
ENDMDL
MODEL 3
REMARK VINA RESULT:     -13.9      2.566     10.179
REMARK  Name = 44141871
REMARK  6 active torsions:
REMARK  status: ('A' for Active; 'I' for Inactive)
REMARK    1  A    between atoms: C_1  and  C_10
REMARK    2  A    between atoms: C_4  and  O_20
REMARK    3  A    between atoms: C_9  and  C_13
REMARK    4  A    between atoms: C_13  and  C_15
REMARK    5  A    between atoms: O_20  and  C_21
REMARK    6  A    between atoms: C_21  and  C_23
REMARK                            x       y       z     vdW  Elec       q    Type
REMARK                         _______ _______ _______ _____ _____    ______ ____
ROOT
ATOM      1  C   UNL     1      34.296 -22.245 -17.135  0.00  0.00    +0.015 C 
ATOM      2  C   UNL     1      33.208 -22.071 -17.991  0.00  0.00    +0.004 C 
ATOM      3  C   UNL     1      35.537 -21.702 -17.468  0.00  0.00    +0.004 C 
ATOM      4  C   UNL     1      34.602 -20.812 -19.510  0.00  0.00    +0.139 C 
ATOM      5  C   UNL     1      33.361 -21.355 -19.177  0.00  0.00    +0.037 C 
ATOM      6  C   UNL     1      35.690 -20.985 -18.655  0.00  0.00    +0.037 C 
ENDROOT
BRANCH   1  10
ATOM      7  N   UNL     1      35.046 -23.911 -15.486  0.00  0.00    -0.236 N 
ATOM      8  N   UNL     1      34.722 -24.497 -14.319  0.00  0.00    -0.180 NA
ATOM      9  C   UNL     1      33.150 -22.965 -14.954  0.00  0.00    +0.018 C 
ATOM     10  C   UNL     1      34.137 -22.986 -15.908  0.00  0.00    +0.063 C 
ATOM     11  C   UNL     1      33.563 -23.915 -13.999  0.00  0.00    +0.115 C 
ATOM     12  H   UNL     1      35.864 -24.129 -15.988  0.00  0.00    +0.174 HD
BRANCH   9  13
ATOM     13  C   UNL     1      31.930 -22.140 -14.923  0.00  0.00    +0.056 C 
BRANCH  13  15
ATOM     14  N   UNL     1      28.261 -24.346 -15.498  0.00  0.00    -0.242 NA
ATOM     15  C   UNL     1      30.636 -22.918 -15.126  0.00  0.00    -0.015 C 
ATOM     16  C   UNL     1      30.401 -24.082 -14.402  0.00  0.00    +0.017 C 
ATOM     17  C   UNL     1      29.686 -22.468 -16.035  0.00  0.00    +0.017 C 
ATOM     18  C   UNL     1      29.209 -24.753 -14.623  0.00  0.00    +0.099 C 
ATOM     19  C   UNL     1      28.526 -23.211 -16.183  0.00  0.00    +0.099 C 
ENDBRANCH  13  15
ENDBRANCH   9  13
ENDBRANCH   1  10
BRANCH   4  20
ATOM     20  O   UNL     1      34.751 -20.105 -20.673  0.00  0.00    -0.468 OA
BRANCH  20  21
ATOM     21  C   UNL     1      35.726 -19.070 -20.674  0.00  0.00    +0.264 C 
BRANCH  21  23
ATOM     22  N   UNL     1      34.852 -16.813 -20.637  0.00  0.00    -0.406 NA
ATOM     23  C   UNL     1      35.187 -17.881 -21.397  0.00  0.00    +0.152 C 
ATOM     24  C   UNL     1      34.193 -15.670 -22.652  0.00  0.00    +0.026 C 
ATOM     25  C   UNL     1      34.361 -15.722 -21.253  0.00  0.00    +0.113 C 
ATOM     26  C   UNL     1      35.057 -17.925 -22.769  0.00  0.00    +0.031 C 
ATOM     27  C   UNL     1      34.551 -16.798 -23.402  0.00  0.00    +0.005 C 
ATOM     28  C   UNL     1      33.678 -14.514 -23.262  0.00  0.00    +0.002 C 
ATOM     29  C   UNL     1      34.004 -14.601 -20.508  0.00  0.00    +0.085 C 
ATOM     30  C   UNL     1      33.328 -13.407 -22.494  0.00  0.00    -0.004 C 
ATOM     31  C   UNL     1      33.492 -13.451 -21.115  0.00  0.00    -0.019 C 
ENDBRANCH  21  23
ENDBRANCH  20  21
ENDBRANCH   4  20
TORSDOF 6
ENDMDL
MODEL 4
REMARK VINA RESULT:     -13.8      1.512      2.309
REMARK  Name = 44141871
REMARK  6 active torsions:
REMARK  status: ('A' for Active; 'I' for Inactive)
REMARK    1  A    between atoms: C_1  and  C_10
REMARK    2  A    between atoms: C_4  and  O_20
REMARK    3  A    between atoms: C_9  and  C_13
REMARK    4  A    between atoms: C_13  and  C_15
REMARK    5  A    between atoms: O_20  and  C_21
REMARK    6  A    between atoms: C_21  and  C_23
REMARK                            x       y       z     vdW  Elec       q    Type
REMARK                         _______ _______ _______ _____ _____    ______ ____
ROOT
ATOM      1  C   UNL     1      34.512 -19.069 -21.454  0.00  0.00    +0.015 C 
ATOM      2  C   UNL     1      35.817 -19.220 -20.985  0.00  0.00    +0.004 C 
ATOM      3  C   UNL     1      33.466 -19.758 -20.838  0.00  0.00    +0.004 C 
ATOM      4  C   UNL     1      35.031 -20.746 -19.285  0.00  0.00    +0.139 C 
ATOM      5  C   UNL     1      36.076 -20.058 -19.901  0.00  0.00    +0.037 C 
ATOM      6  C   UNL     1      33.726 -20.596 -19.753  0.00  0.00    +0.037 C 
ENDROOT
BRANCH   1  10
ATOM      7  N   UNL     1      33.839 -18.675 -23.788  0.00  0.00    -0.236 N 
ATOM      8  N   UNL     1      33.642 -17.713 -24.707  0.00  0.00    -0.180 NA
ATOM      9  C   UNL     1      34.317 -16.837 -22.707  0.00  0.00    +0.018 C 
ATOM     10  C   UNL     1      34.244 -18.203 -22.575  0.00  0.00    +0.063 C 
ATOM     11  C   UNL     1      33.935 -16.592 -24.041  0.00  0.00    +0.115 C 
ATOM     12  H   UNL     1      33.703 -19.632 -23.975  0.00  0.00    +0.174 HD
BRANCH   9  13
ATOM     13  C   UNL     1      34.706 -15.843 -21.693  0.00  0.00    +0.056 C 
BRANCH  13  15
ATOM     14  N   UNL     1      32.320 -12.243 -21.704  0.00  0.00    -0.242 NA
ATOM     15  C   UNL     1      33.865 -14.573 -21.697  0.00  0.00    -0.015 C 
ATOM     16  C   UNL     1      33.043 -14.278 -20.615  0.00  0.00    +0.017 C 
ATOM     17  C   UNL     1      33.916 -13.705 -22.781  0.00  0.00    +0.017 C 
ATOM     18  C   UNL     1      32.297 -13.112 -20.667  0.00  0.00    +0.099 C 
ATOM     19  C   UNL     1      33.131 -12.564 -22.737  0.00  0.00    +0.099 C 
ENDBRANCH  13  15
ENDBRANCH   9  13
ENDBRANCH   1  10
BRANCH   4  20
ATOM     20  O   UNL     1      35.285 -21.566 -18.218  0.00  0.00    -0.468 OA
BRANCH  20  21
ATOM     21  C   UNL     1      36.299 -21.147 -17.314  0.00  0.00    +0.264 C 
BRANCH  21  23
ATOM     22  N   UNL     1      37.492 -22.686 -15.877  0.00  0.00    -0.406 NA
ATOM     23  C   UNL     1      36.321 -22.061 -16.135  0.00  0.00    +0.152 C 
ATOM     24  C   UNL     1      36.434 -23.749 -13.992  0.00  0.00    +0.026 C 
ATOM     25  C   UNL     1      37.551 -23.519 -14.821  0.00  0.00    +0.113 C 
ATOM     26  C   UNL     1      35.176 -22.223 -15.382  0.00  0.00    +0.031 C 
ATOM     27  C   UNL     1      35.239 -23.082 -14.294  0.00  0.00    +0.005 C 
ATOM     28  C   UNL     1      36.531 -24.625 -12.897  0.00  0.00    +0.002 C 
ATOM     29  C   UNL     1      38.738 -24.182 -14.519  0.00  0.00    +0.085 C 
ATOM     30  C   UNL     1      37.729 -25.275 -12.619  0.00  0.00    -0.004 C 
ATOM     31  C   UNL     1      38.835 -25.053 -13.431  0.00  0.00    -0.019 C 
ENDBRANCH  21  23
ENDBRANCH  20  21
ENDBRANCH   4  20
TORSDOF 6
ENDMDL
MODEL 5
REMARK VINA RESULT:     -13.8      2.184     10.859
REMARK  Name = 44141871
REMARK  6 active torsions:
REMARK  status: ('A' for Active; 'I' for Inactive)
REMARK    1  A    between atoms: C_1  and  C_10
REMARK    2  A    between atoms: C_4  and  O_20
REMARK    3  A    between atoms: C_9  and  C_13
REMARK    4  A    between atoms: C_13  and  C_15
REMARK    5  A    between atoms: O_20  and  C_21
REMARK    6  A    between atoms: C_21  and  C_23
REMARK                            x       y       z     vdW  Elec       q    Type
REMARK                         _______ _______ _______ _____ _____    ______ ____
ROOT
ATOM      1  C   UNL     1      33.688 -22.343 -16.995  0.00  0.00    +0.015 C 
ATOM      2  C   UNL     1      32.755 -22.047 -17.989  0.00  0.00    +0.004 C 
ATOM      3  C   UNL     1      35.027 -21.990 -17.169  0.00  0.00    +0.004 C 
ATOM      4  C   UNL     1      34.499 -21.045 -19.329  0.00  0.00    +0.139 C 
ATOM      5  C   UNL     1      33.161 -21.398 -19.155  0.00  0.00    +0.037 C 
ATOM      6  C   UNL     1      35.432 -21.341 -18.335  0.00  0.00    +0.037 C 
ENDROOT
BRANCH   1  10
ATOM      7  N   UNL     1      31.986 -22.965 -15.330  0.00  0.00    -0.236 N 
ATOM      8  N   UNL     1      31.791 -23.652 -14.190  0.00  0.00    -0.180 NA
ATOM      9  C   UNL     1      33.962 -23.785 -14.889  0.00  0.00    +0.018 C 
ATOM     10  C   UNL     1      33.269 -23.014 -15.790  0.00  0.00    +0.063 C 
ATOM     11  C   UNL     1      33.001 -24.151 -13.926  0.00  0.00    +0.115 C 
ATOM     12  H   UNL     1      31.268 -22.473 -15.790  0.00  0.00    +0.174 HD
BRANCH   9  13
ATOM     13  C   UNL     1      35.388 -24.155 -14.913  0.00  0.00    +0.056 C 
BRANCH  13  15
ATOM     14  N   UNL     1      37.328 -24.063 -11.055  0.00  0.00    -0.242 NA
ATOM     15  C   UNL     1      36.072 -24.122 -13.552  0.00  0.00    -0.015 C 
ATOM     16  C   UNL     1      36.629 -25.282 -13.024  0.00  0.00    +0.017 C 
ATOM     17  C   UNL     1      36.143 -22.934 -12.834  0.00  0.00    +0.017 C 
ATOM     18  C   UNL     1      37.239 -25.200 -11.783  0.00  0.00    +0.099 C 
ATOM     19  C   UNL     1      36.775 -22.957 -11.602  0.00  0.00    +0.099 C 
ENDBRANCH  13  15
ENDBRANCH   9  13
ENDBRANCH   1  10
BRANCH   4  20
ATOM     20  O   UNL     1      34.897 -20.405 -20.472  0.00  0.00    -0.468 OA
BRANCH  20  21
ATOM     21  C   UNL     1      35.736 -19.268 -20.311  0.00  0.00    +0.264 C 
BRANCH  21  23
ATOM     22  N   UNL     1      34.901 -17.013 -20.585  0.00  0.00    -0.406 NA
ATOM     23  C   UNL     1      35.254 -18.167 -21.196  0.00  0.00    +0.152 C 
ATOM     24  C   UNL     1      34.362 -16.109 -22.752  0.00  0.00    +0.026 C 
ATOM     25  C   UNL     1      34.461 -15.997 -21.350  0.00  0.00    +0.113 C 
ATOM     26  C   UNL     1      35.191 -18.372 -22.559  0.00  0.00    +0.031 C 
ATOM     27  C   UNL     1      34.738 -17.322 -23.345  0.00  0.00    +0.005 C 
ATOM     28  C   UNL     1      33.899 -15.027 -23.520  0.00  0.00    +0.002 C 
ATOM     29  C   UNL     1      34.087 -14.791 -20.762  0.00  0.00    +0.085 C 
ATOM     30  C   UNL     1      33.531 -13.833 -22.906  0.00  0.00    -0.004 C 
ATOM     31  C   UNL     1      33.627 -13.715 -21.525  0.00  0.00    -0.019 C 
ENDBRANCH  21  23
ENDBRANCH  20  21
ENDBRANCH   4  20
TORSDOF 6
ENDMDL
MODEL 6
REMARK VINA RESULT:     -13.7      1.525      2.032
REMARK  Name = 44141871
REMARK  6 active torsions:
REMARK  status: ('A' for Active; 'I' for Inactive)
REMARK    1  A    between atoms: C_1  and  C_10
REMARK    2  A    between atoms: C_4  and  O_20
REMARK    3  A    between atoms: C_9  and  C_13
REMARK    4  A    between atoms: C_13  and  C_15
REMARK    5  A    between atoms: O_20  and  C_21
REMARK    6  A    between atoms: C_21  and  C_23
REMARK                            x       y       z     vdW  Elec       q    Type
REMARK                         _______ _______ _______ _____ _____    ______ ____
ROOT
ATOM      1  C   UNL     1      34.523 -18.129 -22.006  0.00  0.00    +0.015 C 
ATOM      2  C   UNL     1      33.486 -18.966 -21.594  0.00  0.00    +0.004 C 
ATOM      3  C   UNL     1      35.794 -18.268 -21.448  0.00  0.00    +0.004 C 
ATOM      4  C   UNL     1      34.990 -20.080 -20.066  0.00  0.00    +0.139 C 
ATOM      5  C   UNL     1      33.719 -19.941 -20.625  0.00  0.00    +0.037 C 
ATOM      6  C   UNL     1      36.027 -19.244 -20.478  0.00  0.00    +0.037 C 
ENDROOT
BRANCH   1  10
ATOM      7  N   UNL     1      34.123 -17.422 -24.330  0.00  0.00    -0.236 N 
ATOM      8  N   UNL     1      33.908 -16.348 -25.109  0.00  0.00    -0.180 NA
ATOM      9  C   UNL     1      34.164 -15.756 -22.917  0.00  0.00    +0.018 C 
ATOM     10  C   UNL     1      34.282 -17.122 -23.009  0.00  0.00    +0.063 C 
ATOM     11  C   UNL     1      33.934 -15.333 -24.241  0.00  0.00    +0.115 C 
ATOM     12  H   UNL     1      34.161 -18.341 -24.680  0.00  0.00    +0.174 HD
BRANCH   9  13
ATOM     13  C   UNL     1      34.255 -14.912 -21.713  0.00  0.00    +0.056 C 
BRANCH  13  15
ATOM     14  N   UNL     1      31.843 -11.332 -21.846  0.00  0.00    -0.242 NA
ATOM     15  C   UNL     1      33.404 -13.650 -21.760  0.00  0.00    -0.015 C 
ATOM     16  C   UNL     1      32.454 -13.412 -20.773  0.00  0.00    +0.017 C 
ATOM     17  C   UNL     1      33.575 -12.731 -22.789  0.00  0.00    +0.017 C 
ATOM     18  C   UNL     1      31.706 -12.249 -20.862  0.00  0.00    +0.099 C 
ATOM     19  C   UNL     1      32.777 -11.598 -22.787  0.00  0.00    +0.099 C 
ENDBRANCH  13  15
ENDBRANCH   9  13
ENDBRANCH   1  10
BRANCH   4  20
ATOM     20  O   UNL     1      35.220 -21.039 -19.117  0.00  0.00    -0.468 OA
BRANCH  20  21
ATOM     21  C   UNL     1      34.323 -22.142 -19.089  0.00  0.00    +0.264 C 
BRANCH  21  23
ATOM     22  N   UNL     1      32.416 -22.388 -17.618  0.00  0.00    -0.406 NA
ATOM     23  C   UNL     1      33.761 -22.290 -17.714  0.00  0.00    +0.152 C 
ATOM     24  C   UNL     1      32.665 -22.561 -15.229  0.00  0.00    +0.026 C 
ATOM     25  C   UNL     1      31.872 -22.522 -16.394  0.00  0.00    +0.113 C 
ATOM     26  C   UNL     1      34.617 -22.317 -16.632  0.00  0.00    +0.031 C 
ATOM     27  C   UNL     1      34.055 -22.455 -15.372  0.00  0.00    +0.005 C 
ATOM     28  C   UNL     1      32.063 -22.703 -13.966  0.00  0.00    +0.002 C 
ATOM     29  C   UNL     1      30.491 -22.627 -16.251  0.00  0.00    +0.085 C 
ATOM     30  C   UNL     1      30.680 -22.805 -13.852  0.00  0.00    -0.004 C 
ATOM     31  C   UNL     1      29.893 -22.768 -14.996  0.00  0.00    -0.019 C 
ENDBRANCH  21  23
ENDBRANCH  20  21
ENDBRANCH   4  20
TORSDOF 6
ENDMDL
MODEL 7
REMARK VINA RESULT:     -13.6      1.597      3.125
REMARK  Name = 44141871
REMARK  6 active torsions:
REMARK  status: ('A' for Active; 'I' for Inactive)
REMARK    1  A    between atoms: C_1  and  C_10
REMARK    2  A    between atoms: C_4  and  O_20
REMARK    3  A    between atoms: C_9  and  C_13
REMARK    4  A    between atoms: C_13  and  C_15
REMARK    5  A    between atoms: O_20  and  C_21
REMARK    6  A    between atoms: C_21  and  C_23
REMARK                            x       y       z     vdW  Elec       q    Type
REMARK                         _______ _______ _______ _____ _____    ______ ____
ROOT
ATOM      1  C   UNL     1      33.912 -15.527 -23.143  0.00  0.00    +0.015 C 
ATOM      2  C   UNL     1      34.095 -15.269 -21.784  0.00  0.00    +0.004 C 
ATOM      3  C   UNL     1      34.181 -16.796 -23.654  0.00  0.00    +0.004 C 
ATOM      4  C   UNL     1      34.817 -17.551 -21.448  0.00  0.00    +0.139 C 
ATOM      5  C   UNL     1      34.548 -16.281 -20.937  0.00  0.00    +0.037 C 
ATOM      6  C   UNL     1      34.634 -17.808 -22.807  0.00  0.00    +0.037 C 
ENDROOT
BRANCH   1  10
ATOM      7  N   UNL     1      33.189 -14.688 -25.341  0.00  0.00    -0.236 N 
ATOM      8  N   UNL     1      32.762 -13.591 -25.991  0.00  0.00    -0.180 NA
ATOM      9  C   UNL     1      33.164 -13.156 -23.784  0.00  0.00    +0.018 C 
ATOM     10  C   UNL     1      33.443 -14.481 -24.018  0.00  0.00    +0.063 C 
ATOM     11  C   UNL     1      32.748 -12.659 -25.035  0.00  0.00    +0.115 C 
ATOM     12  H   UNL     1      33.307 -15.562 -25.781  0.00  0.00    +0.174 HD
BRANCH   9  13
ATOM     13  C   UNL     1      33.271 -12.412 -22.518  0.00  0.00    +0.056 C 
BRANCH  13  15
ATOM     14  N   UNL     1      30.486  -9.134 -22.125  0.00  0.00    -0.242 NA
ATOM     15  C   UNL     1      32.288 -11.256 -22.379  0.00  0.00    -0.015 C 
ATOM     16  C   UNL     1      32.463 -10.098 -23.131  0.00  0.00    +0.017 C 
ATOM     17  C   UNL     1      31.215 -11.353 -21.502  0.00  0.00    +0.017 C 
ATOM     18  C   UNL     1      31.542  -9.076 -22.968  0.00  0.00    +0.099 C 
ATOM     19  C   UNL     1      30.350 -10.274 -21.412  0.00  0.00    +0.099 C 
ENDBRANCH  13  15
ENDBRANCH   9  13
ENDBRANCH   1  10
BRANCH   4  20
ATOM     20  O   UNL     1      35.258 -18.545 -20.617  0.00  0.00    -0.468 OA
BRANCH  20  21
ATOM     21  C   UNL     1      34.825 -19.867 -20.912  0.00  0.00    +0.264 C 
BRANCH  21  23
ATOM     22  N   UNL     1      35.784 -20.698 -18.851  0.00  0.00    -0.406 NA
ATOM     23  C   UNL     1      34.689 -20.639 -19.642  0.00  0.00    +0.152 C 
ATOM     24  C   UNL     1      34.512 -22.036 -17.303  0.00  0.00    +0.026 C 
ATOM     25  C   UNL     1      35.700 -21.386 -17.697  0.00  0.00    +0.113 C 
ATOM     26  C   UNL     1      33.485 -21.242 -19.342  0.00  0.00    +0.031 C 
ATOM     27  C   UNL     1      33.401 -21.950 -18.152  0.00  0.00    +0.005 C 
ATOM     28  C   UNL     1      34.460 -22.745 -16.091  0.00  0.00    +0.002 C 
ATOM     29  C   UNL     1      36.804 -21.472 -16.853  0.00  0.00    +0.085 C 
ATOM     30  C   UNL     1      35.579 -22.815 -15.266  0.00  0.00    -0.004 C 
ATOM     31  C   UNL     1      36.752 -22.177 -15.647  0.00  0.00    -0.019 C 
ENDBRANCH  21  23
ENDBRANCH  20  21
ENDBRANCH   4  20
TORSDOF 6
ENDMDL
MODEL 8
REMARK VINA RESULT:     -13.5      2.180     10.531
REMARK  Name = 44141871
REMARK  6 active torsions:
REMARK  status: ('A' for Active; 'I' for Inactive)
REMARK    1  A    between atoms: C_1  and  C_10
REMARK    2  A    between atoms: C_4  and  O_20
REMARK    3  A    between atoms: C_9  and  C_13
REMARK    4  A    between atoms: C_13  and  C_15
REMARK    5  A    between atoms: O_20  and  C_21
REMARK    6  A    between atoms: C_21  and  C_23
REMARK                            x       y       z     vdW  Elec       q    Type
REMARK                         _______ _______ _______ _____ _____    ______ ____
ROOT
ATOM      1  C   UNL     1      34.278 -21.389 -18.470  0.00  0.00    +0.015 C 
ATOM      2  C   UNL     1      35.395 -20.918 -19.160  0.00  0.00    +0.004 C 
ATOM      3  C   UNL     1      32.997 -21.124 -18.955  0.00  0.00    +0.004 C 
ATOM      4  C   UNL     1      33.950 -19.920 -20.820  0.00  0.00    +0.139 C 
ATOM      5  C   UNL     1      35.231 -20.185 -20.335  0.00  0.00    +0.037 C 
ATOM      6  C   UNL     1      32.833 -20.391 -20.130  0.00  0.00    +0.037 C 
ENDROOT
BRANCH   1  10
ATOM      7  N   UNL     1      35.668 -22.361 -16.688  0.00  0.00    -0.236 N 
ATOM      8  N   UNL     1      35.622 -23.093 -15.560  0.00  0.00    -0.180 NA
ATOM      9  C   UNL     1      33.539 -22.783 -16.445  0.00  0.00    +0.018 C 
ATOM     10  C   UNL     1      34.448 -22.147 -17.256  0.00  0.00    +0.063 C 
ATOM     11  C   UNL     1      34.319 -23.347 -15.417  0.00  0.00    +0.115 C 
ATOM     12  H   UNL     1      36.507 -22.012 -17.067  0.00  0.00    +0.174 HD
BRANCH   9  13
ATOM     13  C   UNL     1      32.077 -22.864 -16.604  0.00  0.00    +0.056 C 
BRANCH  13  15
ATOM     14  N   UNL     1      29.939 -23.917 -13.002  0.00  0.00    -0.242 NA
ATOM     15  C   UNL     1      31.323 -23.235 -15.333  0.00  0.00    -0.015 C 
ATOM     16  C   UNL     1      31.473 -22.468 -14.183  0.00  0.00    +0.017 C 
ATOM     17  C   UNL     1      30.482 -24.342 -15.319  0.00  0.00    +0.017 C 
ATOM     18  C   UNL     1      30.766 -22.848 -13.054  0.00  0.00    +0.099 C 
ATOM     19  C   UNL     1      29.818 -24.638 -14.139  0.00  0.00    +0.099 C 
ENDBRANCH  13  15
ENDBRANCH   9  13
ENDBRANCH   1  10
BRANCH   4  20
ATOM     20  O   UNL     1      33.789 -19.203 -21.976  0.00  0.00    -0.468 OA
BRANCH  20  21
ATOM     21  C   UNL     1      34.894 -18.415 -22.400  0.00  0.00    +0.264 C 
BRANCH  21  23
ATOM     22  N   UNL     1      34.084 -16.517 -23.666  0.00  0.00    -0.406 NA
ATOM     23  C   UNL     1      34.487 -16.981 -22.461  0.00  0.00    +0.152 C 
ATOM     24  C   UNL     1      33.728 -14.365 -22.645  0.00  0.00    +0.026 C 
ATOM     25  C   UNL     1      33.709 -15.228 -23.760  0.00  0.00    +0.113 C 
ATOM     26  C   UNL     1      34.539 -16.214 -21.315  0.00  0.00    +0.031 C 
ATOM     27  C   UNL     1      34.152 -14.885 -21.414  0.00  0.00    +0.005 C 
ATOM     28  C   UNL     1      33.329 -13.024 -22.779  0.00  0.00    +0.002 C 
ATOM     29  C   UNL     1      33.288 -14.710 -24.982  0.00  0.00    +0.085 C 
ATOM     30  C   UNL     1      32.912 -12.533 -24.012  0.00  0.00    -0.004 C 
ATOM     31  C   UNL     1      32.891 -13.377 -25.115  0.00  0.00    -0.019 C 
ENDBRANCH  21  23
ENDBRANCH  20  21
ENDBRANCH   4  20
TORSDOF 6
ENDMDL
MODEL 9
REMARK VINA RESULT:     -13.5      3.107      6.158
REMARK  Name = 44141871
REMARK  6 active torsions:
REMARK  status: ('A' for Active; 'I' for Inactive)
REMARK    1  A    between atoms: C_1  and  C_10
REMARK    2  A    between atoms: C_4  and  O_20
REMARK    3  A    between atoms: C_9  and  C_13
REMARK    4  A    between atoms: C_13  and  C_15
REMARK    5  A    between atoms: O_20  and  C_21
REMARK    6  A    between atoms: C_21  and  C_23
REMARK                            x       y       z     vdW  Elec       q    Type
REMARK                         _______ _______ _______ _____ _____    ______ ____
ROOT
ATOM      1  C   UNL     1      32.575 -12.636 -22.245  0.00  0.00    +0.015 C 
ATOM      2  C   UNL     1      33.204 -13.321 -21.205  0.00  0.00    +0.004 C 
ATOM      3  C   UNL     1      32.740 -13.066 -23.562  0.00  0.00    +0.004 C 
ATOM      4  C   UNL     1      34.162 -14.864 -22.799  0.00  0.00    +0.139 C 
ATOM      5  C   UNL     1      33.997 -14.435 -21.482  0.00  0.00    +0.037 C 
ATOM      6  C   UNL     1      33.533 -14.179 -23.839  0.00  0.00    +0.037 C 
ENDROOT
BRANCH   1  10
ATOM      7  N   UNL     1      30.657 -11.548 -21.152  0.00  0.00    -0.236 N 
ATOM      8  N   UNL     1      30.022 -10.372 -21.007  0.00  0.00    -0.180 NA
ATOM      9  C   UNL     1      31.846 -10.178 -22.370  0.00  0.00    +0.018 C 
ATOM     10  C   UNL     1      31.755 -11.485 -21.958  0.00  0.00    +0.063 C 
ATOM     11  C   UNL     1      30.753  -9.539 -21.753  0.00  0.00    +0.115 C 
ATOM     12  H   UNL     1      30.357 -12.378 -20.716  0.00  0.00    +0.174 HD
BRANCH   9  13
ATOM     13  C   UNL     1      32.852  -9.569 -23.256  0.00  0.00    +0.056 C 
BRANCH  13  15
ATOM     14  N   UNL     1      32.631  -5.265 -23.531  0.00  0.00    -0.242 NA
ATOM     15  C   UNL     1      32.775  -8.051 -23.353  0.00  0.00    -0.015 C 
ATOM     16  C   UNL     1      31.709  -7.448 -24.013  0.00  0.00    +0.017 C 
ATOM     17  C   UNL     1      33.767  -7.263 -22.782  0.00  0.00    +0.017 C 
ATOM     18  C   UNL     1      31.685  -6.064 -24.074  0.00  0.00    +0.099 C 
ATOM     19  C   UNL     1      33.651  -5.887 -22.897  0.00  0.00    +0.099 C 
ENDBRANCH  13  15
ENDBRANCH   9  13
ENDBRANCH   1  10
BRANCH   4  20
ATOM     20  O   UNL     1      34.938 -15.959 -23.071  0.00  0.00    -0.468 OA
BRANCH  20  21
ATOM     21  C   UNL     1      34.262 -17.200 -23.229  0.00  0.00    +0.264 C 
BRANCH  21  23
ATOM     22  N   UNL     1      33.715 -18.906 -21.602  0.00  0.00    -0.406 NA
ATOM     23  C   UNL     1      34.684 -18.136 -22.146  0.00  0.00    +0.152 C 
ATOM     24  C   UNL     1      35.385 -19.872 -20.159  0.00  0.00    +0.026 C 
ATOM     25  C   UNL     1      34.058 -19.763 -20.622  0.00  0.00    +0.113 C 
ATOM     26  C   UNL     1      36.008 -18.171 -21.760  0.00  0.00    +0.031 C 
ATOM     27  C   UNL     1      36.359 -19.055 -20.750  0.00  0.00    +0.005 C 
ATOM     28  C   UNL     1      35.708 -20.778 -19.134  0.00  0.00    +0.002 C 
ATOM     29  C   UNL     1      33.091 -20.575 -20.034  0.00  0.00    +0.085 C 
ATOM     30  C   UNL     1      34.721 -21.577 -18.564  0.00  0.00    -0.004 C 
ATOM     31  C   UNL     1      33.411 -21.476 -19.015  0.00  0.00    -0.019 C 
ENDBRANCH  21  23
ENDBRANCH  20  21
ENDBRANCH   4  20
TORSDOF 6
ENDMDL
