MODEL 1
REMARK VINA RESULT:     -11.0      0.000      0.000
REMARK  Name = 11844916
REMARK  7 active torsions:
REMARK  status: ('A' for Active; 'I' for Inactive)
REMARK    1  A    between atoms: N_2  and  C_16
REMARK    2  A    between atoms: C_5  and  O_8
REMARK    3  A    between atoms: O_8  and  C_9
REMARK    4  A    between atoms: C_9  and  C_10
REMARK    5  A    between atoms: C_10  and  C_12
REMARK    6  A    between atoms: C_16  and  C_17
REMARK    7  A    between atoms: C_20  and  N_24
REMARK                            x       y       z     vdW  Elec       q    Type
REMARK                         _______ _______ _______ _____ _____    ______ ____
ROOT
ATOM      1  O   UNL     1      37.166 -18.173 -21.285  0.00  0.00    -0.269 OA
ATOM      2  N   UNL     1      34.896 -18.412 -21.799  0.00  0.00    -0.250 N 
ATOM      3  C   UNL     1      36.072 -18.699 -21.093  0.00  0.00    +0.256 C 
ATOM      4  C   UNL     1      33.699 -19.050 -21.523  0.00  0.00    +0.071 C 
ATOM      5  C   UNL     1      34.771 -20.328 -19.797  0.00  0.00    +0.144 C 
ATOM      6  C   UNL     1      35.950 -19.739 -20.025  0.00  0.00    +0.095 C 
ATOM      7  C   UNL     1      33.602 -19.978 -20.565  0.00  0.00    +0.053 C 
ENDROOT
BRANCH   5   8
ATOM      8  O   UNL     1      34.626 -21.289 -18.821  0.00  0.00    -0.475 OA
BRANCH   8   9
ATOM      9  C   UNL     1      33.264 -21.626 -18.641  0.00  0.00    +0.211 C 
BRANCH   9  10
ATOM     10  C   UNL     1      33.125 -22.960 -17.915  0.00  0.00    +0.080 C 
BRANCH  10  12
ATOM     11  S   UNL     1      33.290 -22.971 -15.160  0.00  0.00    -0.091 S 
ATOM     12  C   UNL     1      32.400 -22.815 -16.597  0.00  0.00    +0.011 C 
ATOM     13  C   UNL     1      31.079 -22.568 -16.405  0.00  0.00    +0.003 C 
ATOM     14  C   UNL     1      30.768 -22.499 -15.016  0.00  0.00    +0.007 C 
ATOM     15  C   UNL     1      31.879 -22.702 -14.227  0.00  0.00    +0.035 C 
ENDBRANCH  10  12
ENDBRANCH   9  10
ENDBRANCH   8   9
ENDBRANCH   5   8
BRANCH   2  16
ATOM     16  C   UNL     1      34.901 -17.415 -22.864  0.00  0.00    +0.125 C 
BRANCH  16  17
ATOM     17  C   UNL     1      34.376 -16.089 -22.393  0.00  0.00    -0.005 C 
ATOM     18  C   UNL     1      33.909 -15.145 -23.302  0.00  0.00    -0.011 C 
ATOM     19  C   UNL     1      34.369 -15.821 -21.029  0.00  0.00    -0.003 C 
ATOM     20  C   UNL     1      33.429 -13.919 -22.840  0.00  0.00    +0.037 C 
ATOM     21  C   UNL     1      33.924 -15.443 -24.768  0.00  0.00    +0.032 C 
ATOM     22  C   UNL     1      33.888 -14.595 -20.567  0.00  0.00    +0.001 C 
ATOM     23  C   UNL     1      33.418 -13.645 -21.472  0.00  0.00    +0.014 C 
BRANCH  20  24
ATOM     24  N   UNL     1      32.946 -12.944 -23.742  0.00  0.00    -0.357 N 
ATOM     25  H   UNL     1      33.163 -13.010 -24.700  0.00  0.00    +0.142 HD
ATOM     26  H   UNL     1      32.394 -12.199 -23.411  0.00  0.00    +0.142 HD
ENDBRANCH  20  24
ENDBRANCH  16  17
ENDBRANCH   2  16
TORSDOF 7
ENDMDL
MODEL 2
REMARK VINA RESULT:     -11.0      2.268      2.612
REMARK  Name = 11844916
REMARK  7 active torsions:
REMARK  status: ('A' for Active; 'I' for Inactive)
REMARK    1  A    between atoms: N_2  and  C_16
REMARK    2  A    between atoms: C_5  and  O_8
REMARK    3  A    between atoms: O_8  and  C_9
REMARK    4  A    between atoms: C_9  and  C_10
REMARK    5  A    between atoms: C_10  and  C_12
REMARK    6  A    between atoms: C_16  and  C_17
REMARK    7  A    between atoms: C_20  and  N_24
REMARK                            x       y       z     vdW  Elec       q    Type
REMARK                         _______ _______ _______ _____ _____    ______ ____
ROOT
ATOM      1  O   UNL     1      37.179 -18.146 -21.302  0.00  0.00    -0.269 OA
ATOM      2  N   UNL     1      34.904 -18.501 -21.716  0.00  0.00    -0.250 N 
ATOM      3  C   UNL     1      36.120 -18.718 -21.054  0.00  0.00    +0.256 C 
ATOM      4  C   UNL     1      33.751 -19.188 -21.376  0.00  0.00    +0.071 C 
ATOM      5  C   UNL     1      34.952 -20.376 -19.671  0.00  0.00    +0.144 C 
ATOM      6  C   UNL     1      36.092 -19.738 -19.961  0.00  0.00    +0.095 C 
ATOM      7  C   UNL     1      33.737 -20.098 -20.396  0.00  0.00    +0.053 C 
ENDROOT
BRANCH   5   8
ATOM      8  O   UNL     1      34.893 -21.320 -18.670  0.00  0.00    -0.475 OA
BRANCH   8   9
ATOM      9  C   UNL     1      36.136 -21.431 -18.005  0.00  0.00    +0.211 C 
BRANCH   9  10
ATOM     10  C   UNL     1      35.973 -21.204 -16.506  0.00  0.00    +0.080 C 
BRANCH  10  12
ATOM     11  S   UNL     1      35.258 -23.406 -15.004  0.00  0.00    -0.091 S 
ATOM     12  C   UNL     1      36.432 -22.397 -15.699  0.00  0.00    +0.011 C 
ATOM     13  C   UNL     1      37.710 -22.781 -15.448  0.00  0.00    +0.003 C 
ATOM     14  C   UNL     1      37.741 -23.960 -14.648  0.00  0.00    +0.007 C 
ATOM     15  C   UNL     1      36.476 -24.406 -14.334  0.00  0.00    +0.035 C 
ENDBRANCH  10  12
ENDBRANCH   9  10
ENDBRANCH   8   9
ENDBRANCH   5   8
BRANCH   2  16
ATOM     16  C   UNL     1      34.818 -17.530 -22.800  0.00  0.00    +0.125 C 
BRANCH  16  17
ATOM     17  C   UNL     1      34.388 -16.177 -22.309  0.00  0.00    -0.005 C 
ATOM     18  C   UNL     1      34.038 -15.172 -23.205  0.00  0.00    -0.011 C 
ATOM     19  C   UNL     1      34.349 -15.948 -20.938  0.00  0.00    -0.003 C 
ATOM     20  C   UNL     1      33.645 -13.923 -22.724  0.00  0.00    +0.037 C 
ATOM     21  C   UNL     1      34.086 -15.430 -24.678  0.00  0.00    +0.032 C 
ATOM     22  C   UNL     1      33.956 -14.698 -20.456  0.00  0.00    +0.001 C 
ATOM     23  C   UNL     1      33.603 -13.687 -21.349  0.00  0.00    +0.014 C 
BRANCH  20  24
ATOM     24  N   UNL     1      33.282 -12.886 -23.612  0.00  0.00    -0.357 N 
ATOM     25  H   UNL     1      33.971 -12.444 -24.159  0.00  0.00    +0.142 HD
ATOM     26  H   UNL     1      32.341 -12.607 -23.682  0.00  0.00    +0.142 HD
ENDBRANCH  20  24
ENDBRANCH  16  17
ENDBRANCH   2  16
TORSDOF 7
ENDMDL
MODEL 3
REMARK VINA RESULT:     -10.9      4.407      8.671
REMARK  Name = 11844916
REMARK  7 active torsions:
REMARK  status: ('A' for Active; 'I' for Inactive)
REMARK    1  A    between atoms: N_2  and  C_16
REMARK    2  A    between atoms: C_5  and  O_8
REMARK    3  A    between atoms: O_8  and  C_9
REMARK    4  A    between atoms: C_9  and  C_10
REMARK    5  A    between atoms: C_10  and  C_12
REMARK    6  A    between atoms: C_16  and  C_17
REMARK    7  A    between atoms: C_20  and  N_24
REMARK                            x       y       z     vdW  Elec       q    Type
REMARK                         _______ _______ _______ _____ _____    ______ ____
ROOT
ATOM      1  O   UNL     1      33.860 -16.378 -25.101  0.00  0.00    -0.269 OA
ATOM      2  N   UNL     1      34.358 -16.766 -22.848  0.00  0.00    -0.250 N 
ATOM      3  C   UNL     1      33.962 -15.983 -23.941  0.00  0.00    +0.256 C 
ATOM      4  C   UNL     1      34.448 -16.246 -21.567  0.00  0.00    +0.071 C 
ATOM      5  C   UNL     1      33.750 -14.099 -22.382  0.00  0.00    +0.144 C 
ATOM      6  C   UNL     1      33.646 -14.554 -23.637  0.00  0.00    +0.095 C 
ATOM      7  C   UNL     1      34.163 -14.965 -21.307  0.00  0.00    +0.053 C 
ENDROOT
BRANCH   5   8
ATOM      8  O   UNL     1      33.465 -12.788 -22.069  0.00  0.00    -0.475 OA
BRANCH   8   9
ATOM      9  C   UNL     1      32.073 -12.545 -22.127  0.00  0.00    +0.211 C 
BRANCH   9  10
ATOM     10  C   UNL     1      31.520 -12.223 -20.743  0.00  0.00    +0.080 C 
BRANCH  10  12
ATOM     11  S   UNL     1      31.306  -9.703 -21.845  0.00  0.00    -0.091 S 
ATOM     12  C   UNL     1      31.421 -10.735 -20.503  0.00  0.00    +0.011 C 
ATOM     13  C   UNL     1      31.412 -10.090 -19.307  0.00  0.00    +0.003 C 
ATOM     14  C   UNL     1      31.306  -8.681 -19.487  0.00  0.00    +0.007 C 
ATOM     15  C   UNL     1      31.241  -8.333 -20.819  0.00  0.00    +0.035 C 
ENDBRANCH  10  12
ENDBRANCH   9  10
ENDBRANCH   8   9
ENDBRANCH   5   8
BRANCH   2  16
ATOM     16  C   UNL     1      34.691 -18.174 -23.031  0.00  0.00    +0.125 C 
BRANCH  16  17
ATOM     17  C   UNL     1      34.349 -18.993 -21.820  0.00  0.00    -0.005 C 
ATOM     18  C   UNL     1      35.332 -19.353 -20.903  0.00  0.00    -0.011 C 
ATOM     19  C   UNL     1      33.029 -19.389 -21.634  0.00  0.00    -0.003 C 
ATOM     20  C   UNL     1      34.989 -20.117 -19.787  0.00  0.00    +0.037 C 
ATOM     21  C   UNL     1      36.749 -18.923 -21.114  0.00  0.00    +0.032 C 
ATOM     22  C   UNL     1      32.687 -20.153 -20.518  0.00  0.00    +0.001 C 
ATOM     23  C   UNL     1      33.666 -20.517 -19.594  0.00  0.00    +0.014 C 
BRANCH  20  24
ATOM     24  N   UNL     1      35.967 -20.494 -18.839  0.00  0.00    -0.357 N 
ATOM     25  H   UNL     1      35.863 -21.331 -18.333  0.00  0.00    +0.142 HD
ATOM     26  H   UNL     1      36.750 -19.918 -18.686  0.00  0.00    +0.142 HD
ENDBRANCH  20  24
ENDBRANCH  16  17
ENDBRANCH   2  16
TORSDOF 7
ENDMDL
MODEL 4
REMARK VINA RESULT:     -10.8      4.008      8.664
REMARK  Name = 11844916
REMARK  7 active torsions:
REMARK  status: ('A' for Active; 'I' for Inactive)
REMARK    1  A    between atoms: N_2  and  C_16
REMARK    2  A    between atoms: C_5  and  O_8
REMARK    3  A    between atoms: O_8  and  C_9
REMARK    4  A    between atoms: C_9  and  C_10
REMARK    5  A    between atoms: C_10  and  C_12
REMARK    6  A    between atoms: C_16  and  C_17
REMARK    7  A    between atoms: C_20  and  N_24
REMARK                            x       y       z     vdW  Elec       q    Type
REMARK                         _______ _______ _______ _____ _____    ______ ____
ROOT
ATOM      1  O   UNL     1      34.560 -19.455 -23.711  0.00  0.00    -0.269 OA
ATOM      2  N   UNL     1      34.996 -18.273 -21.739  0.00  0.00    -0.250 N 
ATOM      3  C   UNL     1      34.570 -18.408 -23.068  0.00  0.00    +0.256 C 
ATOM      4  C   UNL     1      34.976 -17.054 -21.082  0.00  0.00    +0.071 C 
ATOM      5  C   UNL     1      34.096 -15.999 -23.050  0.00  0.00    +0.144 C 
ATOM      6  C   UNL     1      34.095 -17.153 -23.728  0.00  0.00    +0.095 C 
ATOM      7  C   UNL     1      34.549 -15.938 -21.683  0.00  0.00    +0.053 C 
ENDROOT
BRANCH   5   8
ATOM      8  O   UNL     1      33.665 -14.826 -23.630  0.00  0.00    -0.475 OA
BRANCH   8   9
ATOM      9  C   UNL     1      33.403 -13.843 -22.648  0.00  0.00    +0.211 C 
BRANCH   9  10
ATOM     10  C   UNL     1      33.294 -12.459 -23.280  0.00  0.00    +0.080 C 
BRANCH  10  12
ATOM     11  S   UNL     1      32.125  -9.969 -23.059  0.00  0.00    -0.091 S 
ATOM     12  C   UNL     1      32.323 -11.571 -22.536  0.00  0.00    +0.011 C 
ATOM     13  C   UNL     1      31.560 -11.901 -21.462  0.00  0.00    +0.003 C 
ATOM     14  C   UNL     1      30.768 -10.795 -21.039  0.00  0.00    +0.007 C 
ATOM     15  C   UNL     1      30.978  -9.679 -21.820  0.00  0.00    +0.035 C 
ENDBRANCH  10  12
ENDBRANCH   9  10
ENDBRANCH   8   9
ENDBRANCH   5   8
BRANCH   2  16
ATOM     16  C   UNL     1      35.480 -19.432 -20.999  0.00  0.00    +0.125 C 
BRANCH  16  17
ATOM     17  C   UNL     1      34.385 -20.095 -20.214  0.00  0.00    -0.005 C 
ATOM     18  C   UNL     1      34.683 -20.936 -19.147  0.00  0.00    -0.011 C 
ATOM     19  C   UNL     1      33.065 -19.854 -20.578  0.00  0.00    -0.003 C 
ATOM     20  C   UNL     1      33.648 -21.542 -18.435  0.00  0.00    +0.037 C 
ATOM     21  C   UNL     1      36.107 -21.190 -18.767  0.00  0.00    +0.032 C 
ATOM     22  C   UNL     1      32.029 -20.460 -19.865  0.00  0.00    +0.001 C 
ATOM     23  C   UNL     1      32.320 -21.303 -18.794  0.00  0.00    +0.014 C 
BRANCH  20  24
ATOM     24  N   UNL     1      33.922 -22.398 -17.345  0.00  0.00    -0.357 N 
ATOM     25  H   UNL     1      34.674 -22.200 -16.741  0.00  0.00    +0.142 HD
ATOM     26  H   UNL     1      33.362 -23.192 -17.190  0.00  0.00    +0.142 HD
ENDBRANCH  20  24
ENDBRANCH  16  17
ENDBRANCH   2  16
TORSDOF 7
ENDMDL
MODEL 5
REMARK VINA RESULT:     -10.7      2.328      3.548
REMARK  Name = 11844916
REMARK  7 active torsions:
REMARK  status: ('A' for Active; 'I' for Inactive)
REMARK    1  A    between atoms: N_2  and  C_16
REMARK    2  A    between atoms: C_5  and  O_8
REMARK    3  A    between atoms: O_8  and  C_9
REMARK    4  A    between atoms: C_9  and  C_10
REMARK    5  A    between atoms: C_10  and  C_12
REMARK    6  A    between atoms: C_16  and  C_17
REMARK    7  A    between atoms: C_20  and  N_24
REMARK                            x       y       z     vdW  Elec       q    Type
REMARK                         _______ _______ _______ _____ _____    ______ ____
ROOT
ATOM      1  O   UNL     1      33.184 -16.561 -25.016  0.00  0.00    -0.269 OA
ATOM      2  N   UNL     1      34.250 -15.837 -23.062  0.00  0.00    -0.250 N 
ATOM      3  C   UNL     1      33.718 -16.797 -23.933  0.00  0.00    +0.256 C 
ATOM      4  C   UNL     1      34.837 -16.184 -21.857  0.00  0.00    +0.071 C 
ATOM      5  C   UNL     1      34.400 -18.501 -22.304  0.00  0.00    +0.144 C 
ATOM      6  C   UNL     1      33.824 -18.217 -23.478  0.00  0.00    +0.095 C 
ATOM      7  C   UNL     1      34.926 -17.458 -21.460  0.00  0.00    +0.053 C 
ENDROOT
BRANCH   5   8
ATOM      8  O   UNL     1      34.513 -19.799 -21.856  0.00  0.00    -0.475 OA
BRANCH   8   9
ATOM      9  C   UNL     1      34.502 -19.849 -20.443  0.00  0.00    +0.211 C 
BRANCH   9  10
ATOM     10  C   UNL     1      35.647 -20.712 -19.921  0.00  0.00    +0.080 C 
BRANCH  10  12
ATOM     11  S   UNL     1      33.782 -21.998 -18.344  0.00  0.00    -0.091 S 
ATOM     12  C   UNL     1      35.325 -21.330 -18.580  0.00  0.00    +0.011 C 
ATOM     13  C   UNL     1      36.139 -21.425 -17.498  0.00  0.00    +0.003 C 
ATOM     14  C   UNL     1      35.479 -22.075 -16.416  0.00  0.00    +0.007 C 
ATOM     15  C   UNL     1      34.190 -22.439 -16.740  0.00  0.00    +0.035 C 
ENDBRANCH  10  12
ENDBRANCH   9  10
ENDBRANCH   8   9
ENDBRANCH   5   8
BRANCH   2  16
ATOM     16  C   UNL     1      34.198 -14.420 -23.406  0.00  0.00    +0.125 C 
BRANCH  16  17
ATOM     17  C   UNL     1      33.327 -13.645 -22.461  0.00  0.00    -0.005 C 
ATOM     18  C   UNL     1      32.776 -12.424 -22.839  0.00  0.00    -0.011 C 
ATOM     19  C   UNL     1      33.082 -14.170 -21.196  0.00  0.00    -0.003 C 
ATOM     20  C   UNL     1      31.971 -11.721 -21.941  0.00  0.00    +0.037 C 
ATOM     21  C   UNL     1      33.049 -11.868 -24.201  0.00  0.00    +0.032 C 
ATOM     22  C   UNL     1      32.277 -13.467 -20.299  0.00  0.00    +0.001 C 
ATOM     23  C   UNL     1      31.721 -12.243 -20.672  0.00  0.00    +0.014 C 
BRANCH  20  24
ATOM     24  N   UNL     1      31.398 -10.481 -22.301  0.00  0.00    -0.357 N 
ATOM     25  H   UNL     1      31.765  -9.971 -23.058  0.00  0.00    +0.142 HD
ATOM     26  H   UNL     1      30.632 -10.129 -21.794  0.00  0.00    +0.142 HD
ENDBRANCH  20  24
ENDBRANCH  16  17
ENDBRANCH   2  16
TORSDOF 7
ENDMDL
MODEL 6
REMARK VINA RESULT:     -10.6      3.703      8.538
REMARK  Name = 11844916
REMARK  7 active torsions:
REMARK  status: ('A' for Active; 'I' for Inactive)
REMARK    1  A    between atoms: N_2  and  C_16
REMARK    2  A    between atoms: C_5  and  O_8
REMARK    3  A    between atoms: O_8  and  C_9
REMARK    4  A    between atoms: C_9  and  C_10
REMARK    5  A    between atoms: C_10  and  C_12
REMARK    6  A    between atoms: C_16  and  C_17
REMARK    7  A    between atoms: C_20  and  N_24
REMARK                            x       y       z     vdW  Elec       q    Type
REMARK                         _______ _______ _______ _____ _____    ______ ____
ROOT
ATOM      1  O   UNL     1      32.188 -20.341 -20.176  0.00  0.00    -0.269 OA
ATOM      2  N   UNL     1      34.436 -20.786 -19.702  0.00  0.00    -0.250 N 
ATOM      3  C   UNL     1      33.382 -20.061 -20.272  0.00  0.00    +0.256 C 
ATOM      4  C   UNL     1      35.758 -20.404 -19.857  0.00  0.00    +0.071 C 
ATOM      5  C   UNL     1      35.067 -18.523 -21.179  0.00  0.00    +0.144 C 
ATOM      6  C   UNL     1      33.775 -18.850 -21.058  0.00  0.00    +0.095 C 
ATOM      7  C   UNL     1      36.098 -19.319 -20.562  0.00  0.00    +0.053 C 
ENDROOT
BRANCH   5   8
ATOM      8  O   UNL     1      35.462 -17.415 -21.895  0.00  0.00    -0.475 OA
BRANCH   8   9
ATOM      9  C   UNL     1      34.448 -17.004 -22.791  0.00  0.00    +0.211 C 
BRANCH   9  10
ATOM     10  C   UNL     1      34.698 -15.582 -23.281  0.00  0.00    +0.080 C 
BRANCH  10  12
ATOM     11  S   UNL     1      33.000 -13.408 -23.349  0.00  0.00    -0.091 S 
ATOM     12  C   UNL     1      33.903 -14.564 -22.496  0.00  0.00    +0.011 C 
ATOM     13  C   UNL     1      33.814 -14.449 -21.146  0.00  0.00    +0.003 C 
ATOM     14  C   UNL     1      32.966 -13.364 -20.780  0.00  0.00    +0.007 C 
ATOM     15  C   UNL     1      32.457 -12.712 -21.881  0.00  0.00    +0.035 C 
ENDBRANCH  10  12
ENDBRANCH   9  10
ENDBRANCH   8   9
ENDBRANCH   5   8
BRANCH   2  16
ATOM     16  C   UNL     1      34.167 -21.985 -18.917  0.00  0.00    +0.125 C 
BRANCH  16  17
ATOM     17  C   UNL     1      34.867 -21.955 -17.589  0.00  0.00    -0.005 C 
ATOM     18  C   UNL     1      34.222 -22.388 -16.435  0.00  0.00    -0.011 C 
ATOM     19  C   UNL     1      36.174 -21.483 -17.535  0.00  0.00    -0.003 C 
ATOM     20  C   UNL     1      34.893 -22.348 -15.212  0.00  0.00    +0.037 C 
ATOM     21  C   UNL     1      32.815 -22.892 -16.505  0.00  0.00    +0.032 C 
ATOM     22  C   UNL     1      36.845 -21.442 -16.312  0.00  0.00    +0.001 C 
ATOM     23  C   UNL     1      36.205 -21.875 -15.151  0.00  0.00    +0.014 C 
BRANCH  20  24
ATOM     24  N   UNL     1      34.263 -22.784 -14.025  0.00  0.00    -0.357 N 
ATOM     25  H   UNL     1      33.636 -23.543 -14.052  0.00  0.00    +0.142 HD
ATOM     26  H   UNL     1      34.451 -22.329 -13.173  0.00  0.00    +0.142 HD
ENDBRANCH  20  24
ENDBRANCH  16  17
ENDBRANCH   2  16
TORSDOF 7
ENDMDL
MODEL 7
REMARK VINA RESULT:     -10.5      4.454      7.603
REMARK  Name = 11844916
REMARK  7 active torsions:
REMARK  status: ('A' for Active; 'I' for Inactive)
REMARK    1  A    between atoms: N_2  and  C_16
REMARK    2  A    between atoms: C_5  and  O_8
REMARK    3  A    between atoms: O_8  and  C_9
REMARK    4  A    between atoms: C_9  and  C_10
REMARK    5  A    between atoms: C_10  and  C_12
REMARK    6  A    between atoms: C_16  and  C_17
REMARK    7  A    between atoms: C_20  and  N_24
REMARK                            x       y       z     vdW  Elec       q    Type
REMARK                         _______ _______ _______ _____ _____    ______ ____
ROOT
ATOM      1  O   UNL     1      31.911 -12.370 -19.872  0.00  0.00    -0.269 OA
ATOM      2  N   UNL     1      31.816 -11.666 -22.101  0.00  0.00    -0.250 N 
ATOM      3  C   UNL     1      32.258 -12.475 -21.046  0.00  0.00    +0.256 C 
ATOM      4  C   UNL     1      32.255 -11.850 -23.402  0.00  0.00    +0.071 C 
ATOM      5  C   UNL     1      33.629 -13.683 -22.686  0.00  0.00    +0.144 C 
ATOM      6  C   UNL     1      33.234 -13.547 -21.415  0.00  0.00    +0.095 C 
ATOM      7  C   UNL     1      33.128 -12.811 -23.719  0.00  0.00    +0.053 C 
ENDROOT
BRANCH   5   8
ATOM      8  O   UNL     1      34.526 -14.660 -23.058  0.00  0.00    -0.475 OA
BRANCH   8   9
ATOM      9  C   UNL     1      34.552 -15.710 -22.110  0.00  0.00    +0.211 C 
BRANCH   9  10
ATOM     10  C   UNL     1      34.816 -17.049 -22.789  0.00  0.00    +0.080 C 
BRANCH  10  12
ATOM     11  S   UNL     1      33.883 -19.242 -21.397  0.00  0.00    -0.091 S 
ATOM     12  C   UNL     1      35.115 -18.143 -21.790  0.00  0.00    +0.011 C 
ATOM     13  C   UNL     1      36.286 -18.368 -21.140  0.00  0.00    +0.003 C 
ATOM     14  C   UNL     1      36.181 -19.496 -20.275  0.00  0.00    +0.007 C 
ATOM     15  C   UNL     1      34.927 -20.065 -20.317  0.00  0.00    +0.035 C 
ENDBRANCH  10  12
ENDBRANCH   9  10
ENDBRANCH   8   9
ENDBRANCH   5   8
BRANCH   2  16
ATOM     16  C   UNL     1      30.864 -10.588 -21.855  0.00  0.00    +0.125 C 
BRANCH  16  17
ATOM     17  C   UNL     1      31.541  -9.250 -21.770  0.00  0.00    -0.005 C 
ATOM     18  C   UNL     1      31.643  -8.580 -20.556  0.00  0.00    -0.011 C 
ATOM     19  C   UNL     1      32.064  -8.693 -22.932  0.00  0.00    -0.003 C 
ATOM     20  C   UNL     1      32.274  -7.336 -20.503  0.00  0.00    +0.037 C 
ATOM     21  C   UNL     1      31.075  -9.188 -19.313  0.00  0.00    +0.032 C 
ATOM     22  C   UNL     1      32.696  -7.450 -22.880  0.00  0.00    +0.001 C 
ATOM     23  C   UNL     1      32.801  -6.772 -21.666  0.00  0.00    +0.014 C 
BRANCH  20  24
ATOM     24  N   UNL     1      32.393  -6.635 -19.283  0.00  0.00    -0.357 N 
ATOM     25  H   UNL     1      31.815  -6.872 -18.522  0.00  0.00    +0.142 HD
ATOM     26  H   UNL     1      33.053  -5.911 -19.195  0.00  0.00    +0.142 HD
ENDBRANCH  20  24
ENDBRANCH  16  17
ENDBRANCH   2  16
TORSDOF 7
ENDMDL
MODEL 8
REMARK VINA RESULT:     -10.4      4.162      6.909
REMARK  Name = 11844916
REMARK  7 active torsions:
REMARK  status: ('A' for Active; 'I' for Inactive)
REMARK    1  A    between atoms: N_2  and  C_16
REMARK    2  A    between atoms: C_5  and  O_8
REMARK    3  A    between atoms: O_8  and  C_9
REMARK    4  A    between atoms: C_9  and  C_10
REMARK    5  A    between atoms: C_10  and  C_12
REMARK    6  A    between atoms: C_16  and  C_17
REMARK    7  A    between atoms: C_20  and  N_24
REMARK                            x       y       z     vdW  Elec       q    Type
REMARK                         _______ _______ _______ _____ _____    ______ ____
ROOT
ATOM      1  O   UNL     1      32.878 -11.886 -23.881  0.00  0.00    -0.269 OA
ATOM      2  N   UNL     1      31.839 -12.233 -21.813  0.00  0.00    -0.250 N 
ATOM      3  C   UNL     1      32.780 -12.496 -22.818  0.00  0.00    +0.256 C 
ATOM      4  C   UNL     1      31.794 -12.968 -20.640  0.00  0.00    +0.071 C 
ATOM      5  C   UNL     1      33.642 -14.300 -21.394  0.00  0.00    +0.144 C 
ATOM      6  C   UNL     1      33.728 -13.619 -22.543  0.00  0.00    +0.095 C 
ATOM      7  C   UNL     1      32.647 -13.970 -20.405  0.00  0.00    +0.053 C 
ENDROOT
BRANCH   5   8
ATOM      8  O   UNL     1      34.501 -15.339 -21.110  0.00  0.00    -0.475 OA
BRANCH   8   9
ATOM      9  C   UNL     1      34.397 -16.360 -22.084  0.00  0.00    +0.211 C 
BRANCH   9  10
ATOM     10  C   UNL     1      35.623 -17.267 -22.053  0.00  0.00    +0.080 C 
BRANCH  10  12
ATOM     11  S   UNL     1      33.869 -19.233 -21.234  0.00  0.00    -0.091 S 
ATOM     12  C   UNL     1      35.397 -18.497 -21.205  0.00  0.00    +0.011 C 
ATOM     13  C   UNL     1      36.293 -19.113 -20.390  0.00  0.00    +0.003 C 
ATOM     14  C   UNL     1      35.708 -20.247 -19.754  0.00  0.00    +0.007 C 
ATOM     15  C   UNL     1      34.394 -20.427 -20.124  0.00  0.00    +0.035 C 
ENDBRANCH  10  12
ENDBRANCH   9  10
ENDBRANCH   8   9
ENDBRANCH   5   8
BRANCH   2  16
ATOM     16  C   UNL     1      30.865 -11.160 -21.978  0.00  0.00    +0.125 C 
BRANCH  16  17
ATOM     17  C   UNL     1      31.234  -9.940 -21.183  0.00  0.00    -0.005 C 
ATOM     18  C   UNL     1      31.657  -8.778 -21.820  0.00  0.00    -0.011 C 
ATOM     19  C   UNL     1      31.148  -9.996 -19.797  0.00  0.00    -0.003 C 
ATOM     20  C   UNL     1      31.997  -7.658 -21.060  0.00  0.00    +0.037 C 
ATOM     21  C   UNL     1      31.748  -8.730 -23.313  0.00  0.00    +0.032 C 
ATOM     22  C   UNL     1      31.488  -8.877 -19.037  0.00  0.00    +0.001 C 
ATOM     23  C   UNL     1      31.912  -7.708 -19.668  0.00  0.00    +0.014 C 
BRANCH  20  24
ATOM     24  N   UNL     1      32.427  -6.464 -21.681  0.00  0.00    -0.357 N 
ATOM     25  H   UNL     1      32.097  -6.231 -22.579  0.00  0.00    +0.142 HD
ATOM     26  H   UNL     1      33.055  -5.867 -21.215  0.00  0.00    +0.142 HD
ENDBRANCH  20  24
ENDBRANCH  16  17
ENDBRANCH   2  16
TORSDOF 7
ENDMDL
MODEL 9
REMARK VINA RESULT:     -10.2      4.672     10.031
REMARK  Name = 11844916
REMARK  7 active torsions:
REMARK  status: ('A' for Active; 'I' for Inactive)
REMARK    1  A    between atoms: N_2  and  C_16
REMARK    2  A    between atoms: C_5  and  O_8
REMARK    3  A    between atoms: O_8  and  C_9
REMARK    4  A    between atoms: C_9  and  C_10
REMARK    5  A    between atoms: C_10  and  C_12
REMARK    6  A    between atoms: C_16  and  C_17
REMARK    7  A    between atoms: C_20  and  N_24
REMARK                            x       y       z     vdW  Elec       q    Type
REMARK                         _______ _______ _______ _____ _____    ______ ____
ROOT
ATOM      1  O   UNL     1      32.586 -22.964 -17.109  0.00  0.00    -0.269 OA
ATOM      2  N   UNL     1      34.645 -22.490 -16.105  0.00  0.00    -0.250 N 
ATOM      3  C   UNL     1      33.721 -22.495 -17.158  0.00  0.00    +0.256 C 
ATOM      4  C   UNL     1      35.909 -21.940 -16.240  0.00  0.00    +0.071 C 
ATOM      5  C   UNL     1      35.419 -21.353 -18.515  0.00  0.00    +0.144 C 
ATOM      6  C   UNL     1      34.187 -21.870 -18.434  0.00  0.00    +0.095 C 
ATOM      7  C   UNL     1      36.315 -21.384 -17.386  0.00  0.00    +0.053 C 
ENDROOT
BRANCH   5   8
ATOM      8  O   UNL     1      35.878 -20.771 -19.676  0.00  0.00    -0.475 OA
BRANCH   8   9
ATOM      9  C   UNL     1      34.840 -20.074 -20.336  0.00  0.00    +0.211 C 
BRANCH   9  10
ATOM     10  C   UNL     1      35.294 -18.674 -20.737  0.00  0.00    +0.080 C 
BRANCH  10  12
ATOM     11  S   UNL     1      34.736 -16.590 -22.458  0.00  0.00    -0.091 S 
ATOM     12  C   UNL     1      34.691 -18.237 -22.052  0.00  0.00    +0.011 C 
ATOM     13  C   UNL     1      34.095 -19.021 -22.987  0.00  0.00    +0.003 C 
ATOM     14  C   UNL     1      33.650 -18.245 -24.096  0.00  0.00    +0.007 C 
ATOM     15  C   UNL     1      33.934 -16.907 -23.938  0.00  0.00    +0.035 C 
ENDBRANCH  10  12
ENDBRANCH   9  10
ENDBRANCH   8   9
ENDBRANCH   5   8
BRANCH   2  16
ATOM     16  C   UNL     1      34.297 -23.075 -14.815  0.00  0.00    +0.125 C 
BRANCH  16  17
ATOM     17  C   UNL     1      35.257 -24.157 -14.412  0.00  0.00    -0.005 C 
ATOM     18  C   UNL     1      36.047 -24.020 -13.275  0.00  0.00    -0.011 C 
ATOM     19  C   UNL     1      35.342 -25.300 -15.199  0.00  0.00    -0.003 C 
ATOM     20  C   UNL     1      36.933 -25.038 -12.922  0.00  0.00    +0.037 C 
ATOM     21  C   UNL     1      35.948 -22.785 -12.436  0.00  0.00    +0.032 C 
ATOM     22  C   UNL     1      36.229 -26.318 -14.846  0.00  0.00    +0.001 C 
ATOM     23  C   UNL     1      37.023 -26.188 -13.708  0.00  0.00    +0.014 C 
BRANCH  20  24
ATOM     24  N   UNL     1      37.745 -24.926 -11.772  0.00  0.00    -0.357 N 
ATOM     25  H   UNL     1      38.508 -25.535 -11.647  0.00  0.00    +0.142 HD
ATOM     26  H   UNL     1      37.547 -24.238 -11.096  0.00  0.00    +0.142 HD
ENDBRANCH  20  24
ENDBRANCH  16  17
ENDBRANCH   2  16
TORSDOF 7
ENDMDL
