MODEL 1
REMARK VINA RESULT:     -11.9      0.000      0.000
REMARK  Name = 24886843
REMARK  5 active torsions:
REMARK  status: ('A' for Active; 'I' for Inactive)
REMARK    1  A    between atoms: C_3  and  C_19
REMARK    2  A    between atoms: C_6  and  O_9
REMARK    3  A    between atoms: O_9  and  C_11
REMARK    4  A    between atoms: C_14  and  C_18
REMARK    5  A    between atoms: C_19  and  C_24
REMARK                            x       y       z     vdW  Elec       q    Type
REMARK                         _______ _______ _______ _____ _____    ______ ____
ROOT
ATOM      1 BR   UNL     1      33.195 -15.098 -25.360  0.00  0.00    -0.046 Br
ATOM      2  F   UNL     1      35.531 -16.739 -20.963  0.00  0.00    -0.201 F 
ATOM      3  C   UNL     1      34.589 -18.411 -22.355  0.00  0.00    +0.014 C 
ATOM      4  C   UNL     1      34.868 -17.073 -22.080  0.00  0.00    +0.171 C 
ATOM      5  C   UNL     1      33.901 -18.755 -23.517  0.00  0.00    -0.001 C 
ATOM      6  C   UNL     1      34.457 -16.078 -22.967  0.00  0.00    +0.178 C 
ATOM      7  C   UNL     1      33.490 -17.761 -24.405  0.00  0.00    +0.010 C 
ATOM      8  C   UNL     1      33.769 -16.422 -24.130  0.00  0.00    +0.071 C 
ENDROOT
BRANCH   6   9
ATOM      9  O   UNL     1      34.744 -14.778 -22.671  0.00  0.00    -0.451 OA
BRANCH   9  11
ATOM     10 CL   UNL     1      31.442 -14.361 -18.798  0.00  0.00    -0.082 Cl
ATOM     11  C   UNL     1      33.765 -14.033 -22.038  0.00  0.00    +0.147 C 
ATOM     12  C   UNL     1      33.376 -12.801 -22.562  0.00  0.00    +0.048 C 
ATOM     13  C   UNL     1      33.167 -14.516 -20.874  0.00  0.00    +0.049 C 
ATOM     14  C   UNL     1      32.389 -12.051 -21.923  0.00  0.00    +0.072 C 
ATOM     15  C   UNL     1      32.180 -13.766 -20.234  0.00  0.00    +0.061 C 
ATOM     16  C   UNL     1      31.791 -12.534 -20.760  0.00  0.00    +0.022 C 
BRANCH  14  18
ATOM     17  N   UNL     1      31.669  -9.763 -22.898  0.00  0.00    -0.191 NA
ATOM     18  C   UNL     1      31.992 -10.789 -22.461  0.00  0.00    +0.101 C 
ENDBRANCH  14  18
ENDBRANCH   9  11
ENDBRANCH   6   9
BRANCH   3  19
ATOM     19  C   UNL     1      35.036 -19.499 -21.388  0.00  0.00    +0.072 C 
BRANCH  19  24
ATOM     20  N   UNL     1      32.635 -19.832 -20.843  0.00  0.00    -0.231 N 
ATOM     21  N   UNL     1      31.770 -20.431 -19.997  0.00  0.00    -0.126 NA
ATOM     22  N   UNL     1      32.221 -21.853 -18.083  0.00  0.00    -0.103 NA
ATOM     23  N   UNL     1      33.275 -22.385 -17.404  0.00  0.00    -0.107 NA
ATOM     24  C   UNL     1      33.954 -20.073 -20.569  0.00  0.00    +0.057 C 
ATOM     25  C   UNL     1      33.940 -20.884 -19.467  0.00  0.00    +0.078 C 
ATOM     26  C   UNL     1      32.570 -21.081 -19.146  0.00  0.00    +0.072 C 
ATOM     27  C   UNL     1      35.047 -21.391 -18.822  0.00  0.00    +0.031 C 
ATOM     28  C   UNL     1      34.589 -22.161 -17.761  0.00  0.00    +0.110 C 
ATOM     29  H   UNL     1      32.341 -19.269 -21.595  0.00  0.00    +0.175 HD
ENDBRANCH  19  24
ENDBRANCH   3  19
TORSDOF 5
ENDMDL
MODEL 2
REMARK VINA RESULT:     -11.0      4.248      8.724
REMARK  Name = 24886843
REMARK  5 active torsions:
REMARK  status: ('A' for Active; 'I' for Inactive)
REMARK    1  A    between atoms: C_3  and  C_19
REMARK    2  A    between atoms: C_6  and  O_9
REMARK    3  A    between atoms: O_9  and  C_11
REMARK    4  A    between atoms: C_14  and  C_18
REMARK    5  A    between atoms: C_19  and  C_24
REMARK                            x       y       z     vdW  Elec       q    Type
REMARK                         _______ _______ _______ _____ _____    ______ ____
ROOT
ATOM      1 BR   UNL     1      31.680 -22.166 -17.519  0.00  0.00    -0.046 Br
ATOM      2  F   UNL     1      35.961 -21.075 -20.343  0.00  0.00    -0.201 F 
ATOM      3  C   UNL     1      34.013 -19.815 -20.834  0.00  0.00    +0.014 C 
ATOM      4  C   UNL     1      34.671 -20.803 -20.100  0.00  0.00    +0.171 C 
ATOM      5  C   UNL     1      32.671 -19.534 -20.578  0.00  0.00    -0.001 C 
ATOM      6  C   UNL     1      33.986 -21.509 -19.111  0.00  0.00    +0.178 C 
ATOM      7  C   UNL     1      31.986 -20.240 -19.589  0.00  0.00    +0.010 C 
ATOM      8  C   UNL     1      32.644 -21.228 -18.855  0.00  0.00    +0.071 C 
ENDROOT
BRANCH   6   9
ATOM      9  O   UNL     1      34.655 -22.469 -18.411  0.00  0.00    -0.451 OA
BRANCH   9  11
ATOM     10 CL   UNL     1      38.317 -19.464 -16.505  0.00  0.00    -0.082 Cl
ATOM     11  C   UNL     1      35.388 -22.066 -17.309  0.00  0.00    +0.147 C 
ATOM     12  C   UNL     1      35.149 -22.643 -16.062  0.00  0.00    +0.048 C 
ATOM     13  C   UNL     1      36.368 -21.083 -17.447  0.00  0.00    +0.049 C 
ATOM     14  C   UNL     1      35.888 -22.236 -14.952  0.00  0.00    +0.072 C 
ATOM     15  C   UNL     1      37.108 -20.677 -16.336  0.00  0.00    +0.061 C 
ATOM     16  C   UNL     1      36.868 -21.253 -15.089  0.00  0.00    +0.022 C 
BRANCH  14  18
ATOM     17  N   UNL     1      35.440 -23.307 -12.637  0.00  0.00    -0.191 NA
ATOM     18  C   UNL     1      35.641 -22.827 -13.674  0.00  0.00    +0.101 C 
ENDBRANCH  14  18
ENDBRANCH   9  11
ENDBRANCH   6   9
BRANCH   3  19
ATOM     19  C   UNL     1      34.758 -19.042 -21.914  0.00  0.00    +0.072 C 
BRANCH  19  24
ATOM     20  N   UNL     1      34.715 -16.877 -20.695  0.00  0.00    -0.231 N 
ATOM     21  N   UNL     1      34.510 -15.549 -20.817  0.00  0.00    -0.126 NA
ATOM     22  N   UNL     1      33.930 -14.253 -22.784  0.00  0.00    -0.103 NA
ATOM     23  N   UNL     1      33.683 -14.426 -24.112  0.00  0.00    -0.107 NA
ATOM     24  C   UNL     1      34.572 -17.582 -21.860  0.00  0.00    +0.057 C 
ATOM     25  C   UNL     1      34.251 -16.641 -22.800  0.00  0.00    +0.078 C 
ATOM     26  C   UNL     1      34.223 -15.397 -22.113  0.00  0.00    +0.072 C 
ATOM     27  C   UNL     1      34.010 -16.882 -24.135  0.00  0.00    +0.031 C 
ATOM     28  C   UNL     1      33.723 -15.659 -24.729  0.00  0.00    +0.110 C 
ATOM     29  H   UNL     1      34.948 -17.305 -19.839  0.00  0.00    +0.175 HD
ENDBRANCH  19  24
ENDBRANCH   3  19
TORSDOF 5
ENDMDL
MODEL 3
REMARK VINA RESULT:     -10.9      5.779     10.229
REMARK  Name = 24886843
REMARK  5 active torsions:
REMARK  status: ('A' for Active; 'I' for Inactive)
REMARK    1  A    between atoms: C_3  and  C_19
REMARK    2  A    between atoms: C_6  and  O_9
REMARK    3  A    between atoms: O_9  and  C_11
REMARK    4  A    between atoms: C_14  and  C_18
REMARK    5  A    between atoms: C_19  and  C_24
REMARK                            x       y       z     vdW  Elec       q    Type
REMARK                         _______ _______ _______ _____ _____    ______ ____
ROOT
ATOM      1 BR   UNL     1      32.595 -22.712 -14.812  0.00  0.00    -0.046 Br
ATOM      2  F   UNL     1      36.780 -21.211 -17.591  0.00  0.00    -0.201 F 
ATOM      3  C   UNL     1      34.838 -21.789 -18.821  0.00  0.00    +0.014 C 
ATOM      4  C   UNL     1      35.506 -21.628 -17.607  0.00  0.00    +0.171 C 
ATOM      5  C   UNL     1      33.512 -22.221 -18.835  0.00  0.00    -0.001 C 
ATOM      6  C   UNL     1      34.848 -21.900 -16.408  0.00  0.00    +0.178 C 
ATOM      7  C   UNL     1      32.854 -22.494 -17.635  0.00  0.00    +0.010 C 
ATOM      8  C   UNL     1      33.522 -22.333 -16.421  0.00  0.00    +0.071 C 
ENDROOT
BRANCH   6   9
ATOM      9  O   UNL     1      35.527 -21.734 -15.237  0.00  0.00    -0.451 OA
BRANCH   9  11
ATOM     10 CL   UNL     1      36.569 -26.731 -15.072  0.00  0.00    -0.082 Cl
ATOM     11  C   UNL     1      35.765 -22.859 -14.467  0.00  0.00    +0.147 C 
ATOM     12  C   UNL     1      35.752 -22.769 -13.076  0.00  0.00    +0.048 C 
ATOM     13  C   UNL     1      36.017 -24.084 -15.085  0.00  0.00    +0.049 C 
ATOM     14  C   UNL     1      35.992 -23.904 -12.301  0.00  0.00    +0.072 C 
ATOM     15  C   UNL     1      36.257 -25.219 -14.311  0.00  0.00    +0.061 C 
ATOM     16  C   UNL     1      36.244 -25.128 -12.919  0.00  0.00    +0.022 C 
BRANCH  14  18
ATOM     17  N   UNL     1      35.968 -23.733  -9.717  0.00  0.00    -0.191 NA
ATOM     18  C   UNL     1      35.979 -23.810 -10.875  0.00  0.00    +0.101 C 
ENDBRANCH  14  18
ENDBRANCH   9  11
ENDBRANCH   6   9
BRANCH   3  19
ATOM     19  C   UNL     1      35.553 -21.493 -20.132  0.00  0.00    +0.072 C 
BRANCH  19  24
ATOM     20  N   UNL     1      36.486 -19.215 -19.788  0.00  0.00    -0.231 N 
ATOM     21  N   UNL     1      36.455 -17.936 -20.218  0.00  0.00    -0.126 NA
ATOM     22  N   UNL     1      35.141 -16.939 -21.997  0.00  0.00    -0.103 NA
ATOM     23  N   UNL     1      34.213 -17.289 -22.931  0.00  0.00    -0.107 NA
ATOM     24  C   UNL     1      35.650 -20.061 -20.466  0.00  0.00    +0.057 C 
ATOM     25  C   UNL     1      35.034 -19.271 -21.399  0.00  0.00    +0.078 C 
ATOM     26  C   UNL     1      35.561 -17.964 -21.211  0.00  0.00    +0.072 C 
ATOM     27  C   UNL     1      34.098 -19.687 -22.320  0.00  0.00    +0.031 C 
ATOM     28  C   UNL     1      33.735 -18.576 -23.070  0.00  0.00    +0.110 C 
ATOM     29  H   UNL     1      37.063 -19.516 -19.049  0.00  0.00    +0.175 HD
ENDBRANCH  19  24
ENDBRANCH   3  19
TORSDOF 5
ENDMDL
MODEL 4
REMARK VINA RESULT:     -10.9      4.236      6.368
REMARK  Name = 24886843
REMARK  5 active torsions:
REMARK  status: ('A' for Active; 'I' for Inactive)
REMARK    1  A    between atoms: C_3  and  C_19
REMARK    2  A    between atoms: C_6  and  O_9
REMARK    3  A    between atoms: O_9  and  C_11
REMARK    4  A    between atoms: C_14  and  C_18
REMARK    5  A    between atoms: C_19  and  C_24
REMARK                            x       y       z     vdW  Elec       q    Type
REMARK                         _______ _______ _______ _____ _____    ______ ____
ROOT
ATOM      1 BR   UNL     1      30.071 -10.385 -20.512  0.00  0.00    -0.046 Br
ATOM      2  F   UNL     1      33.455 -11.527 -24.351  0.00  0.00    -0.201 F 
ATOM      3  C   UNL     1      33.387 -13.023 -22.513  0.00  0.00    +0.014 C 
ATOM      4  C   UNL     1      32.939 -11.873 -23.162  0.00  0.00    +0.171 C 
ATOM      5  C   UNL     1      32.847 -13.381 -21.278  0.00  0.00    -0.001 C 
ATOM      6  C   UNL     1      31.953 -11.080 -22.575  0.00  0.00    +0.178 C 
ATOM      7  C   UNL     1      31.861 -12.588 -20.691  0.00  0.00    +0.010 C 
ATOM      8  C   UNL     1      31.413 -11.437 -21.340  0.00  0.00    +0.071 C 
ENDROOT
BRANCH   6   9
ATOM      9  O   UNL     1      31.536  -9.961 -23.234  0.00  0.00    -0.451 OA
BRANCH   9  11
ATOM     10 CL   UNL     1      34.563  -6.190 -24.878  0.00  0.00    -0.082 Cl
ATOM     11  C   UNL     1      32.187  -8.772 -22.956  0.00  0.00    +0.147 C 
ATOM     12  C   UNL     1      32.077  -8.194 -21.692  0.00  0.00    +0.048 C 
ATOM     13  C   UNL     1      32.957  -8.153 -23.942  0.00  0.00    +0.049 C 
ATOM     14  C   UNL     1      32.734  -6.996 -21.413  0.00  0.00    +0.072 C 
ATOM     15  C   UNL     1      33.614  -6.955 -23.662  0.00  0.00    +0.061 C 
ATOM     16  C   UNL     1      33.502  -6.377 -22.398  0.00  0.00    +0.022 C 
BRANCH  14  18
ATOM     17  N   UNL     1      32.525  -5.924 -19.065  0.00  0.00    -0.191 NA
ATOM     18  C   UNL     1      32.618  -6.404 -20.117  0.00  0.00    +0.101 C 
ENDBRANCH  14  18
ENDBRANCH   9  11
ENDBRANCH   6   9
BRANCH   3  19
ATOM     19  C   UNL     1      34.463 -13.891 -23.151  0.00  0.00    +0.072 C 
BRANCH  19  24
ATOM     20  N   UNL     1      33.129 -15.204 -24.787  0.00  0.00    -0.231 N 
ATOM     21  N   UNL     1      32.774 -16.447 -25.171  0.00  0.00    -0.126 NA
ATOM     22  N   UNL     1      33.408 -18.593 -24.232  0.00  0.00    -0.103 NA
ATOM     23  N   UNL     1      34.169 -19.107 -23.227  0.00  0.00    -0.107 NA
ATOM     24  C   UNL     1      33.972 -15.163 -23.708  0.00  0.00    +0.057 C 
ATOM     25  C   UNL     1      34.174 -16.475 -23.373  0.00  0.00    +0.078 C 
ATOM     26  C   UNL     1      33.414 -17.236 -24.303  0.00  0.00    +0.072 C 
ATOM     27  C   UNL     1      34.959 -16.934 -22.338  0.00  0.00    +0.031 C 
ATOM     28  C   UNL     1      34.888 -18.321 -22.350  0.00  0.00    +0.110 C 
ATOM     29  H   UNL     1      32.810 -14.392 -25.243  0.00  0.00    +0.175 HD
ENDBRANCH  19  24
ENDBRANCH   3  19
TORSDOF 5
ENDMDL
MODEL 5
REMARK VINA RESULT:     -10.7      6.374     10.700
REMARK  Name = 24886843
REMARK  5 active torsions:
REMARK  status: ('A' for Active; 'I' for Inactive)
REMARK    1  A    between atoms: C_3  and  C_19
REMARK    2  A    between atoms: C_6  and  O_9
REMARK    3  A    between atoms: O_9  and  C_11
REMARK    4  A    between atoms: C_14  and  C_18
REMARK    5  A    between atoms: C_19  and  C_24
REMARK                            x       y       z     vdW  Elec       q    Type
REMARK                         _______ _______ _______ _____ _____    ______ ____
ROOT
ATOM      1 BR   UNL     1      31.924 -22.729 -12.787  0.00  0.00    -0.046 Br
ATOM      2  F   UNL     1      35.305 -22.182 -16.756  0.00  0.00    -0.201 F 
ATOM      3  C   UNL     1      33.103 -22.855 -17.320  0.00  0.00    +0.014 C 
ATOM      4  C   UNL     1      34.059 -22.492 -16.371  0.00  0.00    +0.171 C 
ATOM      5  C   UNL     1      31.807 -23.176 -16.916  0.00  0.00    -0.001 C 
ATOM      6  C   UNL     1      33.718 -22.452 -15.019  0.00  0.00    +0.178 C 
ATOM      7  C   UNL     1      31.467 -23.136 -15.564  0.00  0.00    +0.010 C 
ATOM      8  C   UNL     1      32.423 -22.773 -14.615  0.00  0.00    +0.071 C 
ENDROOT
BRANCH   6   9
ATOM      9  O   UNL     1      34.675 -22.094 -14.114  0.00  0.00    -0.451 OA
BRANCH   9  11
ATOM     10 CL   UNL     1      35.275 -24.381  -9.588  0.00  0.00    -0.082 Cl
ATOM     11  C   UNL     1      35.271 -23.102 -13.378  0.00  0.00    +0.147 C 
ATOM     12  C   UNL     1      36.141 -23.999 -13.998  0.00  0.00    +0.048 C 
ATOM     13  C   UNL     1      35.004 -23.219 -12.014  0.00  0.00    +0.049 C 
ATOM     14  C   UNL     1      36.742 -25.015 -13.256  0.00  0.00    +0.072 C 
ATOM     15  C   UNL     1      35.605 -24.235 -11.271  0.00  0.00    +0.061 C 
ATOM     16  C   UNL     1      36.474 -25.132 -11.892  0.00  0.00    +0.022 C 
BRANCH  14  18
ATOM     17  N   UNL     1      38.354 -26.680 -14.409  0.00  0.00    -0.191 NA
ATOM     18  C   UNL     1      37.631 -25.933 -13.892  0.00  0.00    +0.101 C 
ENDBRANCH  14  18
ENDBRANCH   9  11
ENDBRANCH   6   9
BRANCH   3  19
ATOM     19  C   UNL     1      33.471 -22.900 -18.797  0.00  0.00    +0.072 C 
BRANCH  19  24
ATOM     20  N   UNL     1      32.240 -21.074 -19.949  0.00  0.00    -0.231 N 
ATOM     21  N   UNL     1      32.363 -19.873 -20.551  0.00  0.00    -0.126 NA
ATOM     22  N   UNL     1      34.349 -18.529 -20.918  0.00  0.00    -0.103 NA
ATOM     23  N   UNL     1      35.690 -18.560 -20.677  0.00  0.00    -0.107 NA
ATOM     24  C   UNL     1      33.415 -21.597 -19.481  0.00  0.00    +0.057 C 
ATOM     25  C   UNL     1      34.365 -20.666 -19.806  0.00  0.00    +0.078 C 
ATOM     26  C   UNL     1      33.672 -19.617 -20.466  0.00  0.00    +0.072 C 
ATOM     27  C   UNL     1      35.713 -20.758 -19.533  0.00  0.00    +0.031 C 
ATOM     28  C   UNL     1      36.313 -19.607 -20.029  0.00  0.00    +0.110 C 
ATOM     29  H   UNL     1      31.376 -21.537 -19.854  0.00  0.00    +0.175 HD
ENDBRANCH  19  24
ENDBRANCH   3  19
TORSDOF 5
ENDMDL
MODEL 6
REMARK VINA RESULT:     -10.6      5.056      8.789
REMARK  Name = 24886843
REMARK  5 active torsions:
REMARK  status: ('A' for Active; 'I' for Inactive)
REMARK    1  A    between atoms: C_3  and  C_19
REMARK    2  A    between atoms: C_6  and  O_9
REMARK    3  A    between atoms: O_9  and  C_11
REMARK    4  A    between atoms: C_14  and  C_18
REMARK    5  A    between atoms: C_19  and  C_24
REMARK                            x       y       z     vdW  Elec       q    Type
REMARK                         _______ _______ _______ _____ _____    ______ ____
ROOT
ATOM      1 BR   UNL     1      36.055 -22.527 -15.436  0.00  0.00    -0.046 Br
ATOM      2  F   UNL     1      32.839 -22.557 -19.577  0.00  0.00    -0.201 F 
ATOM      3  C   UNL     1      34.647 -21.026 -19.646  0.00  0.00    +0.014 C 
ATOM      4  C   UNL     1      33.926 -22.029 -18.997  0.00  0.00    +0.171 C 
ATOM      5  C   UNL     1      35.778 -20.479 -19.041  0.00  0.00    -0.001 C 
ATOM      6  C   UNL     1      34.336 -22.483 -17.743  0.00  0.00    +0.178 C 
ATOM      7  C   UNL     1      36.188 -20.933 -17.787  0.00  0.00    +0.010 C 
ATOM      8  C   UNL     1      35.467 -21.935 -17.138  0.00  0.00    +0.071 C 
ENDROOT
BRANCH   6   9
ATOM      9  O   UNL     1      33.610 -23.463 -17.134  0.00  0.00    -0.451 OA
BRANCH   9  11
ATOM     10 CL   UNL     1      32.179 -22.455 -12.337  0.00  0.00    -0.082 Cl
ATOM     11  C   UNL     1      32.606 -23.074 -16.266  0.00  0.00    +0.147 C 
ATOM     12  C   UNL     1      31.333 -22.783 -16.755  0.00  0.00    +0.048 C 
ATOM     13  C   UNL     1      32.868 -22.973 -14.899  0.00  0.00    +0.049 C 
ATOM     14  C   UNL     1      30.322 -22.390 -15.879  0.00  0.00    +0.072 C 
ATOM     15  C   UNL     1      31.857 -22.580 -14.023  0.00  0.00    +0.061 C 
ATOM     16  C   UNL     1      30.584 -22.289 -14.513  0.00  0.00    +0.022 C 
BRANCH  14  18
ATOM     17  N   UNL     1      27.959 -21.850 -16.791  0.00  0.00    -0.191 NA
ATOM     18  C   UNL     1      29.018 -22.092 -16.382  0.00  0.00    +0.101 C 
ENDBRANCH  14  18
ENDBRANCH   9  11
ENDBRANCH   6   9
BRANCH   3  19
ATOM     19  C   UNL     1      34.203 -20.528 -21.014  0.00  0.00    +0.072 C 
BRANCH  19  24
ATOM     20  N   UNL     1      35.067 -18.302 -20.324  0.00  0.00    -0.231 N 
ATOM     21  N   UNL     1      35.253 -17.024 -20.715  0.00  0.00    -0.126 NA
ATOM     22  N   UNL     1      34.700 -15.961 -22.825  0.00  0.00    -0.103 NA
ATOM     23  N   UNL     1      34.145 -16.263 -24.031  0.00  0.00    -0.107 NA
ATOM     24  C   UNL     1      34.482 -19.104 -21.267  0.00  0.00    +0.057 C 
ATOM     25  C   UNL     1      34.274 -18.283 -22.343  0.00  0.00    +0.078 C 
ATOM     26  C   UNL     1      34.765 -17.006 -21.959  0.00  0.00    +0.072 C 
ATOM     27  C   UNL     1      33.703 -18.651 -23.542  0.00  0.00    +0.031 C 
ATOM     28  C   UNL     1      33.683 -17.523 -24.352  0.00  0.00    +0.110 C 
ATOM     29  H   UNL     1      35.330 -18.632 -19.434  0.00  0.00    +0.175 HD
ENDBRANCH  19  24
ENDBRANCH   3  19
TORSDOF 5
ENDMDL
MODEL 7
REMARK VINA RESULT:     -10.5      7.601      9.582
REMARK  Name = 24886843
REMARK  5 active torsions:
REMARK  status: ('A' for Active; 'I' for Inactive)
REMARK    1  A    between atoms: C_3  and  C_19
REMARK    2  A    between atoms: C_6  and  O_9
REMARK    3  A    between atoms: O_9  and  C_11
REMARK    4  A    between atoms: C_14  and  C_18
REMARK    5  A    between atoms: C_19  and  C_24
REMARK                            x       y       z     vdW  Elec       q    Type
REMARK                         _______ _______ _______ _____ _____    ______ ____
ROOT
ATOM      1 BR   UNL     1      33.013 -21.541 -19.486  0.00  0.00    -0.046 Br
ATOM      2  F   UNL     1      34.906 -23.764 -15.131  0.00  0.00    -0.201 F 
ATOM      3  C   UNL     1      36.266 -22.120 -16.164  0.00  0.00    +0.014 C 
ATOM      4  C   UNL     1      35.096 -22.878 -16.119  0.00  0.00    +0.171 C 
ATOM      5  C   UNL     1      36.461 -21.198 -17.192  0.00  0.00    -0.001 C 
ATOM      6  C   UNL     1      34.121 -22.713 -17.103  0.00  0.00    +0.178 C 
ATOM      7  C   UNL     1      35.486 -21.033 -18.176  0.00  0.00    +0.010 C 
ATOM      8  C   UNL     1      34.315 -21.791 -18.131  0.00  0.00    +0.071 C 
ENDROOT
BRANCH   6   9
ATOM      9  O   UNL     1      32.988 -23.469 -17.033  0.00  0.00    -0.451 OA
BRANCH   9  11
ATOM     10 CL   UNL     1      31.622 -22.454 -12.218  0.00  0.00    -0.082 Cl
ATOM     11  C   UNL     1      31.999 -23.065 -16.154  0.00  0.00    +0.147 C 
ATOM     12  C   UNL     1      30.727 -22.750 -16.629  0.00  0.00    +0.048 C 
ATOM     13  C   UNL     1      32.277 -22.974 -14.789  0.00  0.00    +0.049 C 
ATOM     14  C   UNL     1      29.732 -22.342 -15.742  0.00  0.00    +0.072 C 
ATOM     15  C   UNL     1      31.281 -22.566 -13.902  0.00  0.00    +0.061 C 
ATOM     16  C   UNL     1      30.009 -22.251 -14.378  0.00  0.00    +0.022 C 
BRANCH  14  18
ATOM     17  N   UNL     1      27.370 -21.755 -16.627  0.00  0.00    -0.191 NA
ATOM     18  C   UNL     1      28.429 -22.019 -16.231  0.00  0.00    +0.101 C 
ENDBRANCH  14  18
ENDBRANCH   9  11
ENDBRANCH   6   9
BRANCH   3  19
ATOM     19  C   UNL     1      37.332 -22.296 -15.091  0.00  0.00    +0.072 C 
BRANCH  19  24
ATOM     20  N   UNL     1      37.679 -24.749 -14.896  0.00  0.00    -0.231 N 
ATOM     21  N   UNL     1      37.534 -25.821 -14.088  0.00  0.00    -0.126 NA
ATOM     22  N   UNL     1      36.635 -25.945 -11.838  0.00  0.00    -0.103 NA
ATOM     23  N   UNL     1      36.104 -25.134 -10.880  0.00  0.00    -0.107 NA
ATOM     24  C   UNL     1      37.252 -23.568 -14.352  0.00  0.00    +0.057 C 
ATOM     25  C   UNL     1      36.799 -23.901 -13.104  0.00  0.00    +0.078 C 
ATOM     26  C   UNL     1      36.991 -25.304 -12.981  0.00  0.00    +0.072 C 
ATOM     27  C   UNL     1      36.269 -23.030 -12.177  0.00  0.00    +0.031 C 
ATOM     28  C   UNL     1      35.939 -23.775 -11.052  0.00  0.00    +0.110 C 
ATOM     29  H   UNL     1      38.059 -24.812 -15.801  0.00  0.00    +0.175 HD
ENDBRANCH  19  24
ENDBRANCH   3  19
TORSDOF 5
ENDMDL
MODEL 8
REMARK VINA RESULT:     -10.3      4.074      6.258
REMARK  Name = 24886843
REMARK  5 active torsions:
REMARK  status: ('A' for Active; 'I' for Inactive)
REMARK    1  A    between atoms: C_3  and  C_19
REMARK    2  A    between atoms: C_6  and  O_9
REMARK    3  A    between atoms: O_9  and  C_11
REMARK    4  A    between atoms: C_14  and  C_18
REMARK    5  A    between atoms: C_19  and  C_24
REMARK                            x       y       z     vdW  Elec       q    Type
REMARK                         _______ _______ _______ _____ _____    ______ ____
ROOT
ATOM      1 BR   UNL     1      30.098 -10.364 -20.393  0.00  0.00    -0.046 Br
ATOM      2  F   UNL     1      33.348 -11.486 -24.351  0.00  0.00    -0.201 F 
ATOM      3  C   UNL     1      33.380 -12.963 -22.497  0.00  0.00    +0.014 C 
ATOM      4  C   UNL     1      32.886 -11.828 -23.140  0.00  0.00    +0.171 C 
ATOM      5  C   UNL     1      32.897 -13.317 -21.238  0.00  0.00    -0.001 C 
ATOM      6  C   UNL     1      31.909 -11.047 -22.522  0.00  0.00    +0.178 C 
ATOM      7  C   UNL     1      31.920 -12.536 -20.620  0.00  0.00    +0.010 C 
ATOM      8  C   UNL     1      31.425 -11.401 -21.263  0.00  0.00    +0.071 C 
ENDROOT
BRANCH   6   9
ATOM      9  O   UNL     1      31.446  -9.943 -23.175  0.00  0.00    -0.451 OA
BRANCH   9  11
ATOM     10 CL   UNL     1      32.686  -6.268 -19.853  0.00  0.00    -0.082 Cl
ATOM     11  C   UNL     1      32.089  -8.741 -22.940  0.00  0.00    +0.147 C 
ATOM     12  C   UNL     1      32.760  -8.093 -23.977  0.00  0.00    +0.048 C 
ATOM     13  C   UNL     1      32.065  -8.176 -21.664  0.00  0.00    +0.049 C 
ATOM     14  C   UNL     1      33.409  -6.882 -23.739  0.00  0.00    +0.072 C 
ATOM     15  C   UNL     1      32.714  -6.965 -21.426  0.00  0.00    +0.061 C 
ATOM     16  C   UNL     1      33.385  -6.317 -22.464  0.00  0.00    +0.022 C 
BRANCH  14  18
ATOM     17  N   UNL     1      34.654  -5.682 -25.667  0.00  0.00    -0.191 NA
ATOM     18  C   UNL     1      34.096  -6.220 -24.802  0.00  0.00    +0.101 C 
ENDBRANCH  14  18
ENDBRANCH   9  11
ENDBRANCH   6   9
BRANCH   3  19
ATOM     19  C   UNL     1      34.446 -13.818 -23.168  0.00  0.00    +0.072 C 
BRANCH  19  24
ATOM     20  N   UNL     1      33.103 -15.153 -24.778  0.00  0.00    -0.231 N 
ATOM     21  N   UNL     1      32.748 -16.402 -25.146  0.00  0.00    -0.126 NA
ATOM     22  N   UNL     1      33.395 -18.534 -24.187  0.00  0.00    -0.103 NA
ATOM     23  N   UNL     1      34.166 -19.035 -23.182  0.00  0.00    -0.107 NA
ATOM     24  C   UNL     1      33.954 -15.098 -23.707  0.00  0.00    +0.057 C 
ATOM     25  C   UNL     1      34.162 -16.405 -23.359  0.00  0.00    +0.078 C 
ATOM     26  C   UNL     1      33.397 -17.178 -24.274  0.00  0.00    +0.072 C 
ATOM     27  C   UNL     1      34.958 -16.850 -22.326  0.00  0.00    +0.031 C 
ATOM     28  C   UNL     1      34.890 -18.237 -22.321  0.00  0.00    +0.110 C 
ATOM     29  H   UNL     1      32.777 -14.347 -25.241  0.00  0.00    +0.175 HD
ENDBRANCH  19  24
ENDBRANCH   3  19
TORSDOF 5
ENDMDL
MODEL 9
REMARK VINA RESULT:     -10.0      5.520      8.321
REMARK  Name = 24886843
REMARK  5 active torsions:
REMARK  status: ('A' for Active; 'I' for Inactive)
REMARK    1  A    between atoms: C_3  and  C_19
REMARK    2  A    between atoms: C_6  and  O_9
REMARK    3  A    between atoms: O_9  and  C_11
REMARK    4  A    between atoms: C_14  and  C_18
REMARK    5  A    between atoms: C_19  and  C_24
REMARK                            x       y       z     vdW  Elec       q    Type
REMARK                         _______ _______ _______ _____ _____    ______ ____
ROOT
ATOM      1 BR   UNL     1      31.102  -7.082 -20.033  0.00  0.00    -0.046 Br
ATOM      2  F   UNL     1      33.921  -9.391 -23.803  0.00  0.00    -0.201 F 
ATOM      3  C   UNL     1      32.285 -10.729 -22.728  0.00  0.00    +0.014 C 
ATOM      4  C   UNL     1      32.950  -9.513 -22.886  0.00  0.00    +0.171 C 
ATOM      5  C   UNL     1      31.275 -10.851 -21.774  0.00  0.00    -0.001 C 
ATOM      6  C   UNL     1      32.607  -8.421 -22.089  0.00  0.00    +0.178 C 
ATOM      7  C   UNL     1      30.931  -9.759 -20.977  0.00  0.00    +0.010 C 
ATOM      8  C   UNL     1      31.597  -8.544 -21.134  0.00  0.00    +0.071 C 
ENDROOT
BRANCH   6   9
ATOM      9  O   UNL     1      33.276  -7.246 -22.266  0.00  0.00    -0.451 OA
BRANCH   9  11
ATOM     10 CL   UNL     1      32.786  -5.805 -27.141  0.00  0.00    -0.082 Cl
ATOM     11  C   UNL     1      32.758  -6.343 -23.177  0.00  0.00    +0.147 C 
ATOM     12  C   UNL     1      31.991  -5.266 -22.734  0.00  0.00    +0.048 C 
ATOM     13  C   UNL     1      33.005  -6.510 -24.540  0.00  0.00    +0.049 C 
ATOM     14  C   UNL     1      31.469  -4.356 -23.653  0.00  0.00    +0.072 C 
ATOM     15  C   UNL     1      32.483  -5.600 -25.459  0.00  0.00    +0.061 C 
ATOM     16  C   UNL     1      31.715  -4.523 -25.015  0.00  0.00    +0.022 C 
BRANCH  14  18
ATOM     17  N   UNL     1      30.044  -2.357 -22.828  0.00  0.00    -0.191 NA
ATOM     18  C   UNL     1      30.682  -3.253 -23.197  0.00  0.00    +0.101 C 
ENDBRANCH  14  18
ENDBRANCH   9  11
ENDBRANCH   6   9
BRANCH   3  19
ATOM     19  C   UNL     1      32.657 -11.922 -23.597  0.00  0.00    +0.072 C 
BRANCH  19  24
ATOM     20  N   UNL     1      33.570 -12.965 -21.534  0.00  0.00    -0.231 N 
ATOM     21  N   UNL     1      34.097 -14.092 -21.010  0.00  0.00    -0.126 NA
ATOM     22  N   UNL     1      34.545 -16.225 -22.077  0.00  0.00    -0.103 NA
ATOM     23  N   UNL     1      34.425 -16.829 -23.291  0.00  0.00    -0.107 NA
ATOM     24  C   UNL     1      33.244 -13.055 -22.860  0.00  0.00    +0.057 C 
ATOM     25  C   UNL     1      33.586 -14.331 -23.218  0.00  0.00    +0.078 C 
ATOM     26  C   UNL     1      34.111 -14.937 -22.045  0.00  0.00    +0.072 C 
ATOM     27  C   UNL     1      33.440 -14.886 -24.471  0.00  0.00    +0.031 C 
ATOM     28  C   UNL     1      33.908 -16.192 -24.400  0.00  0.00    +0.110 C 
ATOM     29  H   UNL     1      33.431 -12.146 -21.006  0.00  0.00    +0.175 HD
ENDBRANCH  19  24
ENDBRANCH   3  19
TORSDOF 5
ENDMDL
