MODEL 1
REMARK VINA RESULT:     -12.6      0.000      0.000
REMARK  Name = 10309899
REMARK  4 active torsions:
REMARK  status: ('A' for Active; 'I' for Inactive)
REMARK    1  A    between atoms: N_1  and  S_19
REMARK    2  A    between atoms: C_12  and  C_15
REMARK    3  A    between atoms: N_14  and  O_17
REMARK    4  A    between atoms: S_19  and  C_22
REMARK                            x       y       z     vdW  Elec       q    Type
REMARK                         _______ _______ _______ _____ _____    ______ ____
ROOT
ATOM      1  N   UNL     1      34.585 -19.403 -21.068  0.00  0.00    -0.152 NA
ATOM      2  N   UNL     1      33.580 -21.074 -19.009  0.00  0.00    -0.250 N 
ATOM      3  N   UNL     1      33.967 -22.295 -17.026  0.00  0.00    -0.180 NA
ATOM      4  N   UNL     1      31.730 -21.991 -17.866  0.00  0.00    -0.203 NA
ATOM      5  C   UNL     1      33.133 -19.732 -21.020  0.00  0.00    +0.118 C 
ATOM      6  C   UNL     1      35.407 -20.541 -20.567  0.00  0.00    +0.118 C 
ATOM      7  C   UNL     1      32.724 -20.025 -19.581  0.00  0.00    +0.120 C 
ATOM      8  C   UNL     1      35.027 -20.851 -19.122  0.00  0.00    +0.120 C 
ATOM      9  C   UNL     1      33.075 -21.811 -17.932  0.00  0.00    +0.090 C 
ATOM     10  C   UNL     1      33.446 -23.000 -16.001  0.00  0.00    +0.113 C 
ATOM     11  C   UNL     1      31.277 -22.706 -16.814  0.00  0.00    +0.170 C 
ATOM     12  C   UNL     1      32.096 -23.240 -15.842  0.00  0.00    +0.078 C 
ENDROOT
BRANCH  12  15
ATOM     13  O   UNL     1      30.383 -24.377 -14.707  0.00  0.00    -0.268 OA
ATOM     14  N   UNL     1      32.446 -24.287 -13.681  0.00  0.00    -0.194 N 
ATOM     15  C   UNL     1      31.573 -24.005 -14.726  0.00  0.00    +0.267 C 
ATOM     16  H   UNL     1      33.384 -23.990 -13.701  0.00  0.00    +0.183 HD
BRANCH  14  17
ATOM     17  O   UNL     1      31.930 -25.014 -12.600  0.00  0.00    -0.295 OA
ATOM     18  H   UNL     1      31.544 -24.403 -11.953  0.00  0.00    +0.241 HD
ENDBRANCH  14  17
ENDBRANCH  12  15
BRANCH   1  19
ATOM     19  S   UNL     1      35.131 -18.689 -22.527  0.00  0.00    +0.063 S 
ATOM     20  O   UNL     1      34.380 -19.244 -23.633  0.00  0.00    -0.153 OA
ATOM     21  O   UNL     1      36.578 -18.685 -22.534  0.00  0.00    -0.153 OA
BRANCH  19  22
ATOM     22  C   UNL     1      34.583 -17.029 -22.280  0.00  0.00    +0.122 C 
ATOM     23  C   UNL     1      34.167 -16.283 -23.370  0.00  0.00    +0.020 C 
ATOM     24  C   UNL     1      34.577 -16.503 -21.002  0.00  0.00    +0.020 C 
ATOM     25  C   UNL     1      33.730 -14.961 -23.190  0.00  0.00    +0.001 C 
ATOM     26  C   UNL     1      33.718 -14.406 -21.888  0.00  0.00    +0.000 C 
ATOM     27  C   UNL     1      34.145 -15.191 -20.804  0.00  0.00    +0.001 C 
ATOM     28  C   UNL     1      33.302 -14.176 -24.274  0.00  0.00    +0.000 C 
ATOM     29  C   UNL     1      33.280 -13.084 -21.709  0.00  0.00    +0.000 C 
ATOM     30  C   UNL     1      32.871 -12.864 -24.077  0.00  0.00    +0.000 C 
ATOM     31  C   UNL     1      32.860 -12.320 -22.797  0.00  0.00    +0.000 C 
ENDBRANCH  19  22
ENDBRANCH   1  19
TORSDOF 4
ENDMDL
MODEL 2
REMARK VINA RESULT:     -12.1      0.842      1.068
REMARK  Name = 10309899
REMARK  4 active torsions:
REMARK  status: ('A' for Active; 'I' for Inactive)
REMARK    1  A    between atoms: N_1  and  S_19
REMARK    2  A    between atoms: C_12  and  C_15
REMARK    3  A    between atoms: N_14  and  O_17
REMARK    4  A    between atoms: S_19  and  C_22
REMARK                            x       y       z     vdW  Elec       q    Type
REMARK                         _______ _______ _______ _____ _____    ______ ____
ROOT
ATOM      1  N   UNL     1      34.803 -19.328 -21.128  0.00  0.00    -0.152 NA
ATOM      2  N   UNL     1      34.353 -21.051 -18.921  0.00  0.00    -0.250 N 
ATOM      3  N   UNL     1      35.133 -22.003 -16.907  0.00  0.00    -0.180 NA
ATOM      4  N   UNL     1      32.850 -22.313 -17.609  0.00  0.00    -0.203 NA
ATOM      5  C   UNL     1      33.482 -19.998 -20.966  0.00  0.00    +0.118 C 
ATOM      6  C   UNL     1      35.907 -20.194 -20.625  0.00  0.00    +0.118 C 
ATOM      7  C   UNL     1      33.235 -20.284 -19.488  0.00  0.00    +0.120 C 
ATOM      8  C   UNL     1      35.691 -20.489 -19.142  0.00  0.00    +0.120 C 
ATOM      9  C   UNL     1      34.104 -21.814 -17.775  0.00  0.00    +0.090 C 
ATOM     10  C   UNL     1      34.858 -22.743 -15.813  0.00  0.00    +0.113 C 
ATOM     11  C   UNL     1      32.644 -23.043 -16.493  0.00  0.00    +0.170 C 
ATOM     12  C   UNL     1      33.620 -23.294 -15.551  0.00  0.00    +0.078 C 
ENDROOT
BRANCH  12  15
ATOM     13  O   UNL     1      34.288 -24.678 -13.775  0.00  0.00    -0.268 OA
ATOM     14  N   UNL     1      32.045 -24.166 -13.925  0.00  0.00    -0.194 N 
ATOM     15  C   UNL     1      33.362 -24.086 -14.364  0.00  0.00    +0.267 C 
ATOM     16  H   UNL     1      31.317 -23.698 -14.395  0.00  0.00    +0.183 HD
BRANCH  14  17
ATOM     17  O   UNL     1      31.801 -24.945 -12.786  0.00  0.00    -0.295 OA
ATOM     18  H   UNL     1      32.642 -25.161 -12.354  0.00  0.00    +0.241 HD
ENDBRANCH  14  17
ENDBRANCH  12  15
BRANCH   1  19
ATOM     19  S   UNL     1      35.078 -18.603 -22.656  0.00  0.00    +0.063 S 
ATOM     20  O   UNL     1      34.161 -19.173 -23.620  0.00  0.00    -0.153 OA
ATOM     21  O   UNL     1      36.502 -18.568 -22.909  0.00  0.00    -0.153 OA
BRANCH  19  22
ATOM     22  C   UNL     1      34.546 -16.954 -22.313  0.00  0.00    +0.122 C 
ATOM     23  C   UNL     1      34.148 -16.139 -23.360  0.00  0.00    +0.020 C 
ATOM     24  C   UNL     1      34.535 -16.506 -21.006  0.00  0.00    +0.020 C 
ATOM     25  C   UNL     1      33.724 -14.825 -23.103  0.00  0.00    +0.001 C 
ATOM     26  C   UNL     1      33.707 -14.350 -21.770  0.00  0.00    +0.000 C 
ATOM     27  C   UNL     1      34.115 -15.203 -20.732  0.00  0.00    +0.001 C 
ATOM     28  C   UNL     1      33.315 -13.972 -24.141  0.00  0.00    +0.000 C 
ATOM     29  C   UNL     1      33.281 -13.036 -21.515  0.00  0.00    +0.000 C 
ATOM     30  C   UNL     1      32.896 -12.669 -23.869  0.00  0.00    +0.000 C 
ATOM     31  C   UNL     1      32.880 -12.203 -22.558  0.00  0.00    +0.000 C 
ENDBRANCH  19  22
ENDBRANCH   1  19
TORSDOF 4
ENDMDL
MODEL 3
REMARK VINA RESULT:     -11.4      0.603      1.463
REMARK  Name = 10309899
REMARK  4 active torsions:
REMARK  status: ('A' for Active; 'I' for Inactive)
REMARK    1  A    between atoms: N_1  and  S_19
REMARK    2  A    between atoms: C_12  and  C_15
REMARK    3  A    between atoms: N_14  and  O_17
REMARK    4  A    between atoms: S_19  and  C_22
REMARK                            x       y       z     vdW  Elec       q    Type
REMARK                         _______ _______ _______ _____ _____    ______ ____
ROOT
ATOM      1  N   UNL     1      34.879 -19.405 -21.202  0.00  0.00    -0.152 NA
ATOM      2  N   UNL     1      33.760 -20.978 -19.125  0.00  0.00    -0.250 N 
ATOM      3  N   UNL     1      34.025 -22.076 -17.052  0.00  0.00    -0.180 NA
ATOM      4  N   UNL     1      31.849 -21.870 -18.064  0.00  0.00    -0.203 NA
ATOM      5  C   UNL     1      33.433 -19.762 -21.238  0.00  0.00    +0.118 C 
ATOM      6  C   UNL     1      35.683 -20.494 -20.579  0.00  0.00    +0.118 C 
ATOM      7  C   UNL     1      32.927 -19.983 -19.816  0.00  0.00    +0.120 C 
ATOM      8  C   UNL     1      35.206 -20.729 -19.148  0.00  0.00    +0.120 C 
ATOM      9  C   UNL     1      33.192 -21.664 -18.045  0.00  0.00    +0.090 C 
ATOM     10  C   UNL     1      33.445 -22.733 -16.027  0.00  0.00    +0.113 C 
ATOM     11  C   UNL     1      31.335 -22.533 -17.008  0.00  0.00    +0.170 C 
ATOM     12  C   UNL     1      32.092 -22.993 -15.950  0.00  0.00    +0.078 C 
ENDROOT
BRANCH  12  15
ATOM     13  O   UNL     1      30.268 -23.841 -14.737  0.00  0.00    -0.268 OA
ATOM     14  N   UNL     1      32.372 -24.210 -13.870  0.00  0.00    -0.194 N 
ATOM     15  C   UNL     1      31.504 -23.705 -14.831  0.00  0.00    +0.267 C 
ATOM     16  H   UNL     1      33.347 -24.098 -13.948  0.00  0.00    +0.183 HD
BRANCH  14  17
ATOM     17  O   UNL     1      31.796 -24.884 -12.784  0.00  0.00    -0.295 OA
ATOM     18  H   UNL     1      30.850 -25.016 -12.950  0.00  0.00    +0.241 HD
ENDBRANCH  14  17
ENDBRANCH  12  15
BRANCH   1  19
ATOM     19  S   UNL     1      35.515 -18.763 -22.658  0.00  0.00    +0.063 S 
ATOM     20  O   UNL     1      34.997 -19.524 -23.774  0.00  0.00    -0.153 OA
ATOM     21  O   UNL     1      36.937 -18.549 -22.495  0.00  0.00    -0.153 OA
BRANCH  19  22
ATOM     22  C   UNL     1      34.726 -17.183 -22.667  0.00  0.00    +0.122 C 
ATOM     23  C   UNL     1      34.592 -16.484 -21.479  0.00  0.00    +0.020 C 
ATOM     24  C   UNL     1      34.256 -16.670 -23.862  0.00  0.00    +0.020 C 
ATOM     25  C   UNL     1      33.966 -15.227 -21.471  0.00  0.00    +0.001 C 
ATOM     26  C   UNL     1      33.479 -14.688 -22.685  0.00  0.00    +0.000 C 
ATOM     27  C   UNL     1      33.632 -15.422 -23.873  0.00  0.00    +0.001 C 
ATOM     28  C   UNL     1      33.814 -14.493 -20.283  0.00  0.00    +0.000 C 
ATOM     29  C   UNL     1      32.854 -13.430 -22.676  0.00  0.00    +0.000 C 
ATOM     30  C   UNL     1      33.189 -13.245 -20.293  0.00  0.00    +0.000 C 
ATOM     31  C   UNL     1      32.710 -12.715 -21.487  0.00  0.00    +0.000 C 
ENDBRANCH  19  22
ENDBRANCH   1  19
TORSDOF 4
ENDMDL
MODEL 4
REMARK VINA RESULT:     -11.2      4.557     10.114
REMARK  Name = 10309899
REMARK  4 active torsions:
REMARK  status: ('A' for Active; 'I' for Inactive)
REMARK    1  A    between atoms: N_1  and  S_19
REMARK    2  A    between atoms: C_12  and  C_15
REMARK    3  A    between atoms: N_14  and  O_17
REMARK    4  A    between atoms: S_19  and  C_22
REMARK                            x       y       z     vdW  Elec       q    Type
REMARK                         _______ _______ _______ _____ _____    ______ ____
ROOT
ATOM      1  N   UNL     1      34.632 -16.954 -22.099  0.00  0.00    -0.152 NA
ATOM      2  N   UNL     1      33.568 -14.329 -21.961  0.00  0.00    -0.250 N 
ATOM      3  N   UNL     1      32.558 -12.496 -23.053  0.00  0.00    -0.180 NA
ATOM      4  N   UNL     1      32.771 -12.531 -20.654  0.00  0.00    -0.203 NA
ATOM      5  C   UNL     1      34.532 -16.261 -20.783  0.00  0.00    +0.118 C 
ATOM      6  C   UNL     1      34.908 -15.982 -23.195  0.00  0.00    +0.118 C 
ATOM      7  C   UNL     1      33.393 -15.248 -20.827  0.00  0.00    +0.120 C 
ATOM      8  C   UNL     1      33.776 -14.960 -23.269  0.00  0.00    +0.120 C 
ATOM      9  C   UNL     1      32.946 -13.077 -21.887  0.00  0.00    +0.090 C 
ATOM     10  C   UNL     1      31.962 -11.292 -22.945  0.00  0.00    +0.113 C 
ATOM     11  C   UNL     1      32.168 -11.325 -20.619  0.00  0.00    +0.170 C 
ATOM     12  C   UNL     1      31.737 -10.652 -21.743  0.00  0.00    +0.078 C 
ENDROOT
BRANCH  12  15
ATOM     13  O   UNL     1      30.690  -8.903 -20.576  0.00  0.00    -0.268 OA
ATOM     14  N   UNL     1      30.932  -8.651 -22.855  0.00  0.00    -0.194 N 
ATOM     15  C   UNL     1      31.093  -9.354 -21.667  0.00  0.00    +0.267 C 
ATOM     16  H   UNL     1      31.250  -9.013 -23.714  0.00  0.00    +0.183 HD
BRANCH  14  17
ATOM     17  O   UNL     1      30.296  -7.404 -22.775  0.00  0.00    -0.295 OA
ATOM     18  H   UNL     1      30.955  -6.698 -22.853  0.00  0.00    +0.241 HD
ENDBRANCH  14  17
ENDBRANCH  12  15
BRANCH   1  19
ATOM     19  S   UNL     1      35.597 -18.370 -22.113  0.00  0.00    +0.063 S 
ATOM     20  O   UNL     1      36.874 -18.077 -21.496  0.00  0.00    -0.153 OA
ATOM     21  O   UNL     1      35.524 -18.974 -23.425  0.00  0.00    -0.153 OA
BRANCH  19  22
ATOM     22  C   UNL     1      34.676 -19.380 -20.996  0.00  0.00    +0.122 C 
ATOM     23  C   UNL     1      35.344 -20.075 -20.001  0.00  0.00    +0.020 C 
ATOM     24  C   UNL     1      33.303 -19.460 -21.134  0.00  0.00    +0.020 C 
ATOM     25  C   UNL     1      34.625 -20.884 -19.106  0.00  0.00    +0.001 C 
ATOM     26  C   UNL     1      33.219 -20.977 -19.233  0.00  0.00    +0.000 C 
ATOM     27  C   UNL     1      32.572 -20.259 -20.253  0.00  0.00    +0.001 C 
ATOM     28  C   UNL     1      35.271 -21.601 -18.086  0.00  0.00    +0.000 C 
ATOM     29  C   UNL     1      32.501 -21.785 -18.337  0.00  0.00    +0.000 C 
ATOM     30  C   UNL     1      34.542 -22.400 -17.205  0.00  0.00    +0.000 C 
ATOM     31  C   UNL     1      33.159 -22.492 -17.331  0.00  0.00    +0.000 C 
ENDBRANCH  19  22
ENDBRANCH   1  19
TORSDOF 4
ENDMDL
MODEL 5
REMARK VINA RESULT:     -10.7      3.373      9.649
REMARK  Name = 10309899
REMARK  4 active torsions:
REMARK  status: ('A' for Active; 'I' for Inactive)
REMARK    1  A    between atoms: N_1  and  S_19
REMARK    2  A    between atoms: C_12  and  C_15
REMARK    3  A    between atoms: N_14  and  O_17
REMARK    4  A    between atoms: S_19  and  C_22
REMARK                            x       y       z     vdW  Elec       q    Type
REMARK                         _______ _______ _______ _____ _____    ______ ____
ROOT
ATOM      1  N   UNL     1      35.150 -22.722 -16.541  0.00  0.00    -0.152 NA
ATOM      2  N   UNL     1      34.839 -20.927 -18.714  0.00  0.00    -0.250 N 
ATOM      3  N   UNL     1      35.819 -19.456 -20.278  0.00  0.00    -0.180 NA
ATOM      4  N   UNL     1      33.494 -20.061 -20.450  0.00  0.00    -0.203 NA
ATOM      5  C   UNL     1      33.807 -22.527 -17.157  0.00  0.00    +0.118 C 
ATOM      6  C   UNL     1      35.945 -21.463 -16.584  0.00  0.00    +0.118 C 
ATOM      7  C   UNL     1      33.971 -22.110 -18.614  0.00  0.00    +0.120 C 
ATOM      8  C   UNL     1      36.136 -21.026 -18.034  0.00  0.00    +0.120 C 
ATOM      9  C   UNL     1      34.713 -20.121 -19.851  0.00  0.00    +0.090 C 
ATOM     10  C   UNL     1      35.663 -18.690 -21.377  0.00  0.00    +0.113 C 
ATOM     11  C   UNL     1      33.408 -19.276 -21.544  0.00  0.00    +0.170 C 
ATOM     12  C   UNL     1      34.469 -18.560 -22.058  0.00  0.00    +0.078 C 
ENDROOT
BRANCH  12  15
ATOM     13  O   UNL     1      33.785 -18.154 -24.268  0.00  0.00    -0.268 OA
ATOM     14  N   UNL     1      34.868 -16.441 -23.170  0.00  0.00    -0.194 N 
ATOM     15  C   UNL     1      34.339 -17.725 -23.236  0.00  0.00    +0.267 C 
ATOM     16  H   UNL     1      35.306 -16.107 -22.353  0.00  0.00    +0.183 HD
BRANCH  14  17
ATOM     17  O   UNL     1      34.751 -15.644 -24.317  0.00  0.00    -0.295 OA
ATOM     18  H   UNL     1      34.364 -16.167 -25.036  0.00  0.00    +0.241 HD
ENDBRANCH  14  17
ENDBRANCH  12  15
BRANCH   1  19
ATOM     19  S   UNL     1      35.157 -23.545 -15.038  0.00  0.00    +0.063 S 
ATOM     20  O   UNL     1      35.698 -22.667 -14.022  0.00  0.00    -0.153 OA
ATOM     21  O   UNL     1      35.689 -24.876 -15.234  0.00  0.00    -0.153 OA
BRANCH  19  22
ATOM     22  C   UNL     1      33.420 -23.690 -14.758  0.00  0.00    +0.122 C 
ATOM     23  C   UNL     1      32.541 -23.014 -15.587  0.00  0.00    +0.020 C 
ATOM     24  C   UNL     1      32.967 -24.478 -13.717  0.00  0.00    +0.020 C 
ATOM     25  C   UNL     1      31.156 -23.118 -15.377  0.00  0.00    +0.001 C 
ATOM     26  C   UNL     1      30.676 -23.921 -14.315  0.00  0.00    +0.000 C 
ATOM     27  C   UNL     1      31.594 -24.595 -13.493  0.00  0.00    +0.001 C 
ATOM     28  C   UNL     1      30.237 -22.446 -16.199  0.00  0.00    +0.000 C 
ATOM     29  C   UNL     1      29.291 -24.026 -14.106  0.00  0.00    +0.000 C 
ATOM     30  C   UNL     1      28.865 -22.561 -15.976  0.00  0.00    +0.000 C 
ATOM     31  C   UNL     1      28.393 -23.350 -14.931  0.00  0.00    +0.000 C 
ENDBRANCH  19  22
ENDBRANCH   1  19
TORSDOF 4
ENDMDL
MODEL 6
REMARK VINA RESULT:     -10.7      7.000     10.768
REMARK  Name = 10309899
REMARK  4 active torsions:
REMARK  status: ('A' for Active; 'I' for Inactive)
REMARK    1  A    between atoms: N_1  and  S_19
REMARK    2  A    between atoms: C_12  and  C_15
REMARK    3  A    between atoms: N_14  and  O_17
REMARK    4  A    between atoms: S_19  and  C_22
REMARK                            x       y       z     vdW  Elec       q    Type
REMARK                         _______ _______ _______ _____ _____    ______ ____
ROOT
ATOM      1  N   UNL     1      31.149  -8.638 -22.232  0.00  0.00    -0.152 NA
ATOM      2  N   UNL     1      32.426 -11.155 -21.959  0.00  0.00    -0.250 N 
ATOM      3  N   UNL     1      32.697 -13.166 -20.752  0.00  0.00    -0.180 NA
ATOM      4  N   UNL     1      33.734 -12.877 -22.907  0.00  0.00    -0.203 NA
ATOM      5  C   UNL     1      32.091  -9.111 -23.285  0.00  0.00    +0.118 C 
ATOM      6  C   UNL     1      31.570  -9.115 -20.884  0.00  0.00    +0.118 C 
ATOM      7  C   UNL     1      32.116 -10.635 -23.299  0.00  0.00    +0.120 C 
ATOM      8  C   UNL     1      31.593 -10.642 -20.866  0.00  0.00    +0.120 C 
ATOM      9  C   UNL     1      32.971 -12.441 -21.870  0.00  0.00    +0.090 C 
ATOM     10  C   UNL     1      33.237 -14.400 -20.699  0.00  0.00    +0.113 C 
ATOM     11  C   UNL     1      34.242 -14.121 -22.789  0.00  0.00    +0.170 C 
ATOM     12  C   UNL     1      34.025 -14.936 -21.697  0.00  0.00    +0.078 C 
ENDROOT
BRANCH  12  15
ATOM     13  O   UNL     1      34.899 -16.758 -20.500  0.00  0.00    -0.268 OA
ATOM     14  N   UNL     1      34.782 -16.964 -22.793  0.00  0.00    -0.194 N 
ATOM     15  C   UNL     1      34.589 -16.269 -21.605  0.00  0.00    +0.267 C 
ATOM     16  H   UNL     1      34.538 -16.573 -23.663  0.00  0.00    +0.183 HD
BRANCH  14  17
ATOM     17  O   UNL     1      35.342 -18.246 -22.697  0.00  0.00    -0.295 OA
ATOM     18  H   UNL     1      34.642 -18.912 -22.778  0.00  0.00    +0.241 HD
ENDBRANCH  14  17
ENDBRANCH  12  15
BRANCH   1  19
ATOM     19  S   UNL     1      30.714  -6.983 -22.322  0.00  0.00    +0.063 S 
ATOM     20  O   UNL     1      30.893  -6.377 -21.021  0.00  0.00    -0.153 OA
ATOM     21  O   UNL     1      29.460  -6.866 -23.034  0.00  0.00    -0.153 OA
BRANCH  19  22
ATOM     22  C   UNL     1      31.996  -6.386 -23.379  0.00  0.00    +0.122 C 
ATOM     23  C   UNL     1      31.773  -6.317 -24.744  0.00  0.00    +0.020 C 
ATOM     24  C   UNL     1      33.201  -5.996 -22.825  0.00  0.00    +0.020 C 
ATOM     25  C   UNL     1      32.784  -5.845 -25.597  0.00  0.00    +0.001 C 
ATOM     26  C   UNL     1      34.024  -5.442 -25.046  0.00  0.00    +0.000 C 
ATOM     27  C   UNL     1      34.217  -5.524 -23.658  0.00  0.00    +0.001 C 
ATOM     28  C   UNL     1      32.591  -5.763 -26.986  0.00  0.00    +0.000 C 
ATOM     29  C   UNL     1      35.033  -4.970 -25.900  0.00  0.00    +0.000 C 
ATOM     30  C   UNL     1      33.606  -5.292 -27.819  0.00  0.00    +0.000 C 
ATOM     31  C   UNL     1      34.825  -4.896 -27.277  0.00  0.00    +0.000 C 
ENDBRANCH  19  22
ENDBRANCH   1  19
TORSDOF 4
ENDMDL
MODEL 7
REMARK VINA RESULT:     -10.5      2.001      2.445
REMARK  Name = 10309899
REMARK  4 active torsions:
REMARK  status: ('A' for Active; 'I' for Inactive)
REMARK    1  A    between atoms: N_1  and  S_19
REMARK    2  A    between atoms: C_12  and  C_15
REMARK    3  A    between atoms: N_14  and  O_17
REMARK    4  A    between atoms: S_19  and  C_22
REMARK                            x       y       z     vdW  Elec       q    Type
REMARK                         _______ _______ _______ _____ _____    ______ ____
ROOT
ATOM      1  N   UNL     1      34.453 -19.279 -21.373  0.00  0.00    -0.152 NA
ATOM      2  N   UNL     1      35.115 -20.747 -19.039  0.00  0.00    -0.250 N 
ATOM      3  N   UNL     1      36.544 -21.065 -17.187  0.00  0.00    -0.180 NA
ATOM      4  N   UNL     1      34.490 -22.309 -17.383  0.00  0.00    -0.203 NA
ATOM      5  C   UNL     1      33.558 -20.375 -20.907  0.00  0.00    +0.118 C 
ATOM      6  C   UNL     1      35.879 -19.586 -21.069  0.00  0.00    +0.118 C 
ATOM      7  C   UNL     1      33.704 -20.544 -19.398  0.00  0.00    +0.120 C 
ATOM      8  C   UNL     1      36.057 -19.750 -19.561  0.00  0.00    +0.120 C 
ATOM      9  C   UNL     1      35.392 -21.395 -17.830  0.00  0.00    +0.090 C 
ATOM     10  C   UNL     1      36.779 -21.708 -16.025  0.00  0.00    +0.113 C 
ATOM     11  C   UNL     1      34.788 -22.914 -16.214  0.00  0.00    +0.170 C 
ATOM     12  C   UNL     1      35.929 -22.651 -15.485  0.00  0.00    +0.078 C 
ENDROOT
BRANCH  12  15
ATOM     13  O   UNL     1      37.305 -23.152 -13.648  0.00  0.00    -0.268 OA
ATOM     14  N   UNL     1      35.240 -24.174 -13.726  0.00  0.00    -0.194 N 
ATOM     15  C   UNL     1      36.217 -23.324 -14.232  0.00  0.00    +0.267 C 
ATOM     16  H   UNL     1      34.383 -24.308 -14.192  0.00  0.00    +0.183 HD
BRANCH  14  17
ATOM     17  O   UNL     1      35.531 -24.832 -12.523  0.00  0.00    -0.295 OA
ATOM     18  H   UNL     1      36.489 -24.961 -12.448  0.00  0.00    +0.241 HD
ENDBRANCH  14  17
ENDBRANCH  12  15
BRANCH   1  19
ATOM     19  S   UNL     1      34.148 -18.704 -22.958  0.00  0.00    +0.063 S 
ATOM     20  O   UNL     1      32.846 -19.170 -23.386  0.00  0.00    -0.153 OA
ATOM     21  O   UNL     1      35.324 -18.926 -23.772  0.00  0.00    -0.153 OA
BRANCH  19  22
ATOM     22  C   UNL     1      34.025 -16.972 -22.639  0.00  0.00    +0.122 C 
ATOM     23  C   UNL     1      33.613 -16.123 -23.653  0.00  0.00    +0.020 C 
ATOM     24  C   UNL     1      34.342 -16.493 -21.382  0.00  0.00    +0.020 C 
ATOM     25  C   UNL     1      33.512 -14.743 -23.415  0.00  0.00    +0.001 C 
ATOM     26  C   UNL     1      33.833 -14.236 -22.133  0.00  0.00    +0.000 C 
ATOM     27  C   UNL     1      34.247 -15.124 -21.127  0.00  0.00    +0.001 C 
ATOM     28  C   UNL     1      33.097 -13.854 -24.420  0.00  0.00    +0.000 C 
ATOM     29  C   UNL     1      33.731 -12.855 -21.896  0.00  0.00    +0.000 C 
ATOM     30  C   UNL     1      33.002 -12.486 -24.167  0.00  0.00    +0.000 C 
ATOM     31  C   UNL     1      33.318 -11.988 -22.906  0.00  0.00    +0.000 C 
ENDBRANCH  19  22
ENDBRANCH   1  19
TORSDOF 4
ENDMDL
MODEL 8
REMARK VINA RESULT:     -10.4      6.359      9.951
REMARK  Name = 10309899
REMARK  4 active torsions:
REMARK  status: ('A' for Active; 'I' for Inactive)
REMARK    1  A    between atoms: N_1  and  S_19
REMARK    2  A    between atoms: C_12  and  C_15
REMARK    3  A    between atoms: N_14  and  O_17
REMARK    4  A    between atoms: S_19  and  C_22
REMARK                            x       y       z     vdW  Elec       q    Type
REMARK                         _______ _______ _______ _____ _____    ______ ____
ROOT
ATOM      1  N   UNL     1      31.933  -9.636 -22.029  0.00  0.00    -0.152 NA
ATOM      2  N   UNL     1      32.892 -12.304 -22.011  0.00  0.00    -0.250 N 
ATOM      3  N   UNL     1      34.142 -14.011 -23.058  0.00  0.00    -0.180 NA
ATOM      4  N   UNL     1      33.284 -14.309 -20.827  0.00  0.00    -0.203 NA
ATOM      5  C   UNL     1      31.663 -10.514 -20.856  0.00  0.00    +0.118 C 
ATOM      6  C   UNL     1      31.956 -10.425 -23.293  0.00  0.00    +0.118 C 
ATOM      7  C   UNL     1      32.761 -11.568 -20.746  0.00  0.00    +0.120 C 
ATOM      8  C   UNL     1      33.055 -11.482 -23.216  0.00  0.00    +0.120 C 
ATOM      9  C   UNL     1      33.457 -13.584 -21.964  0.00  0.00    +0.090 C 
ATOM     10  C   UNL     1      34.675 -15.248 -22.979  0.00  0.00    +0.113 C 
ATOM     11  C   UNL     1      33.843 -15.537 -20.815  0.00  0.00    +0.170 C 
ATOM     12  C   UNL     1      34.556 -16.064 -21.872  0.00  0.00    +0.078 C 
ENDROOT
BRANCH  12  15
ATOM     13  O   UNL     1      35.233 -18.088 -22.852  0.00  0.00    -0.268 OA
ATOM     14  N   UNL     1      35.578 -17.849 -20.586  0.00  0.00    -0.194 N 
ATOM     15  C   UNL     1      35.142 -17.390 -21.823  0.00  0.00    +0.267 C 
ATOM     16  H   UNL     1      35.502 -17.294 -19.776  0.00  0.00    +0.183 HD
BRANCH  14  17
ATOM     17  O   UNL     1      36.130 -19.137 -20.544  0.00  0.00    -0.295 OA
ATOM     18  H   UNL     1      36.869 -19.152 -19.916  0.00  0.00    +0.241 HD
ENDBRANCH  14  17
ENDBRANCH  12  15
BRANCH   1  19
ATOM     19  S   UNL     1      31.023  -8.185 -22.086  0.00  0.00    +0.063 S 
ATOM     20  O   UNL     1      30.943  -7.626 -20.754  0.00  0.00    -0.153 OA
ATOM     21  O   UNL     1      29.830  -8.410 -22.873  0.00  0.00    -0.153 OA
BRANCH  19  22
ATOM     22  C   UNL     1      32.116  -7.174 -23.033  0.00  0.00    +0.122 C 
ATOM     23  C   UNL     1      31.811  -6.899 -24.356  0.00  0.00    +0.020 C 
ATOM     24  C   UNL     1      33.258  -6.672 -22.438  0.00  0.00    +0.020 C 
ATOM     25  C   UNL     1      32.672  -6.097 -25.123  0.00  0.00    +0.001 C 
ATOM     26  C   UNL     1      33.846  -5.575 -24.528  0.00  0.00    +0.000 C 
ATOM     27  C   UNL     1      34.125  -5.872 -23.184  0.00  0.00    +0.001 C 
ATOM     28  C   UNL     1      32.393  -5.799 -26.467  0.00  0.00    +0.000 C 
ATOM     29  C   UNL     1      34.705  -4.772 -25.296  0.00  0.00    +0.000 C 
ATOM     30  C   UNL     1      33.259  -5.000 -27.214  0.00  0.00    +0.000 C 
ATOM     31  C   UNL     1      34.413  -4.488 -26.629  0.00  0.00    +0.000 C 
ENDBRANCH  19  22
ENDBRANCH   1  19
TORSDOF 4
ENDMDL
MODEL 9
REMARK VINA RESULT:     -10.0      3.683     10.570
REMARK  Name = 10309899
REMARK  4 active torsions:
REMARK  status: ('A' for Active; 'I' for Inactive)
REMARK    1  A    between atoms: N_1  and  S_19
REMARK    2  A    between atoms: C_12  and  C_15
REMARK    3  A    between atoms: N_14  and  O_17
REMARK    4  A    between atoms: S_19  and  C_22
REMARK                            x       y       z     vdW  Elec       q    Type
REMARK                         _______ _______ _______ _____ _____    ______ ____
ROOT
ATOM      1  N   UNL     1      32.776 -23.225 -15.523  0.00  0.00    -0.152 NA
ATOM      2  N   UNL     1      33.268 -21.606 -17.798  0.00  0.00    -0.250 N 
ATOM      3  N   UNL     1      34.797 -20.750 -19.379  0.00  0.00    -0.180 NA
ATOM      4  N   UNL     1      32.429 -20.402 -19.647  0.00  0.00    -0.203 NA
ATOM      5  C   UNL     1      31.640 -22.560 -16.220  0.00  0.00    +0.118 C 
ATOM      6  C   UNL     1      34.007 -22.386 -15.586  0.00  0.00    +0.118 C 
ATOM      7  C   UNL     1      32.000 -22.342 -17.686  0.00  0.00    +0.120 C 
ATOM      8  C   UNL     1      34.398 -22.160 -17.044  0.00  0.00    +0.120 C 
ATOM      9  C   UNL     1      33.505 -20.895 -18.980  0.00  0.00    +0.090 C 
ATOM     10  C   UNL     1      34.990 -20.061 -20.523  0.00  0.00    +0.113 C 
ATOM     11  C   UNL     1      32.694 -19.723 -20.783  0.00  0.00    +0.170 C 
ATOM     12  C   UNL     1      33.967 -19.520 -21.274  0.00  0.00    +0.078 C 
ENDROOT
BRANCH  12  15
ATOM     13  O   UNL     1      34.184 -19.355 -23.607  0.00  0.00    -0.268 OA
ATOM     14  N   UNL     1      34.497 -17.427 -22.382  0.00  0.00    -0.194 N 
ATOM     15  C   UNL     1      34.214 -18.783 -22.499  0.00  0.00    +0.267 C 
ATOM     16  H   UNL     1      34.520 -16.981 -21.504  0.00  0.00    +0.183 HD
BRANCH  14  17
ATOM     17  O   UNL     1      34.748 -16.725 -23.568  0.00  0.00    -0.295 OA
ATOM     18  H   UNL     1      33.927 -16.644 -24.077  0.00  0.00    +0.241 HD
ENDBRANCH  14  17
ENDBRANCH  12  15
BRANCH   1  19
ATOM     19  S   UNL     1      32.412 -23.879 -13.981  0.00  0.00    +0.063 S 
ATOM     20  O   UNL     1      31.747 -25.153 -14.155  0.00  0.00    -0.153 OA
ATOM     21  O   UNL     1      31.833 -22.841 -13.156  0.00  0.00    -0.153 OA
BRANCH  19  22
ATOM     22  C   UNL     1      34.044 -24.196 -13.389  0.00  0.00    +0.122 C 
ATOM     23  C   UNL     1      34.994 -24.707 -14.258  0.00  0.00    +0.020 C 
ATOM     24  C   UNL     1      34.347 -23.928 -12.067  0.00  0.00    +0.020 C 
ATOM     25  C   UNL     1      36.297 -24.966 -13.801  0.00  0.00    +0.001 C 
ATOM     26  C   UNL     1      36.623 -24.697 -12.450  0.00  0.00    +0.000 C 
ATOM     27  C   UNL     1      35.637 -24.179 -11.595  0.00  0.00    +0.001 C 
ATOM     28  C   UNL     1      37.284 -25.483 -14.655  0.00  0.00    +0.000 C 
ATOM     29  C   UNL     1      37.926 -24.956 -11.994  0.00  0.00    +0.000 C 
ATOM     30  C   UNL     1      38.573 -25.735 -14.185  0.00  0.00    +0.000 C 
ATOM     31  C   UNL     1      38.893 -25.471 -12.857  0.00  0.00    +0.000 C 
ENDBRANCH  19  22
ENDBRANCH   1  19
TORSDOF 4
ENDMDL
