MODEL 1
REMARK VINA RESULT:     -12.9      0.000      0.000
REMARK  Name = 11507920
REMARK  4 active torsions:
REMARK  status: ('A' for Active; 'I' for Inactive)
REMARK    1  A    between atoms: C_1  and  C_8
REMARK    2  A    between atoms: C_2  and  C_17
REMARK    3  A    between atoms: C_17  and  N_18
REMARK    4  A    between atoms: N_18  and  C_21
REMARK                            x       y       z     vdW  Elec       q    Type
REMARK                         _______ _______ _______ _____ _____    ______ ____
ROOT
ATOM      1  C   UNL     1      34.785 -19.559 -20.604  0.00  0.00    -0.000 C 
ATOM      2  C   UNL     1      34.787 -18.135 -22.555  0.00  0.00    -0.003 C 
ATOM      3  C   UNL     1      34.099 -18.946 -21.651  0.00  0.00    -0.003 C 
ATOM      4  C   UNL     1      36.158 -19.364 -20.459  0.00  0.00    -0.000 C 
ATOM      5  C   UNL     1      36.160 -17.940 -22.411  0.00  0.00    -0.003 C 
ATOM      6  C   UNL     1      36.846 -18.555 -21.363  0.00  0.00    -0.000 C 
ENDROOT
BRANCH   1   8
ATOM      7  N   UNL     1      34.490 -22.720 -16.785  0.00  0.00    -0.312 N 
ATOM      8  C   UNL     1      34.071 -20.401 -19.667  0.00  0.00    +0.001 C 
ATOM      9  C   UNL     1      34.060 -21.919 -17.818  0.00  0.00    +0.048 C 
ATOM     10  C   UNL     1      32.668 -22.023 -17.867  0.00  0.00    +0.015 C 
ATOM     11  C   UNL     1      34.788 -21.117 -18.704  0.00  0.00    +0.015 C 
ATOM     12  C   UNL     1      32.682 -20.486 -19.740  0.00  0.00    +0.000 C 
ATOM     13  C   UNL     1      31.966 -21.293 -18.847  0.00  0.00    +0.001 C 
ATOM     14  C   UNL     1      32.280 -22.914 -16.827  0.00  0.00    +0.017 C 
ATOM     15  C   UNL     1      33.422 -23.326 -16.181  0.00  0.00    +0.062 C 
ATOM     16  H   UNL     1      35.431 -22.841 -16.519  0.00  0.00    +0.152 HD
ENDBRANCH   1   8
BRANCH   2  17
ATOM     17  C   UNL     1      34.055 -17.479 -23.676  0.00  0.00    +0.114 C 
BRANCH  17  18
ATOM     18  N   UNL     1      34.448 -16.105 -23.856  0.00  0.00    -0.327 N 
ATOM     19  H   UNL     1      35.144 -15.904 -24.523  0.00  0.00    +0.147 HD
BRANCH  18  21
ATOM     20  N   UNL     1      32.546 -13.025 -23.068  0.00  0.00    -0.228 NA
ATOM     21  C   UNL     1      33.903 -15.046 -23.142  0.00  0.00    +0.077 C 
ATOM     22  C   UNL     1      33.096 -14.069 -23.729  0.00  0.00    +0.139 C 
ATOM     23  C   UNL     1      34.146 -14.914 -21.768  0.00  0.00    +0.019 C 
ATOM     24  C   UNL     1      33.598 -13.853 -21.055  0.00  0.00    +0.022 C 
ATOM     25  C   UNL     1      32.812 -12.944 -21.745  0.00  0.00    +0.100 C 
ATOM     26  N   UNL     1      32.837 -14.180 -25.118  0.00  0.00    -0.342 N 
ATOM     27  H   UNL     1      32.272 -13.511 -25.568  0.00  0.00    +0.144 HD
ATOM     28  H   UNL     1      33.220 -14.926 -25.633  0.00  0.00    +0.144 HD
ENDBRANCH  18  21
ENDBRANCH  17  18
ENDBRANCH   2  17
TORSDOF 4
ENDMDL
MODEL 2
REMARK VINA RESULT:     -12.9      1.611      2.948
REMARK  Name = 11507920
REMARK  4 active torsions:
REMARK  status: ('A' for Active; 'I' for Inactive)
REMARK    1  A    between atoms: C_1  and  C_8
REMARK    2  A    between atoms: C_2  and  C_17
REMARK    3  A    between atoms: C_17  and  N_18
REMARK    4  A    between atoms: N_18  and  C_21
REMARK                            x       y       z     vdW  Elec       q    Type
REMARK                         _______ _______ _______ _____ _____    ______ ____
ROOT
ATOM      1  C   UNL     1      34.065 -18.612 -22.183  0.00  0.00    -0.000 C 
ATOM      2  C   UNL     1      34.278 -16.390 -23.106  0.00  0.00    -0.003 C 
ATOM      3  C   UNL     1      34.390 -17.265 -22.025  0.00  0.00    -0.003 C 
ATOM      4  C   UNL     1      33.627 -19.085 -23.419  0.00  0.00    -0.000 C 
ATOM      5  C   UNL     1      33.840 -16.863 -24.344  0.00  0.00    -0.003 C 
ATOM      6  C   UNL     1      33.514 -18.211 -24.500  0.00  0.00    -0.000 C 
ENDROOT
BRANCH   1   8
ATOM      7  N   UNL     1      32.234 -21.594 -18.659  0.00  0.00    -0.312 N 
ATOM      8  C   UNL     1      34.180 -19.519 -21.060  0.00  0.00    +0.001 C 
ATOM      9  C   UNL     1      33.178 -20.927 -19.406  0.00  0.00    +0.048 C 
ATOM     10  C   UNL     1      34.429 -21.272 -18.891  0.00  0.00    +0.015 C 
ATOM     11  C   UNL     1      33.022 -20.054 -20.489  0.00  0.00    +0.015 C 
ATOM     12  C   UNL     1      35.442 -19.845 -20.566  0.00  0.00    +0.000 C 
ATOM     13  C   UNL     1      35.583 -20.719 -19.482  0.00  0.00    +0.001 C 
ATOM     14  C   UNL     1      34.202 -22.168 -17.809  0.00  0.00    +0.017 C 
ATOM     15  C   UNL     1      32.843 -22.346 -17.691  0.00  0.00    +0.062 C 
ATOM     16  H   UNL     1      31.261 -21.538 -18.800  0.00  0.00    +0.152 HD
ENDBRANCH   1   8
BRANCH   2  17
ATOM     17  C   UNL     1      34.625 -14.949 -22.940  0.00  0.00    +0.114 C 
BRANCH  17  18
ATOM     18  N   UNL     1      33.911 -14.338 -21.848  0.00  0.00    -0.327 N 
ATOM     19  H   UNL     1      33.962 -14.765 -20.963  0.00  0.00    +0.147 HD
BRANCH  18  21
ATOM     20  N   UNL     1      31.384 -11.718 -21.163  0.00  0.00    -0.228 NA
ATOM     21  C   UNL     1      33.155 -13.180 -21.972  0.00  0.00    +0.077 C 
ATOM     22  C   UNL     1      32.140 -12.836 -21.077  0.00  0.00    +0.139 C 
ATOM     23  C   UNL     1      33.388 -12.287 -23.026  0.00  0.00    +0.019 C 
ATOM     24  C   UNL     1      32.630 -11.128 -23.148  0.00  0.00    +0.022 C 
ATOM     25  C   UNL     1      31.649 -10.891 -22.199  0.00  0.00    +0.100 C 
ATOM     26  N   UNL     1      31.884 -13.724 -20.002  0.00  0.00    -0.342 N 
ATOM     27  H   UNL     1      31.176 -13.516 -19.350  0.00  0.00    +0.144 HD
ATOM     28  H   UNL     1      32.414 -14.548 -19.907  0.00  0.00    +0.144 HD
ENDBRANCH  18  21
ENDBRANCH  17  18
ENDBRANCH   2  17
TORSDOF 4
ENDMDL
MODEL 3
REMARK VINA RESULT:     -12.7      1.435      2.474
REMARK  Name = 11507920
REMARK  4 active torsions:
REMARK  status: ('A' for Active; 'I' for Inactive)
REMARK    1  A    between atoms: C_1  and  C_8
REMARK    2  A    between atoms: C_2  and  C_17
REMARK    3  A    between atoms: C_17  and  N_18
REMARK    4  A    between atoms: N_18  and  C_21
REMARK                            x       y       z     vdW  Elec       q    Type
REMARK                         _______ _______ _______ _____ _____    ______ ____
ROOT
ATOM      1  C   UNL     1      34.148 -18.771 -21.835  0.00  0.00    -0.000 C 
ATOM      2  C   UNL     1      34.331 -16.510 -22.666  0.00  0.00    -0.003 C 
ATOM      3  C   UNL     1      34.365 -17.413 -21.603  0.00  0.00    -0.003 C 
ATOM      4  C   UNL     1      33.897 -19.227 -23.129  0.00  0.00    -0.000 C 
ATOM      5  C   UNL     1      34.080 -16.966 -23.960  0.00  0.00    -0.003 C 
ATOM      6  C   UNL     1      33.862 -18.325 -24.192  0.00  0.00    -0.000 C 
ENDROOT
BRANCH   1   8
ATOM      7  N   UNL     1      32.059 -21.718 -18.427  0.00  0.00    -0.312 N 
ATOM      8  C   UNL     1      34.182 -19.708 -20.732  0.00  0.00    +0.001 C 
ATOM      9  C   UNL     1      33.059 -21.091 -19.136  0.00  0.00    +0.048 C 
ATOM     10  C   UNL     1      34.275 -21.519 -18.598  0.00  0.00    +0.015 C 
ATOM     11  C   UNL     1      32.982 -20.187 -20.201  0.00  0.00    +0.015 C 
ATOM     12  C   UNL     1      35.411 -20.117 -20.215  0.00  0.00    +0.000 C 
ATOM     13  C   UNL     1      35.473 -21.021 -19.148  0.00  0.00    +0.001 C 
ATOM     14  C   UNL     1      33.968 -22.423 -17.543  0.00  0.00    +0.017 C 
ATOM     15  C   UNL     1      32.599 -22.524 -17.462  0.00  0.00    +0.062 C 
ATOM     16  H   UNL     1      31.095 -21.602 -18.590  0.00  0.00    +0.152 HD
ENDBRANCH   1   8
BRANCH   2  17
ATOM     17  C   UNL     1      34.562 -15.058 -22.420  0.00  0.00    +0.114 C 
BRANCH  17  18
ATOM     18  N   UNL     1      33.557 -14.232 -23.038  0.00  0.00    -0.327 N 
ATOM     19  H   UNL     1      33.353 -14.382 -23.989  0.00  0.00    +0.147 HD
BRANCH  18  21
ATOM     20  N   UNL     1      31.858 -11.015 -22.339  0.00  0.00    -0.228 NA
ATOM     21  C   UNL     1      32.859 -13.235 -22.369  0.00  0.00    +0.077 C 
ATOM     22  C   UNL     1      32.537 -12.009 -22.955  0.00  0.00    +0.139 C 
ATOM     23  C   UNL     1      32.437 -13.426 -21.047  0.00  0.00    +0.019 C 
ATOM     24  C   UNL     1      31.737 -12.427 -20.380  0.00  0.00    +0.022 C 
ATOM     25  C   UNL     1      31.475 -11.250 -21.064  0.00  0.00    +0.100 C 
ATOM     26  N   UNL     1      32.954 -11.791 -24.292  0.00  0.00    -0.342 N 
ATOM     27  H   UNL     1      32.746 -10.939 -24.740  0.00  0.00    +0.144 HD
ATOM     28  H   UNL     1      33.450 -12.491 -24.774  0.00  0.00    +0.144 HD
ENDBRANCH  18  21
ENDBRANCH  17  18
ENDBRANCH   2  17
TORSDOF 4
ENDMDL
MODEL 4
REMARK VINA RESULT:     -12.6      1.807      8.646
REMARK  Name = 11507920
REMARK  4 active torsions:
REMARK  status: ('A' for Active; 'I' for Inactive)
REMARK    1  A    between atoms: C_1  and  C_8
REMARK    2  A    between atoms: C_2  and  C_17
REMARK    3  A    between atoms: C_17  and  N_18
REMARK    4  A    between atoms: N_18  and  C_21
REMARK                            x       y       z     vdW  Elec       q    Type
REMARK                         _______ _______ _______ _____ _____    ______ ____
ROOT
ATOM      1  C   UNL     1      34.588 -19.764 -20.461  0.00  0.00    -0.000 C 
ATOM      2  C   UNL     1      33.628 -21.306 -18.869  0.00  0.00    -0.003 C 
ATOM      3  C   UNL     1      33.470 -20.375 -19.896  0.00  0.00    -0.003 C 
ATOM      4  C   UNL     1      35.865 -20.081 -20.000  0.00  0.00    -0.000 C 
ATOM      5  C   UNL     1      34.906 -21.624 -18.407  0.00  0.00    -0.003 C 
ATOM      6  C   UNL     1      36.025 -21.010 -18.972  0.00  0.00    -0.000 C 
ENDROOT
BRANCH   1   8
ATOM      7  N   UNL     1      34.536 -15.164 -22.333  0.00  0.00    -0.312 N 
ATOM      8  C   UNL     1      34.423 -18.796 -21.526  0.00  0.00    +0.001 C 
ATOM      9  C   UNL     1      34.428 -16.536 -22.308  0.00  0.00    +0.048 C 
ATOM     10  C   UNL     1      34.098 -16.946 -23.602  0.00  0.00    +0.015 C 
ATOM     11  C   UNL     1      34.597 -17.437 -21.251  0.00  0.00    +0.015 C 
ATOM     12  C   UNL     1      34.093 -19.234 -22.807  0.00  0.00    +0.000 C 
ATOM     13  C   UNL     1      33.926 -18.322 -23.855  0.00  0.00    +0.001 C 
ATOM     14  C   UNL     1      34.012 -15.772 -24.402  0.00  0.00    +0.017 C 
ATOM     15  C   UNL     1      34.285 -14.694 -23.594  0.00  0.00    +0.062 C 
ATOM     16  H   UNL     1      34.760 -14.602 -21.556  0.00  0.00    +0.152 HD
ENDBRANCH   1   8
BRANCH   2  17
ATOM     17  C   UNL     1      32.433 -21.961 -18.263  0.00  0.00    +0.114 C 
BRANCH  17  18
ATOM     18  N   UNL     1      32.753 -22.668 -17.050  0.00  0.00    -0.327 N 
ATOM     19  H   UNL     1      33.622 -23.128 -16.996  0.00  0.00    +0.147 HD
BRANCH  18  21
ATOM     20  N   UNL     1      31.580 -22.826 -13.540  0.00  0.00    -0.228 NA
ATOM     21  C   UNL     1      31.907 -22.739 -15.951  0.00  0.00    +0.077 C 
ATOM     22  C   UNL     1      32.371 -22.759 -14.634  0.00  0.00    +0.139 C 
ATOM     23  C   UNL     1      30.518 -22.793 -16.126  0.00  0.00    +0.019 C 
ATOM     24  C   UNL     1      29.672 -22.864 -15.025  0.00  0.00    +0.022 C 
ATOM     25  C   UNL     1      30.248 -22.877 -13.764  0.00  0.00    +0.100 C 
ATOM     26  N   UNL     1      33.773 -22.707 -14.432  0.00  0.00    -0.342 N 
ATOM     27  H   UNL     1      34.139 -22.718 -13.518  0.00  0.00    +0.144 HD
ATOM     28  H   UNL     1      34.381 -22.657 -15.204  0.00  0.00    +0.144 HD
ENDBRANCH  18  21
ENDBRANCH  17  18
ENDBRANCH   2  17
TORSDOF 4
ENDMDL
MODEL 5
REMARK VINA RESULT:     -12.4      1.919      4.009
REMARK  Name = 11507920
REMARK  4 active torsions:
REMARK  status: ('A' for Active; 'I' for Inactive)
REMARK    1  A    between atoms: C_1  and  C_8
REMARK    2  A    between atoms: C_2  and  C_17
REMARK    3  A    between atoms: C_17  and  N_18
REMARK    4  A    between atoms: N_18  and  C_21
REMARK                            x       y       z     vdW  Elec       q    Type
REMARK                         _______ _______ _______ _____ _____    ______ ____
ROOT
ATOM      1  C   UNL     1      34.340 -17.244 -22.609  0.00  0.00    -0.000 C 
ATOM      2  C   UNL     1      33.939 -14.934 -23.191  0.00  0.00    -0.003 C 
ATOM      3  C   UNL     1      34.349 -15.893 -22.264  0.00  0.00    -0.003 C 
ATOM      4  C   UNL     1      33.921 -17.638 -23.879  0.00  0.00    -0.000 C 
ATOM      5  C   UNL     1      33.520 -15.328 -24.462  0.00  0.00    -0.003 C 
ATOM      6  C   UNL     1      33.510 -16.680 -24.806  0.00  0.00    -0.000 C 
ENDROOT
BRANCH   1   8
ATOM      7  N   UNL     1      33.597 -21.087 -19.553  0.00  0.00    -0.312 N 
ATOM      8  C   UNL     1      34.764 -18.239 -21.646  0.00  0.00    +0.001 C 
ATOM      9  C   UNL     1      34.280 -20.089 -20.209  0.00  0.00    +0.048 C 
ATOM     10  C   UNL     1      35.609 -20.152 -19.785  0.00  0.00    +0.015 C 
ATOM     11  C   UNL     1      33.829 -19.144 -21.137  0.00  0.00    +0.015 C 
ATOM     12  C   UNL     1      36.097 -18.278 -21.240  0.00  0.00    +0.000 C 
ATOM     13  C   UNL     1      36.535 -19.228 -20.310  0.00  0.00    +0.001 C 
ATOM     14  C   UNL     1      35.698 -21.223 -18.852  0.00  0.00    +0.017 C 
ATOM     15  C   UNL     1      34.446 -21.778 -18.730  0.00  0.00    +0.062 C 
ATOM     16  H   UNL     1      32.637 -21.278 -19.659  0.00  0.00    +0.152 HD
ENDBRANCH   1   8
BRANCH   2  17
ATOM     17  C   UNL     1      33.948 -13.489 -22.824  0.00  0.00    +0.114 C 
BRANCH  17  18
ATOM     18  N   UNL     1      32.739 -12.816 -23.224  0.00  0.00    -0.327 N 
ATOM     19  H   UNL     1      32.249 -13.165 -24.003  0.00  0.00    +0.147 HD
BRANCH  18  21
ATOM     20  N   UNL     1      31.105 -10.708 -20.653  0.00  0.00    -0.228 NA
ATOM     21  C   UNL     1      32.224 -11.702 -22.574  0.00  0.00    +0.077 C 
ATOM     22  C   UNL     1      31.616 -11.769 -21.318  0.00  0.00    +0.139 C 
ATOM     23  C   UNL     1      32.297 -10.435 -23.167  0.00  0.00    +0.019 C 
ATOM     24  C   UNL     1      31.782  -9.321 -22.514  0.00  0.00    +0.022 C 
ATOM     25  C   UNL     1      31.201  -9.509 -21.270  0.00  0.00    +0.100 C 
ATOM     26  N   UNL     1      31.529 -13.040 -20.699  0.00  0.00    -0.342 N 
ATOM     27  H   UNL     1      31.107 -13.127 -19.813  0.00  0.00    +0.144 HD
ATOM     28  H   UNL     1      31.890 -13.836 -21.152  0.00  0.00    +0.144 HD
ENDBRANCH  18  21
ENDBRANCH  17  18
ENDBRANCH   2  17
TORSDOF 4
ENDMDL
MODEL 6
REMARK VINA RESULT:     -12.3      2.285      8.710
REMARK  Name = 11507920
REMARK  4 active torsions:
REMARK  status: ('A' for Active; 'I' for Inactive)
REMARK    1  A    between atoms: C_1  and  C_8
REMARK    2  A    between atoms: C_2  and  C_17
REMARK    3  A    between atoms: C_17  and  N_18
REMARK    4  A    between atoms: N_18  and  C_21
REMARK                            x       y       z     vdW  Elec       q    Type
REMARK                         _______ _______ _______ _____ _____    ______ ____
ROOT
ATOM      1  C   UNL     1      33.438 -14.401 -22.602  0.00  0.00    -0.000 C 
ATOM      2  C   UNL     1      34.517 -16.514 -22.149  0.00  0.00    -0.003 C 
ATOM      3  C   UNL     1      33.915 -15.342 -21.690  0.00  0.00    -0.003 C 
ATOM      4  C   UNL     1      33.565 -14.629 -23.972  0.00  0.00    -0.000 C 
ATOM      5  C   UNL     1      34.645 -16.743 -23.519  0.00  0.00    -0.003 C 
ATOM      6  C   UNL     1      34.169 -15.800 -24.431  0.00  0.00    -0.000 C 
ENDROOT
BRANCH   1   8
ATOM      7  N   UNL     1      31.863  -9.717 -23.090  0.00  0.00    -0.312 N 
ATOM      8  C   UNL     1      32.814 -13.184 -22.126  0.00  0.00    +0.001 C 
ATOM      9  C   UNL     1      32.100 -10.930 -22.484  0.00  0.00    +0.048 C 
ATOM     10  C   UNL     1      31.602 -10.843 -21.182  0.00  0.00    +0.015 C 
ATOM     11  C   UNL     1      32.710 -12.086 -22.983  0.00  0.00    +0.015 C 
ATOM     12  C   UNL     1      32.327 -13.127 -20.822  0.00  0.00    +0.000 C 
ATOM     13  C   UNL     1      31.719 -11.964 -20.335  0.00  0.00    +0.001 C 
ATOM     14  C   UNL     1      31.059  -9.537 -21.030  0.00  0.00    +0.017 C 
ATOM     15  C   UNL     1      31.235  -8.869 -22.219  0.00  0.00    +0.062 C 
ATOM     16  H   UNL     1      32.110  -9.491 -24.016  0.00  0.00    +0.152 HD
ENDBRANCH   1   8
BRANCH   2  17
ATOM     17  C   UNL     1      35.027 -17.522 -21.175  0.00  0.00    +0.114 C 
BRANCH  17  18
ATOM     18  N   UNL     1      34.326 -18.776 -21.268  0.00  0.00    -0.327 N 
ATOM     19  H   UNL     1      33.742 -18.925 -22.047  0.00  0.00    +0.147 HD
BRANCH  18  21
ATOM     20  N   UNL     1      33.374 -21.481 -18.923  0.00  0.00    -0.228 NA
ATOM     21  C   UNL     1      34.425 -19.789 -20.324  0.00  0.00    +0.077 C 
ATOM     22  C   UNL     1      33.318 -20.489 -19.841  0.00  0.00    +0.139 C 
ATOM     23  C   UNL     1      35.673 -20.159 -19.806  0.00  0.00    +0.019 C 
ATOM     24  C   UNL     1      35.771 -21.173 -18.860  0.00  0.00    +0.022 C 
ATOM     25  C   UNL     1      34.602 -21.798 -18.456  0.00  0.00    +0.100 C 
ATOM     26  N   UNL     1      32.043 -20.132 -20.348  0.00  0.00    -0.342 N 
ATOM     27  H   UNL     1      31.239 -20.603 -20.033  0.00  0.00    +0.144 HD
ATOM     28  H   UNL     1      31.963 -19.415 -21.018  0.00  0.00    +0.144 HD
ENDBRANCH  18  21
ENDBRANCH  17  18
ENDBRANCH   2  17
TORSDOF 4
ENDMDL
MODEL 7
REMARK VINA RESULT:     -12.2      2.574      9.090
REMARK  Name = 11507920
REMARK  4 active torsions:
REMARK  status: ('A' for Active; 'I' for Inactive)
REMARK    1  A    between atoms: C_1  and  C_8
REMARK    2  A    between atoms: C_2  and  C_17
REMARK    3  A    between atoms: C_17  and  N_18
REMARK    4  A    between atoms: N_18  and  C_21
REMARK                            x       y       z     vdW  Elec       q    Type
REMARK                         _______ _______ _______ _____ _____    ______ ____
ROOT
ATOM      1  C   UNL     1      33.064 -13.636 -22.983  0.00  0.00    -0.000 C 
ATOM      2  C   UNL     1      34.207 -15.727 -22.592  0.00  0.00    -0.003 C 
ATOM      3  C   UNL     1      33.669 -14.535 -22.106  0.00  0.00    -0.003 C 
ATOM      4  C   UNL     1      32.997 -13.925 -24.345  0.00  0.00    -0.000 C 
ATOM      5  C   UNL     1      34.141 -16.018 -23.955  0.00  0.00    -0.003 C 
ATOM      6  C   UNL     1      33.536 -15.116 -24.832  0.00  0.00    -0.000 C 
ENDROOT
BRANCH   1   8
ATOM      7  N   UNL     1      32.011  -8.789 -23.248  0.00  0.00    -0.312 N 
ATOM      8  C   UNL     1      32.506 -12.398 -22.479  0.00  0.00    +0.001 C 
ATOM      9  C   UNL     1      32.058 -10.061 -22.723  0.00  0.00    +0.048 C 
ATOM     10  C   UNL     1      31.420 -10.017 -21.481  0.00  0.00    +0.015 C 
ATOM     11  C   UNL     1      32.610 -11.235 -23.247  0.00  0.00    +0.015 C 
ATOM     12  C   UNL     1      31.876 -12.384 -21.236  0.00  0.00    +0.000 C 
ATOM     13  C   UNL     1      31.328 -11.202 -20.724  0.00  0.00    +0.001 C 
ATOM     14  C   UNL     1      30.990  -8.676 -21.281  0.00  0.00    +0.017 C 
ATOM     15  C   UNL     1      31.368  -7.946 -22.383  0.00  0.00    +0.062 C 
ATOM     16  H   UNL     1      32.386  -8.525 -24.119  0.00  0.00    +0.152 HD
ENDBRANCH   1   8
BRANCH   2  17
ATOM     17  C   UNL     1      34.855 -16.690 -21.656  0.00  0.00    +0.114 C 
BRANCH  17  18
ATOM     18  N   UNL     1      34.468 -18.052 -21.918  0.00  0.00    -0.327 N 
ATOM     19  H   UNL     1      34.140 -18.277 -22.819  0.00  0.00    +0.147 HD
BRANCH  18  21
ATOM     20  N   UNL     1      35.806 -20.405 -19.390  0.00  0.00    -0.228 NA
ATOM     21  C   UNL     1      34.528 -19.068 -20.973  0.00  0.00    +0.077 C 
ATOM     22  C   UNL     1      35.707 -19.424 -20.315  0.00  0.00    +0.139 C 
ATOM     23  C   UNL     1      33.378 -19.791 -20.632  0.00  0.00    +0.019 C 
ATOM     24  C   UNL     1      33.441 -20.808 -19.685  0.00  0.00    +0.022 C 
ATOM     25  C   UNL     1      34.668 -21.073 -19.097  0.00  0.00    +0.100 C 
ATOM     26  N   UNL     1      36.885 -18.707 -20.644  0.00  0.00    -0.342 N 
ATOM     27  H   UNL     1      37.736 -18.929 -20.202  0.00  0.00    +0.144 HD
ATOM     28  H   UNL     1      36.852 -17.987 -21.314  0.00  0.00    +0.144 HD
ENDBRANCH  18  21
ENDBRANCH  17  18
ENDBRANCH   2  17
TORSDOF 4
ENDMDL
MODEL 8
REMARK VINA RESULT:     -12.1      2.051      3.518
REMARK  Name = 11507920
REMARK  4 active torsions:
REMARK  status: ('A' for Active; 'I' for Inactive)
REMARK    1  A    between atoms: C_1  and  C_8
REMARK    2  A    between atoms: C_2  and  C_17
REMARK    3  A    between atoms: C_17  and  N_18
REMARK    4  A    between atoms: N_18  and  C_21
REMARK                            x       y       z     vdW  Elec       q    Type
REMARK                         _______ _______ _______ _____ _____    ______ ____
ROOT
ATOM      1  C   UNL     1      34.523 -21.026 -18.671  0.00  0.00    -0.000 C 
ATOM      2  C   UNL     1      34.667 -19.535 -20.566  0.00  0.00    -0.003 C 
ATOM      3  C   UNL     1      35.268 -20.165 -19.476  0.00  0.00    -0.003 C 
ATOM      4  C   UNL     1      33.178 -21.258 -18.954  0.00  0.00    -0.000 C 
ATOM      5  C   UNL     1      33.320 -19.766 -20.849  0.00  0.00    -0.003 C 
ATOM      6  C   UNL     1      32.576 -20.627 -20.042  0.00  0.00    -0.000 C 
ENDROOT
BRANCH   1   8
ATOM      7  N   UNL     1      34.541 -24.016 -14.706  0.00  0.00    -0.312 N 
ATOM      8  C   UNL     1      35.147 -21.679 -17.539  0.00  0.00    +0.001 C 
ATOM      9  C   UNL     1      35.029 -23.143 -15.651  0.00  0.00    +0.048 C 
ATOM     10  C   UNL     1      36.377 -22.929 -15.356  0.00  0.00    +0.015 C 
ATOM     11  C   UNL     1      34.388 -22.532 -16.735  0.00  0.00    +0.015 C 
ATOM     12  C   UNL     1      36.495 -21.446 -17.269  0.00  0.00    +0.000 C 
ATOM     13  C   UNL     1      37.124 -22.064 -16.181  0.00  0.00    +0.001 C 
ATOM     14  C   UNL     1      36.679 -23.704 -14.202  0.00  0.00    +0.017 C 
ATOM     15  C   UNL     1      35.531 -24.360 -13.826  0.00  0.00    +0.062 C 
ATOM     16  H   UNL     1      33.614 -24.345 -14.668  0.00  0.00    +0.152 HD
ENDBRANCH   1   8
BRANCH   2  17
ATOM     17  C   UNL     1      35.462 -18.613 -21.428  0.00  0.00    +0.114 C 
BRANCH  17  18
ATOM     18  N   UNL     1      35.118 -17.231 -21.212  0.00  0.00    -0.327 N 
ATOM     19  H   UNL     1      35.292 -16.842 -20.325  0.00  0.00    +0.147 HD
BRANCH  18  21
ATOM     20  N   UNL     1      33.493 -14.320 -22.826  0.00  0.00    -0.228 NA
ATOM     21  C   UNL     1      34.556 -16.415 -22.185  0.00  0.00    +0.077 C 
ATOM     22  C   UNL     1      34.047 -15.144 -21.908  0.00  0.00    +0.139 C 
ATOM     23  C   UNL     1      34.477 -16.844 -23.516  0.00  0.00    +0.019 C 
ATOM     24  C   UNL     1      33.913 -16.025 -24.488  0.00  0.00    +0.022 C 
ATOM     25  C   UNL     1      33.441 -14.783 -24.095  0.00  0.00    +0.100 C 
ATOM     26  N   UNL     1      34.114 -14.687 -20.568  0.00  0.00    -0.342 N 
ATOM     27  H   UNL     1      33.766 -13.797 -20.334  0.00  0.00    +0.144 HD
ATOM     28  H   UNL     1      34.510 -15.259 -19.872  0.00  0.00    +0.144 HD
ENDBRANCH  18  21
ENDBRANCH  17  18
ENDBRANCH   2  17
TORSDOF 4
ENDMDL
MODEL 9
REMARK VINA RESULT:     -12.0      1.597      8.431
REMARK  Name = 11507920
REMARK  4 active torsions:
REMARK  status: ('A' for Active; 'I' for Inactive)
REMARK    1  A    between atoms: C_1  and  C_8
REMARK    2  A    between atoms: C_2  and  C_17
REMARK    3  A    between atoms: C_17  and  N_18
REMARK    4  A    between atoms: N_18  and  C_21
REMARK                            x       y       z     vdW  Elec       q    Type
REMARK                         _______ _______ _______ _____ _____    ______ ____
ROOT
ATOM      1  C   UNL     1      34.388 -16.884 -22.265  0.00  0.00    -0.000 C 
ATOM      2  C   UNL     1      35.352 -18.808 -21.169  0.00  0.00    -0.003 C 
ATOM      3  C   UNL     1      35.030 -17.450 -21.165  0.00  0.00    -0.003 C 
ATOM      4  C   UNL     1      34.068 -17.672 -23.370  0.00  0.00    -0.000 C 
ATOM      5  C   UNL     1      35.032 -19.597 -22.274  0.00  0.00    -0.003 C 
ATOM      6  C   UNL     1      34.391 -19.029 -23.375  0.00  0.00    -0.000 C 
ENDROOT
BRANCH   1   8
ATOM      7  N   UNL     1      33.096 -12.605 -24.432  0.00  0.00    -0.312 N 
ATOM      8  C   UNL     1      34.055 -15.474 -22.262  0.00  0.00    +0.001 C 
ATOM      9  C   UNL     1      33.433 -13.476 -23.421  0.00  0.00    +0.048 C 
ATOM     10  C   UNL     1      33.414 -12.749 -22.229  0.00  0.00    +0.015 C 
ATOM     11  C   UNL     1      33.749 -14.839 -23.468  0.00  0.00    +0.015 C 
ATOM     12  C   UNL     1      34.044 -14.774 -21.057  0.00  0.00    +0.000 C 
ATOM     13  C   UNL     1      33.727 -13.411 -21.024  0.00  0.00    +0.001 C 
ATOM     14  C   UNL     1      33.054 -11.413 -22.561  0.00  0.00    +0.017 C 
ATOM     15  C   UNL     1      32.866 -11.357 -23.922  0.00  0.00    +0.062 C 
ATOM     16  H   UNL     1      33.031 -12.846 -25.384  0.00  0.00    +0.152 HD
ENDBRANCH   1   8
BRANCH   2  17
ATOM     17  C   UNL     1      36.039 -19.416 -19.993  0.00  0.00    +0.114 C 
BRANCH  17  18
ATOM     18  N   UNL     1      35.697 -20.804 -19.818  0.00  0.00    -0.327 N 
ATOM     19  H   UNL     1      35.699 -21.386 -20.612  0.00  0.00    +0.147 HD
BRANCH  18  21
ATOM     20  N   UNL     1      33.753 -22.491 -17.154  0.00  0.00    -0.228 NA
ATOM     21  C   UNL     1      35.365 -21.369 -18.594  0.00  0.00    +0.077 C 
ATOM     22  C   UNL     1      34.114 -21.931 -18.331  0.00  0.00    +0.139 C 
ATOM     23  C   UNL     1      36.297 -21.401 -17.548  0.00  0.00    +0.019 C 
ATOM     24  C   UNL     1      35.963 -21.967 -16.324  0.00  0.00    +0.022 C 
ATOM     25  C   UNL     1      34.690 -22.495 -16.178  0.00  0.00    +0.100 C 
ATOM     26  N   UNL     1      33.153 -21.910 -19.372  0.00  0.00    -0.342 N 
ATOM     27  H   UNL     1      32.260 -22.296 -19.225  0.00  0.00    +0.144 HD
ATOM     28  H   UNL     1      33.379 -21.510 -20.243  0.00  0.00    +0.144 HD
ENDBRANCH  18  21
ENDBRANCH  17  18
ENDBRANCH   2  17
TORSDOF 4
ENDMDL
