MODEL 1
REMARK VINA RESULT:     -12.2      0.000      0.000
REMARK  Name = 1948
REMARK  7 active torsions:
REMARK  status: ('A' for Active; 'I' for Inactive)
REMARK    1  A    between atoms: C_1  and  N_7
REMARK    2  A    between atoms: C_4  and  S_19
REMARK    3  A    between atoms: C_8  and  C_13
REMARK    4  A    between atoms: S_19  and  N_22
REMARK    5  A    between atoms: N_22  and  C_24
REMARK    6  A    between atoms: C_24  and  C_26
REMARK    7  A    between atoms: C_26  and  O_27
REMARK                            x       y       z     vdW  Elec       q    Type
REMARK                         _______ _______ _______ _____ _____    ______ ____
ROOT
ATOM      1  C   UNL     1      35.536 -21.312 -17.921  0.00  0.00    +0.048 C 
ATOM      2  C   UNL     1      34.523 -22.097 -17.336  0.00  0.00    +0.016 C 
ATOM      3  C   UNL     1      36.795 -21.274 -17.291  0.00  0.00    +0.016 C 
ATOM      4  C   UNL     1      36.015 -22.765 -15.556  0.00  0.00    +0.122 C 
ATOM      5  C   UNL     1      34.761 -22.816 -16.164  0.00  0.00    +0.021 C 
ATOM      6  C   UNL     1      37.032 -21.993 -16.119  0.00  0.00    +0.021 C 
ENDROOT
BRANCH   1   7
ATOM      7  N   UNL     1      35.298 -20.589 -19.097  0.00  0.00    -0.307 N 
ATOM      8  C   UNL     1      34.767 -19.222 -21.592  0.00  0.00    +0.026 C 
ATOM      9  C   UNL     1      33.644 -19.545 -20.594  0.00  0.00    +0.026 C 
ATOM     10  C   UNL     1      36.087 -19.030 -20.833  0.00  0.00    +0.026 C 
ATOM     11  C   UNL     1      33.992 -20.767 -19.745  0.00  0.00    +0.091 C 
ATOM     12  C   UNL     1      36.423 -20.252 -19.977  0.00  0.00    +0.091 C 
BRANCH   8  13
ATOM     13  C   UNL     1      34.430 -18.027 -22.464  0.00  0.00    -0.022 C 
ATOM     14  C   UNL     1      33.785 -18.219 -23.685  0.00  0.00    -0.004 C 
ATOM     15  C   UNL     1      34.766 -16.743 -22.042  0.00  0.00    -0.004 C 
ATOM     16  C   UNL     1      33.476 -17.119 -24.487  0.00  0.00    -0.000 C 
ATOM     17  C   UNL     1      34.457 -15.644 -22.843  0.00  0.00    -0.000 C 
ATOM     18  C   UNL     1      33.812 -15.833 -24.067  0.00  0.00    -0.000 C 
ENDBRANCH   8  13
ENDBRANCH   1   7
BRANCH   4  19
ATOM     19  S   UNL     1      36.312 -23.665 -14.090  0.00  0.00    +0.061 S 
ATOM     20  O   UNL     1      37.080 -22.830 -13.175  0.00  0.00    -0.153 OA
ATOM     21  O   UNL     1      35.043 -24.226 -13.648  0.00  0.00    -0.153 OA
BRANCH  19  22
ATOM     22  N   UNL     1      37.311 -24.939 -14.636  0.00  0.00    -0.168 NA
ATOM     23  H   UNL     1      37.657 -24.669 -15.557  0.00  0.00    +0.149 HD
BRANCH  22  24
ATOM     24  C   UNL     1      38.482 -25.342 -13.844  0.00  0.00    +0.200 C 
BRANCH  24  26
ATOM     25  O   UNL     1      40.520 -24.045 -14.127  0.00  0.00    -0.249 OA
ATOM     26  C   UNL     1      39.720 -24.871 -14.544  0.00  0.00    +0.332 C 
BRANCH  26  27
ATOM     27  O   UNL     1      39.845 -25.500 -15.740  0.00  0.00    -0.479 OA
ATOM     28  H   UNL     1      39.607 -25.056 -16.530  0.00  0.00    +0.295 HD
ENDBRANCH  26  27
ENDBRANCH  24  26
ENDBRANCH  22  24
ENDBRANCH  19  22
ENDBRANCH   4  19
TORSDOF 7
ENDMDL
MODEL 2
REMARK VINA RESULT:     -11.9      2.030      2.816
REMARK  Name = 1948
REMARK  7 active torsions:
REMARK  status: ('A' for Active; 'I' for Inactive)
REMARK    1  A    between atoms: C_1  and  N_7
REMARK    2  A    between atoms: C_4  and  S_19
REMARK    3  A    between atoms: C_8  and  C_13
REMARK    4  A    between atoms: S_19  and  N_22
REMARK    5  A    between atoms: N_22  and  C_24
REMARK    6  A    between atoms: C_24  and  C_26
REMARK    7  A    between atoms: C_26  and  O_27
REMARK                            x       y       z     vdW  Elec       q    Type
REMARK                         _______ _______ _______ _____ _____    ______ ____
ROOT
ATOM      1  C   UNL     1      34.705 -21.633 -17.729  0.00  0.00    +0.048 C 
ATOM      2  C   UNL     1      33.583 -22.359 -17.285  0.00  0.00    +0.016 C 
ATOM      3  C   UNL     1      35.872 -21.665 -16.940  0.00  0.00    +0.016 C 
ATOM      4  C   UNL     1      34.792 -23.107 -15.331  0.00  0.00    +0.122 C 
ATOM      5  C   UNL     1      33.626 -23.089 -16.096  0.00  0.00    +0.021 C 
ATOM      6  C   UNL     1      35.914 -22.395 -15.752  0.00  0.00    +0.021 C 
ENDROOT
BRANCH   1   7
ATOM      7  N   UNL     1      34.663 -20.899 -18.921  0.00  0.00    -0.307 N 
ATOM      8  C   UNL     1      34.533 -19.507 -21.455  0.00  0.00    +0.026 C 
ATOM      9  C   UNL     1      33.280 -19.737 -20.596  0.00  0.00    +0.026 C 
ATOM     10  C   UNL     1      35.767 -19.414 -20.546  0.00  0.00    +0.026 C 
ATOM     11  C   UNL     1      33.431 -20.979 -19.717  0.00  0.00    +0.091 C 
ATOM     12  C   UNL     1      35.905 -20.655 -19.662  0.00  0.00    +0.091 C 
BRANCH   8  13
ATOM     13  C   UNL     1      34.394 -18.294 -22.355  0.00  0.00    -0.022 C 
ATOM     14  C   UNL     1      34.860 -17.053 -21.923  0.00  0.00    -0.004 C 
ATOM     15  C   UNL     1      33.800 -18.423 -23.608  0.00  0.00    -0.004 C 
ATOM     16  C   UNL     1      34.731 -15.936 -22.750  0.00  0.00    -0.000 C 
ATOM     17  C   UNL     1      33.671 -17.307 -24.435  0.00  0.00    -0.000 C 
ATOM     18  C   UNL     1      34.136 -16.063 -24.005  0.00  0.00    -0.000 C 
ENDBRANCH   8  13
ENDBRANCH   1   7
BRANCH   4  19
ATOM     19  S   UNL     1      34.845 -24.021 -13.844  0.00  0.00    +0.061 S 
ATOM     20  O   UNL     1      33.500 -24.489 -13.533  0.00  0.00    -0.153 OA
ATOM     21  O   UNL     1      35.929 -24.987 -13.953  0.00  0.00    -0.153 OA
BRANCH  19  22
ATOM     22  N   UNL     1      35.288 -22.833 -12.698  0.00  0.00    -0.168 NA
ATOM     23  H   UNL     1      34.448 -22.610 -12.163  0.00  0.00    +0.149 HD
BRANCH  22  24
ATOM     24  C   UNL     1      36.350 -23.116 -11.722  0.00  0.00    +0.200 C 
BRANCH  24  26
ATOM     25  O   UNL     1      36.029 -23.518  -9.345  0.00  0.00    -0.249 OA
ATOM     26  C   UNL     1      35.732 -23.743 -10.509  0.00  0.00    +0.332 C 
BRANCH  26  27
ATOM     27  O   UNL     1      34.767 -24.622 -10.882  0.00  0.00    -0.479 OA
ATOM     28  H   UNL     1      34.996 -25.388 -11.374  0.00  0.00    +0.295 HD
ENDBRANCH  26  27
ENDBRANCH  24  26
ENDBRANCH  22  24
ENDBRANCH  19  22
ENDBRANCH   4  19
TORSDOF 7
ENDMDL
MODEL 3
REMARK VINA RESULT:     -11.9      1.049      1.849
REMARK  Name = 1948
REMARK  7 active torsions:
REMARK  status: ('A' for Active; 'I' for Inactive)
REMARK    1  A    between atoms: C_1  and  N_7
REMARK    2  A    between atoms: C_4  and  S_19
REMARK    3  A    between atoms: C_8  and  C_13
REMARK    4  A    between atoms: S_19  and  N_22
REMARK    5  A    between atoms: N_22  and  C_24
REMARK    6  A    between atoms: C_24  and  C_26
REMARK    7  A    between atoms: C_26  and  O_27
REMARK                            x       y       z     vdW  Elec       q    Type
REMARK                         _______ _______ _______ _____ _____    ______ ____
ROOT
ATOM      1  C   UNL     1      34.879 -21.717 -17.426  0.00  0.00    +0.048 C 
ATOM      2  C   UNL     1      36.061 -21.705 -16.662  0.00  0.00    +0.016 C 
ATOM      3  C   UNL     1      33.778 -22.445 -16.936  0.00  0.00    +0.016 C 
ATOM      4  C   UNL     1      35.037 -23.111 -14.984  0.00  0.00    +0.122 C 
ATOM      5  C   UNL     1      36.140 -22.396 -15.452  0.00  0.00    +0.021 C 
ATOM      6  C   UNL     1      33.856 -23.136 -15.726  0.00  0.00    +0.021 C 
ENDROOT
BRANCH   1   7
ATOM      7  N   UNL     1      34.800 -21.024 -18.641  0.00  0.00    -0.307 N 
ATOM      8  C   UNL     1      34.595 -19.720 -21.217  0.00  0.00    +0.026 C 
ATOM      9  C   UNL     1      33.369 -19.914 -20.311  0.00  0.00    +0.026 C 
ATOM     10  C   UNL     1      35.857 -19.602 -20.351  0.00  0.00    +0.026 C 
ATOM     11  C   UNL     1      33.543 -21.125 -19.395  0.00  0.00    +0.091 C 
ATOM     12  C   UNL     1      36.019 -20.811 -19.430  0.00  0.00    +0.091 C 
BRANCH   8  13
ATOM     13  C   UNL     1      34.430 -18.538 -22.153  0.00  0.00    -0.022 C 
ATOM     14  C   UNL     1      34.869 -17.275 -21.759  0.00  0.00    -0.004 C 
ATOM     15  C   UNL     1      33.842 -18.717 -23.403  0.00  0.00    -0.004 C 
ATOM     16  C   UNL     1      34.717 -16.187 -22.620  0.00  0.00    -0.000 C 
ATOM     17  C   UNL     1      33.690 -17.631 -24.263  0.00  0.00    -0.000 C 
ATOM     18  C   UNL     1      34.128 -16.365 -23.871  0.00  0.00    -0.000 C 
ENDBRANCH   8  13
ENDBRANCH   1   7
BRANCH   4  19
ATOM     19  S   UNL     1      35.135 -23.976 -13.471  0.00  0.00    +0.061 S 
ATOM     20  O   UNL     1      35.994 -23.230 -12.560  0.00  0.00    -0.153 OA
ATOM     21  O   UNL     1      33.778 -24.310 -13.060  0.00  0.00    -0.153 OA
BRANCH  19  22
ATOM     22  N   UNL     1      35.937 -25.416 -13.922  0.00  0.00    -0.168 NA
ATOM     23  H   UNL     1      36.328 -25.258 -14.851  0.00  0.00    +0.149 HD
BRANCH  22  24
ATOM     24  C   UNL     1      37.028 -25.939 -13.087  0.00  0.00    +0.200 C 
BRANCH  24  26
ATOM     25  O   UNL     1      39.016 -26.231 -14.456  0.00  0.00    -0.249 OA
ATOM     26  C   UNL     1      38.336 -25.548 -13.705  0.00  0.00    +0.332 C 
BRANCH  26  27
ATOM     27  O   UNL     1      38.679 -24.295 -13.312  0.00  0.00    -0.479 OA
ATOM     28  H   UNL     1      38.400 -23.554 -13.814  0.00  0.00    +0.295 HD
ENDBRANCH  26  27
ENDBRANCH  24  26
ENDBRANCH  22  24
ENDBRANCH  19  22
ENDBRANCH   4  19
TORSDOF 7
ENDMDL
MODEL 4
REMARK VINA RESULT:     -11.7      6.594      9.407
REMARK  Name = 1948
REMARK  7 active torsions:
REMARK  status: ('A' for Active; 'I' for Inactive)
REMARK    1  A    between atoms: C_1  and  N_7
REMARK    2  A    between atoms: C_4  and  S_19
REMARK    3  A    between atoms: C_8  and  C_13
REMARK    4  A    between atoms: S_19  and  N_22
REMARK    5  A    between atoms: N_22  and  C_24
REMARK    6  A    between atoms: C_24  and  C_26
REMARK    7  A    between atoms: C_26  and  O_27
REMARK                            x       y       z     vdW  Elec       q    Type
REMARK                         _______ _______ _______ _____ _____    ______ ____
ROOT
ATOM      1  C   UNL     1      33.433 -13.962 -22.149  0.00  0.00    +0.048 C 
ATOM      2  C   UNL     1      33.753 -14.660 -23.329  0.00  0.00    +0.016 C 
ATOM      3  C   UNL     1      33.723 -14.575 -20.915  0.00  0.00    +0.016 C 
ATOM      4  C   UNL     1      34.622 -16.513 -22.044  0.00  0.00    +0.122 C 
ATOM      5  C   UNL     1      34.342 -15.924 -23.277  0.00  0.00    +0.021 C 
ATOM      6  C   UNL     1      34.312 -15.839 -20.863  0.00  0.00    +0.021 C 
ENDROOT
BRANCH   1   7
ATOM      7  N   UNL     1      32.841 -12.694 -22.201  0.00  0.00    -0.307 N 
ATOM      8  C   UNL     1      31.486 -10.139 -22.337  0.00  0.00    +0.026 C 
ATOM      9  C   UNL     1      31.490 -10.983 -21.052  0.00  0.00    +0.026 C 
ATOM     10  C   UNL     1      32.769 -10.416 -23.135  0.00  0.00    +0.026 C 
ATOM     11  C   UNL     1      31.652 -12.470 -21.367  0.00  0.00    +0.091 C 
ATOM     12  C   UNL     1      32.930 -11.906 -23.436  0.00  0.00    +0.091 C 
BRANCH   8  13
ATOM     13  C   UNL     1      31.300  -8.662 -22.048  0.00  0.00    -0.022 C 
ATOM     14  C   UNL     1      30.712  -7.836 -23.005  0.00  0.00    -0.004 C 
ATOM     15  C   UNL     1      31.719  -8.134 -20.829  0.00  0.00    -0.004 C 
ATOM     16  C   UNL     1      30.541  -6.477 -22.740  0.00  0.00    -0.000 C 
ATOM     17  C   UNL     1      31.548  -6.775 -20.564  0.00  0.00    -0.000 C 
ATOM     18  C   UNL     1      30.960  -5.947 -21.520  0.00  0.00    -0.000 C 
ENDBRANCH   8  13
ENDBRANCH   1   7
BRANCH   4  19
ATOM     19  S   UNL     1      35.358 -18.094 -21.979  0.00  0.00    +0.061 S 
ATOM     20  O   UNL     1      34.822 -18.906 -23.064  0.00  0.00    -0.153 OA
ATOM     21  O   UNL     1      36.799 -17.910 -21.871  0.00  0.00    -0.153 OA
BRANCH  19  22
ATOM     22  N   UNL     1      34.775 -18.711 -20.496  0.00  0.00    -0.168 NA
ATOM     23  H   UNL     1      34.094 -18.038 -20.143  0.00  0.00    +0.149 HD
BRANCH  22  24
ATOM     24  C   UNL     1      34.128 -20.030 -20.455  0.00  0.00    +0.200 C 
BRANCH  24  26
ATOM     25  O   UNL     1      34.603 -22.054 -19.193  0.00  0.00    -0.249 OA
ATOM     26  C   UNL     1      34.897 -20.913 -19.520  0.00  0.00    +0.332 C 
BRANCH  26  27
ATOM     27  O   UNL     1      35.999 -20.262 -19.068  0.00  0.00    -0.479 OA
ATOM     28  H   UNL     1      36.354 -20.471 -18.226  0.00  0.00    +0.295 HD
ENDBRANCH  26  27
ENDBRANCH  24  26
ENDBRANCH  22  24
ENDBRANCH  19  22
ENDBRANCH   4  19
TORSDOF 7
ENDMDL
MODEL 5
REMARK VINA RESULT:     -11.2      1.706      3.398
REMARK  Name = 1948
REMARK  7 active torsions:
REMARK  status: ('A' for Active; 'I' for Inactive)
REMARK    1  A    between atoms: C_1  and  N_7
REMARK    2  A    between atoms: C_4  and  S_19
REMARK    3  A    between atoms: C_8  and  C_13
REMARK    4  A    between atoms: S_19  and  N_22
REMARK    5  A    between atoms: N_22  and  C_24
REMARK    6  A    between atoms: C_24  and  C_26
REMARK    7  A    between atoms: C_26  and  O_27
REMARK                            x       y       z     vdW  Elec       q    Type
REMARK                         _______ _______ _______ _____ _____    ______ ____
ROOT
ATOM      1  C   UNL     1      35.449 -21.230 -17.986  0.00  0.00    +0.048 C 
ATOM      2  C   UNL     1      36.673 -21.150 -17.294  0.00  0.00    +0.016 C 
ATOM      3  C   UNL     1      34.444 -22.066 -17.461  0.00  0.00    +0.016 C 
ATOM      4  C   UNL     1      35.874 -22.698 -15.619  0.00  0.00    +0.122 C 
ATOM      5  C   UNL     1      36.884 -21.877 -16.121  0.00  0.00    +0.021 C 
ATOM      6  C   UNL     1      34.654 -22.793 -16.289  0.00  0.00    +0.021 C 
ENDROOT
BRANCH   1   7
ATOM      7  N   UNL     1      35.238 -20.502 -19.163  0.00  0.00    -0.307 N 
ATOM      8  C   UNL     1      34.768 -19.124 -21.665  0.00  0.00    +0.026 C 
ATOM      9  C   UNL     1      33.617 -19.479 -20.710  0.00  0.00    +0.026 C 
ATOM     10  C   UNL     1      36.056 -18.911 -20.856  0.00  0.00    +0.026 C 
ATOM     11  C   UNL     1      33.960 -20.701 -19.859  0.00  0.00    +0.091 C 
ATOM     12  C   UNL     1      36.386 -20.134 -19.998  0.00  0.00    +0.091 C 
BRANCH   8  13
ATOM     13  C   UNL     1      34.437 -17.929 -22.538  0.00  0.00    -0.022 C 
ATOM     14  C   UNL     1      34.789 -16.646 -22.121  0.00  0.00    -0.004 C 
ATOM     15  C   UNL     1      33.782 -18.116 -23.753  0.00  0.00    -0.004 C 
ATOM     16  C   UNL     1      34.484 -15.546 -22.924  0.00  0.00    -0.000 C 
ATOM     17  C   UNL     1      33.477 -17.017 -24.555  0.00  0.00    -0.000 C 
ATOM     18  C   UNL     1      33.828 -15.732 -24.140  0.00  0.00    -0.000 C 
ENDBRANCH   8  13
ENDBRANCH   1   7
BRANCH   4  19
ATOM     19  S   UNL     1      36.137 -23.607 -14.153  0.00  0.00    +0.061 S 
ATOM     20  O   UNL     1      35.759 -24.995 -14.387  0.00  0.00    -0.153 OA
ATOM     21  O   UNL     1      37.481 -23.305 -13.677  0.00  0.00    -0.153 OA
BRANCH  19  22
ATOM     22  N   UNL     1      35.008 -22.908 -13.078  0.00  0.00    -0.168 NA
ATOM     23  H   UNL     1      34.518 -22.178 -13.597  0.00  0.00    +0.149 HD
BRANCH  22  24
ATOM     24  C   UNL     1      33.977 -23.747 -12.450  0.00  0.00    +0.200 C 
BRANCH  24  26
ATOM     25  O   UNL     1      32.310 -24.103 -14.185  0.00  0.00    -0.249 OA
ATOM     26  C   UNL     1      32.681 -23.532 -13.169  0.00  0.00    +0.332 C 
BRANCH  26  27
ATOM     27  O   UNL     1      31.944 -22.590 -12.527  0.00  0.00    -0.479 OA
ATOM     28  H   UNL     1      31.148 -22.276 -12.910  0.00  0.00    +0.295 HD
ENDBRANCH  26  27
ENDBRANCH  24  26
ENDBRANCH  22  24
ENDBRANCH  19  22
ENDBRANCH   4  19
TORSDOF 7
ENDMDL
MODEL 6
REMARK VINA RESULT:     -10.7      7.516     10.600
REMARK  Name = 1948
REMARK  7 active torsions:
REMARK  status: ('A' for Active; 'I' for Inactive)
REMARK    1  A    between atoms: C_1  and  N_7
REMARK    2  A    between atoms: C_4  and  S_19
REMARK    3  A    between atoms: C_8  and  C_13
REMARK    4  A    between atoms: S_19  and  N_22
REMARK    5  A    between atoms: N_22  and  C_24
REMARK    6  A    between atoms: C_24  and  C_26
REMARK    7  A    between atoms: C_26  and  O_27
REMARK                            x       y       z     vdW  Elec       q    Type
REMARK                         _______ _______ _______ _____ _____    ______ ____
ROOT
ATOM      1  C   UNL     1      33.354 -13.555 -21.908  0.00  0.00    +0.048 C 
ATOM      2  C   UNL     1      33.938 -14.148 -23.044  0.00  0.00    +0.016 C 
ATOM      3  C   UNL     1      33.382 -14.272 -20.696  0.00  0.00    +0.016 C 
ATOM      4  C   UNL     1      34.545 -16.103 -21.760  0.00  0.00    +0.122 C 
ATOM      5  C   UNL     1      34.528 -15.410 -22.971  0.00  0.00    +0.021 C 
ATOM      6  C   UNL     1      33.972 -15.535 -20.623  0.00  0.00    +0.021 C 
ENDROOT
BRANCH   1   7
ATOM      7  N   UNL     1      32.761 -12.289 -21.981  0.00  0.00    -0.307 N 
ATOM      8  C   UNL     1      31.403  -9.738 -22.154  0.00  0.00    +0.026 C 
ATOM      9  C   UNL     1      31.449 -10.541 -20.844  0.00  0.00    +0.026 C 
ATOM     10  C   UNL     1      32.659 -10.042 -22.984  0.00  0.00    +0.026 C 
ATOM     11  C   UNL     1      31.600 -12.037 -21.117  0.00  0.00    +0.091 C 
ATOM     12  C   UNL     1      32.810 -11.541 -23.242  0.00  0.00    +0.091 C 
BRANCH   8  13
ATOM     13  C   UNL     1      31.227  -8.252 -21.907  0.00  0.00    -0.022 C 
ATOM     14  C   UNL     1      31.700  -7.684 -20.725  0.00  0.00    -0.004 C 
ATOM     15  C   UNL     1      30.593  -7.459 -22.861  0.00  0.00    -0.004 C 
ATOM     16  C   UNL     1      31.537  -6.317 -20.497  0.00  0.00    -0.000 C 
ATOM     17  C   UNL     1      30.430  -6.093 -22.633  0.00  0.00    -0.000 C 
ATOM     18  C   UNL     1      30.903  -5.522 -21.450  0.00  0.00    -0.000 C 
ENDBRANCH   8  13
ENDBRANCH   1   7
BRANCH   4  19
ATOM     19  S   UNL     1      35.283 -17.683 -21.669  0.00  0.00    +0.061 S 
ATOM     20  O   UNL     1      36.729 -17.521 -21.591  0.00  0.00    -0.153 OA
ATOM     21  O   UNL     1      34.592 -18.438 -20.633  0.00  0.00    -0.153 OA
BRANCH  19  22
ATOM     22  N   UNL     1      34.891 -18.359 -23.189  0.00  0.00    -0.168 NA
ATOM     23  H   UNL     1      35.566 -19.104 -23.364  0.00  0.00    +0.149 HD
BRANCH  22  24
ATOM     24  C   UNL     1      33.557 -18.935 -23.412  0.00  0.00    +0.200 C 
BRANCH  24  26
ATOM     25  O   UNL     1      31.838 -18.506 -25.078  0.00  0.00    -0.249 OA
ATOM     26  C   UNL     1      32.940 -18.270 -24.604  0.00  0.00    +0.332 C 
BRANCH  26  27
ATOM     27  O   UNL     1      33.790 -17.338 -25.107  0.00  0.00    -0.479 OA
ATOM     28  H   UNL     1      34.687 -17.561 -25.269  0.00  0.00    +0.295 HD
ENDBRANCH  26  27
ENDBRANCH  24  26
ENDBRANCH  22  24
ENDBRANCH  19  22
ENDBRANCH   4  19
TORSDOF 7
ENDMDL
MODEL 7
REMARK VINA RESULT:     -10.1      9.892     13.603
REMARK  Name = 1948
REMARK  7 active torsions:
REMARK  status: ('A' for Active; 'I' for Inactive)
REMARK    1  A    between atoms: C_1  and  N_7
REMARK    2  A    between atoms: C_4  and  S_19
REMARK    3  A    between atoms: C_8  and  C_13
REMARK    4  A    between atoms: S_19  and  N_22
REMARK    5  A    between atoms: N_22  and  C_24
REMARK    6  A    between atoms: C_24  and  C_26
REMARK    7  A    between atoms: C_26  and  O_27
REMARK                            x       y       z     vdW  Elec       q    Type
REMARK                         _______ _______ _______ _____ _____    ______ ____
ROOT
ATOM      1  C   UNL     1      32.614 -11.446 -22.808  0.00  0.00    +0.048 C 
ATOM      2  C   UNL     1      33.197 -10.468 -23.636  0.00  0.00    +0.016 C 
ATOM      3  C   UNL     1      31.444 -11.106 -22.101  0.00  0.00    +0.016 C 
ATOM      4  C   UNL     1      31.471  -8.883 -23.045  0.00  0.00    +0.122 C 
ATOM      5  C   UNL     1      32.631  -9.197 -23.754  0.00  0.00    +0.021 C 
ATOM      6  C   UNL     1      30.878  -9.836 -22.218  0.00  0.00    +0.021 C 
ENDROOT
BRANCH   1   7
ATOM      7  N   UNL     1      33.182 -12.720 -22.689  0.00  0.00    -0.307 N 
ATOM      8  C   UNL     1      34.483 -15.290 -22.398  0.00  0.00    +0.026 C 
ATOM      9  C   UNL     1      33.828 -14.576 -21.204  0.00  0.00    +0.026 C 
ATOM     10  C   UNL     1      33.754 -14.897 -23.691  0.00  0.00    +0.026 C 
ATOM     11  C   UNL     1      33.810 -13.062 -21.406  0.00  0.00    +0.091 C 
ATOM     12  C   UNL     1      33.730 -13.379 -23.880  0.00  0.00    +0.091 C 
BRANCH   8  13
ATOM     13  C   UNL     1      34.534 -16.793 -22.205  0.00  0.00    -0.022 C 
ATOM     14  C   UNL     1      34.956 -17.323 -20.987  0.00  0.00    -0.004 C 
ATOM     15  C   UNL     1      34.161 -17.641 -23.246  0.00  0.00    -0.004 C 
ATOM     16  C   UNL     1      35.005 -18.706 -20.810  0.00  0.00    -0.000 C 
ATOM     17  C   UNL     1      34.209 -19.023 -23.069  0.00  0.00    -0.000 C 
ATOM     18  C   UNL     1      34.632 -19.556 -21.850  0.00  0.00    -0.000 C 
ENDBRANCH   8  13
ENDBRANCH   1   7
BRANCH   4  19
ATOM     19  S   UNL     1      30.764  -7.293 -23.191  0.00  0.00    +0.061 S 
ATOM     20  O   UNL     1      31.449  -6.571 -24.256  0.00  0.00    -0.153 OA
ATOM     21  O   UNL     1      29.317  -7.454 -23.254  0.00  0.00    -0.153 OA
BRANCH  19  22
ATOM     22  N   UNL     1      31.167  -6.572 -21.696  0.00  0.00    -0.168 NA
ATOM     23  H   UNL     1      30.539  -6.969 -20.996  0.00  0.00    +0.149 HD
BRANCH  22  24
ATOM     24  C   UNL     1      32.531  -6.703 -21.163  0.00  0.00    +0.200 C 
BRANCH  24  26
ATOM     25  O   UNL     1      32.100  -8.050 -19.184  0.00  0.00    -0.249 OA
ATOM     26  C   UNL     1      32.448  -6.995 -19.696  0.00  0.00    +0.332 C 
BRANCH  26  27
ATOM     27  O   UNL     1      32.822  -5.902 -18.983  0.00  0.00    -0.479 OA
ATOM     28  H   UNL     1      32.949  -5.968 -18.057  0.00  0.00    +0.295 HD
ENDBRANCH  26  27
ENDBRANCH  24  26
ENDBRANCH  22  24
ENDBRANCH  19  22
ENDBRANCH   4  19
TORSDOF 7
ENDMDL
MODEL 8
REMARK VINA RESULT:     -10.0     10.707     14.512
REMARK  Name = 1948
REMARK  7 active torsions:
REMARK  status: ('A' for Active; 'I' for Inactive)
REMARK    1  A    between atoms: C_1  and  N_7
REMARK    2  A    between atoms: C_4  and  S_19
REMARK    3  A    between atoms: C_8  and  C_13
REMARK    4  A    between atoms: S_19  and  N_22
REMARK    5  A    between atoms: N_22  and  C_24
REMARK    6  A    between atoms: C_24  and  C_26
REMARK    7  A    between atoms: C_26  and  O_27
REMARK                            x       y       z     vdW  Elec       q    Type
REMARK                         _______ _______ _______ _____ _____    ______ ____
ROOT
ATOM      1  C   UNL     1      32.629 -11.435 -22.555  0.00  0.00    +0.048 C 
ATOM      2  C   UNL     1      31.485 -11.122 -21.795  0.00  0.00    +0.016 C 
ATOM      3  C   UNL     1      33.194 -10.420 -23.351  0.00  0.00    +0.016 C 
ATOM      4  C   UNL     1      31.506  -8.853 -22.623  0.00  0.00    +0.122 C 
ATOM      5  C   UNL     1      30.929  -9.843 -21.828  0.00  0.00    +0.021 C 
ATOM      6  C   UNL     1      32.638  -9.141 -23.385  0.00  0.00    +0.021 C 
ENDROOT
BRANCH   1   7
ATOM      7  N   UNL     1      33.187 -12.719 -22.523  0.00  0.00    -0.307 N 
ATOM      8  C   UNL     1      34.468 -15.312 -22.410  0.00  0.00    +0.026 C 
ATOM      9  C   UNL     1      33.859 -14.658 -21.160  0.00  0.00    +0.026 C 
ATOM     10  C   UNL     1      33.705 -14.843 -23.657  0.00  0.00    +0.026 C 
ATOM     11  C   UNL     1      33.850 -13.134 -21.280  0.00  0.00    +0.091 C 
ATOM     12  C   UNL     1      33.691 -13.317 -23.764  0.00  0.00    +0.091 C 
BRANCH   8  13
ATOM     13  C   UNL     1      34.510 -16.824 -22.300  0.00  0.00    -0.022 C 
ATOM     14  C   UNL     1      34.952 -17.422 -21.121  0.00  0.00    -0.004 C 
ATOM     15  C   UNL     1      34.107 -17.610 -23.377  0.00  0.00    -0.004 C 
ATOM     16  C   UNL     1      34.991 -18.813 -21.020  0.00  0.00    -0.000 C 
ATOM     17  C   UNL     1      34.146 -19.001 -23.276  0.00  0.00    -0.000 C 
ATOM     18  C   UNL     1      34.589 -19.602 -22.097  0.00  0.00    -0.000 C 
ENDBRANCH   8  13
ENDBRANCH   1   7
BRANCH   4  19
ATOM     19  S   UNL     1      30.809  -7.252 -22.665  0.00  0.00    +0.061 S 
ATOM     20  O   UNL     1      29.527  -7.317 -23.354  0.00  0.00    -0.153 OA
ATOM     21  O   UNL     1      30.868  -6.705 -21.317  0.00  0.00    -0.153 OA
BRANCH  19  22
ATOM     22  N   UNL     1      31.914  -6.396 -23.649  0.00  0.00    -0.168 NA
ATOM     23  H   UNL     1      32.407  -7.089 -24.213  0.00  0.00    +0.149 HD
BRANCH  22  24
ATOM     24  C   UNL     1      31.423  -5.367 -24.576  0.00  0.00    +0.200 C 
BRANCH  24  26
ATOM     25  O   UNL     1      29.998  -3.476 -24.020  0.00  0.00    -0.249 OA
ATOM     26  C   UNL     1      30.967  -4.182 -23.780  0.00  0.00    +0.332 C 
BRANCH  26  27
ATOM     27  O   UNL     1      31.794  -3.988 -22.722  0.00  0.00    -0.479 OA
ATOM     28  H   UNL     1      31.558  -4.317 -21.876  0.00  0.00    +0.295 HD
ENDBRANCH  26  27
ENDBRANCH  24  26
ENDBRANCH  22  24
ENDBRANCH  19  22
ENDBRANCH   4  19
TORSDOF 7
ENDMDL
MODEL 9
REMARK VINA RESULT:     -10.0      5.053      9.761
REMARK  Name = 1948
REMARK  7 active torsions:
REMARK  status: ('A' for Active; 'I' for Inactive)
REMARK    1  A    between atoms: C_1  and  N_7
REMARK    2  A    between atoms: C_4  and  S_19
REMARK    3  A    between atoms: C_8  and  C_13
REMARK    4  A    between atoms: S_19  and  N_22
REMARK    5  A    between atoms: N_22  and  C_24
REMARK    6  A    between atoms: C_24  and  C_26
REMARK    7  A    between atoms: C_26  and  O_27
REMARK                            x       y       z     vdW  Elec       q    Type
REMARK                         _______ _______ _______ _____ _____    ______ ____
ROOT
ATOM      1  C   UNL     1      35.200 -20.914 -18.819  0.00  0.00    +0.048 C 
ATOM      2  C   UNL     1      33.900 -20.940 -19.361  0.00  0.00    +0.016 C 
ATOM      3  C   UNL     1      36.205 -20.238 -19.538  0.00  0.00    +0.016 C 
ATOM      4  C   UNL     1      34.628 -19.650 -21.270  0.00  0.00    +0.122 C 
ATOM      5  C   UNL     1      33.617 -20.314 -20.576  0.00  0.00    +0.021 C 
ATOM      6  C   UNL     1      35.922 -19.612 -20.752  0.00  0.00    +0.021 C 
ENDROOT
BRANCH   1   7
ATOM      7  N   UNL     1      35.485 -21.543 -17.601  0.00  0.00    -0.307 N 
ATOM      8  C   UNL     1      35.970 -22.758 -15.019  0.00  0.00    +0.026 C 
ATOM      9  C   UNL     1      34.834 -23.238 -15.936  0.00  0.00    +0.026 C 
ATOM     10  C   UNL     1      37.115 -22.195 -15.874  0.00  0.00    +0.026 C 
ATOM     11  C   UNL     1      34.355 -22.117 -16.858  0.00  0.00    +0.091 C 
ATOM     12  C   UNL     1      36.626 -21.083 -16.801  0.00  0.00    +0.091 C 
BRANCH   8  13
ATOM     13  C   UNL     1      36.442 -23.849 -14.077  0.00  0.00    -0.022 C 
ATOM     14  C   UNL     1      36.467 -25.175 -14.507  0.00  0.00    -0.004 C 
ATOM     15  C   UNL     1      36.850 -23.523 -12.785  0.00  0.00    -0.004 C 
ATOM     16  C   UNL     1      36.901 -26.179 -13.640  0.00  0.00    -0.000 C 
ATOM     17  C   UNL     1      37.284 -24.526 -11.919  0.00  0.00    -0.000 C 
ATOM     18  C   UNL     1      37.308 -25.855 -12.347  0.00  0.00    -0.000 C 
ENDBRANCH   8  13
ENDBRANCH   1   7
BRANCH   4  19
ATOM     19  S   UNL     1      34.273 -18.867 -22.790  0.00  0.00    +0.061 S 
ATOM     20  O   UNL     1      34.878 -19.640 -23.868  0.00  0.00    -0.153 OA
ATOM     21  O   UNL     1      32.844 -18.591 -22.825  0.00  0.00    -0.153 OA
BRANCH  19  22
ATOM     22  N   UNL     1      35.112 -17.385 -22.645  0.00  0.00    -0.168 NA
ATOM     23  H   UNL     1      35.878 -17.412 -23.318  0.00  0.00    +0.149 HD
BRANCH  22  24
ATOM     24  C   UNL     1      34.400 -16.117 -22.862  0.00  0.00    +0.200 C 
BRANCH  24  26
ATOM     25  O   UNL     1      33.986 -14.224 -21.392  0.00  0.00    -0.249 OA
ATOM     26  C   UNL     1      34.294 -15.397 -21.553  0.00  0.00    +0.332 C 
BRANCH  26  27
ATOM     27  O   UNL     1      34.590 -16.242 -20.533  0.00  0.00    -0.479 OA
ATOM     28  H   UNL     1      33.911 -16.752 -20.135  0.00  0.00    +0.295 HD
ENDBRANCH  26  27
ENDBRANCH  24  26
ENDBRANCH  22  24
ENDBRANCH  19  22
ENDBRANCH   4  19
TORSDOF 7
ENDMDL
