MODEL 1
REMARK VINA RESULT:     -12.3      0.000      0.000
REMARK  Name = 5828196
REMARK  4 active torsions:
REMARK  status: ('A' for Active; 'I' for Inactive)
REMARK    1  A    between atoms: C_2  and  C_15
REMARK    2  A    between atoms: C_3  and  C_10
REMARK    3  A    between atoms: C_16  and  S_21
REMARK    4  A    between atoms: S_21  and  N_24
REMARK                            x       y       z     vdW  Elec       q    Type
REMARK                         _______ _______ _______ _____ _____    ______ ____
ROOT
ATOM      1  O   UNL     1      34.247 -18.362 -21.973  0.00  0.00    -0.453 OA
ATOM      2  C   UNL     1      35.145 -18.939 -21.136  0.00  0.00    +0.145 C 
ATOM      3  C   UNL     1      34.950 -17.499 -22.753  0.00  0.00    +0.146 C 
ATOM      4  C   UNL     1      36.409 -18.458 -21.365  0.00  0.00    +0.041 C 
ATOM      5  C   UNL     1      36.283 -17.521 -22.417  0.00  0.00    +0.041 C 
ENDROOT
BRANCH   3  10
ATOM      6  S   UNL     1      33.849 -14.593 -22.090  0.00  0.00    -0.025 S 
ATOM      7  O   UNL     1      33.042 -15.068 -25.798  0.00  0.00    -0.269 OA
ATOM      8  O   UNL     1      32.762 -12.191 -22.176  0.00  0.00    -0.262 OA
ATOM      9  N   UNL     1      32.793 -13.467 -24.128  0.00  0.00    -0.243 N 
ATOM     10  C   UNL     1      34.329 -16.714 -23.752  0.00  0.00    +0.049 C 
ATOM     11  C   UNL     1      33.832 -15.474 -23.569  0.00  0.00    +0.090 C 
ATOM     12  C   UNL     1      33.188 -14.685 -24.646  0.00  0.00    +0.258 C 
ATOM     13  C   UNL     1      33.040 -13.203 -22.800  0.00  0.00    +0.283 C 
ATOM     14  H   UNL     1      32.344 -12.800 -24.697  0.00  0.00    +0.159 HD
ENDBRANCH   3  10
BRANCH   2  15
ATOM     15  C   UNL     1      34.594 -19.900 -20.214  0.00  0.00    +0.035 C 
ATOM     16  C   UNL     1      33.527 -21.758 -18.426  0.00  0.00    +0.122 C 
ATOM     17  C   UNL     1      33.211 -20.054 -20.110  0.00  0.00    +0.004 C 
ATOM     18  C   UNL     1      35.443 -20.674 -19.424  0.00  0.00    +0.004 C 
ATOM     19  C   UNL     1      32.678 -20.983 -19.217  0.00  0.00    +0.020 C 
ATOM     20  C   UNL     1      34.910 -21.603 -18.530  0.00  0.00    +0.020 C 
BRANCH  16  21
ATOM     21  S   UNL     1      32.861 -22.922 -17.309  0.00  0.00    +0.057 S 
ATOM     22  O   UNL     1      32.902 -24.236 -17.935  0.00  0.00    -0.153 OA
ATOM     23  O   UNL     1      33.480 -22.722 -16.006  0.00  0.00    -0.153 OA
BRANCH  21  24
ATOM     24  N   UNL     1      31.235 -22.403 -17.228  0.00  0.00    -0.203 NA
ATOM     25  H   UNL     1      31.197 -21.466 -16.826  0.00  0.00    +0.144 HD
ATOM     26  H   UNL     1      30.701 -23.046 -16.644  0.00  0.00    +0.144 HD
ENDBRANCH  21  24
ENDBRANCH  16  21
ENDBRANCH   2  15
TORSDOF 4
ENDMDL
MODEL 2
REMARK VINA RESULT:     -12.3      0.013      1.008
REMARK  Name = 5828196
REMARK  4 active torsions:
REMARK  status: ('A' for Active; 'I' for Inactive)
REMARK    1  A    between atoms: C_2  and  C_15
REMARK    2  A    between atoms: C_3  and  C_10
REMARK    3  A    between atoms: C_16  and  S_21
REMARK    4  A    between atoms: S_21  and  N_24
REMARK                            x       y       z     vdW  Elec       q    Type
REMARK                         _______ _______ _______ _____ _____    ______ ____
ROOT
ATOM      1  O   UNL     1      34.239 -18.367 -21.964  0.00  0.00    -0.453 OA
ATOM      2  C   UNL     1      35.138 -18.941 -21.128  0.00  0.00    +0.145 C 
ATOM      3  C   UNL     1      34.939 -17.503 -22.745  0.00  0.00    +0.146 C 
ATOM      4  C   UNL     1      36.401 -18.458 -21.358  0.00  0.00    +0.041 C 
ATOM      5  C   UNL     1      36.273 -17.522 -22.410  0.00  0.00    +0.041 C 
ENDROOT
BRANCH   3  10
ATOM      6  S   UNL     1      33.847 -14.593 -22.088  0.00  0.00    -0.025 S 
ATOM      7  O   UNL     1      33.025 -15.078 -25.791  0.00  0.00    -0.269 OA
ATOM      8  O   UNL     1      32.764 -12.189 -22.178  0.00  0.00    -0.262 OA
ATOM      9  N   UNL     1      32.785 -13.471 -24.126  0.00  0.00    -0.243 N 
ATOM     10  C   UNL     1      34.316 -16.720 -23.745  0.00  0.00    +0.049 C 
ATOM     11  C   UNL     1      33.822 -15.478 -23.564  0.00  0.00    +0.090 C 
ATOM     12  C   UNL     1      33.176 -14.692 -24.641  0.00  0.00    +0.258 C 
ATOM     13  C   UNL     1      33.037 -13.204 -22.800  0.00  0.00    +0.283 C 
ATOM     14  H   UNL     1      32.335 -12.806 -24.696  0.00  0.00    +0.159 HD
ENDBRANCH   3  10
BRANCH   2  15
ATOM     15  C   UNL     1      34.589 -19.903 -20.205  0.00  0.00    +0.035 C 
ATOM     16  C   UNL     1      33.528 -21.767 -18.420  0.00  0.00    +0.122 C 
ATOM     17  C   UNL     1      35.440 -20.669 -19.407  0.00  0.00    +0.004 C 
ATOM     18  C   UNL     1      33.208 -20.070 -20.110  0.00  0.00    +0.004 C 
ATOM     19  C   UNL     1      34.909 -21.600 -18.515  0.00  0.00    +0.020 C 
ATOM     20  C   UNL     1      32.677 -21.001 -19.218  0.00  0.00    +0.020 C 
BRANCH  16  21
ATOM     21  S   UNL     1      32.862 -22.931 -17.302  0.00  0.00    +0.057 S 
ATOM     22  O   UNL     1      32.897 -24.244 -17.933  0.00  0.00    -0.153 OA
ATOM     23  O   UNL     1      33.489 -22.737 -16.002  0.00  0.00    -0.153 OA
BRANCH  21  24
ATOM     24  N   UNL     1      31.239 -22.407 -17.213  0.00  0.00    -0.203 NA
ATOM     25  H   UNL     1      31.034 -22.096 -16.263  0.00  0.00    +0.144 HD
ATOM     26  H   UNL     1      30.618 -23.177 -17.461  0.00  0.00    +0.144 HD
ENDBRANCH  21  24
ENDBRANCH  16  21
ENDBRANCH   2  15
TORSDOF 4
ENDMDL
MODEL 3
REMARK VINA RESULT:     -11.4      1.287      2.290
REMARK  Name = 5828196
REMARK  4 active torsions:
REMARK  status: ('A' for Active; 'I' for Inactive)
REMARK    1  A    between atoms: C_2  and  C_15
REMARK    2  A    between atoms: C_3  and  C_10
REMARK    3  A    between atoms: C_16  and  S_21
REMARK    4  A    between atoms: S_21  and  N_24
REMARK                            x       y       z     vdW  Elec       q    Type
REMARK                         _______ _______ _______ _____ _____    ______ ____
ROOT
ATOM      1  O   UNL     1      34.163 -17.483 -20.920  0.00  0.00    -0.453 OA
ATOM      2  C   UNL     1      34.569 -18.730 -21.262  0.00  0.00    +0.145 C 
ATOM      3  C   UNL     1      34.605 -16.654 -21.903  0.00  0.00    +0.146 C 
ATOM      4  C   UNL     1      35.264 -18.714 -22.444  0.00  0.00    +0.041 C 
ATOM      5  C   UNL     1      35.288 -17.364 -22.863  0.00  0.00    +0.041 C 
ENDROOT
BRANCH   3  10
ATOM      6  S   UNL     1      33.399 -15.169 -24.439  0.00  0.00    -0.025 S 
ATOM      7  O   UNL     1      33.843 -12.383 -21.858  0.00  0.00    -0.269 OA
ATOM      8  O   UNL     1      32.449 -13.406 -26.157  0.00  0.00    -0.262 OA
ATOM      9  N   UNL     1      33.089 -12.662 -24.041  0.00  0.00    -0.243 N 
ATOM     10  C   UNL     1      34.360 -15.261 -21.878  0.00  0.00    +0.049 C 
ATOM     11  C   UNL     1      33.853 -14.543 -22.901  0.00  0.00    +0.090 C 
ATOM     12  C   UNL     1      33.612 -13.082 -22.833  0.00  0.00    +0.258 C 
ATOM     13  C   UNL     1      32.894 -13.593 -25.035  0.00  0.00    +0.283 C 
ATOM     14  H   UNL     1      32.862 -11.715 -24.188  0.00  0.00    +0.159 HD
ENDBRANCH   3  10
BRANCH   2  15
ATOM     15  C   UNL     1      34.197 -19.770 -20.336  0.00  0.00    +0.035 C 
ATOM     16  C   UNL     1      33.476 -21.786 -18.546  0.00  0.00    +0.122 C 
ATOM     17  C   UNL     1      35.183 -20.531 -19.706  0.00  0.00    +0.004 C 
ATOM     18  C   UNL     1      32.851 -20.019 -20.071  0.00  0.00    +0.004 C 
ATOM     19  C   UNL     1      34.823 -21.537 -18.811  0.00  0.00    +0.020 C 
ATOM     20  C   UNL     1      32.490 -21.027 -19.176  0.00  0.00    +0.020 C 
BRANCH  16  21
ATOM     21  S   UNL     1      33.024 -23.046 -17.425  0.00  0.00    +0.057 S 
ATOM     22  O   UNL     1      31.836 -22.613 -16.703  0.00  0.00    -0.153 OA
ATOM     23  O   UNL     1      33.016 -24.317 -18.135  0.00  0.00    -0.153 OA
BRANCH  21  24
ATOM     24  N   UNL     1      34.357 -23.024 -16.356  0.00  0.00    -0.203 NA
ATOM     25  H   UNL     1      34.545 -22.064 -16.067  0.00  0.00    +0.144 HD
ATOM     26  H   UNL     1      35.177 -23.405 -16.827  0.00  0.00    +0.144 HD
ENDBRANCH  21  24
ENDBRANCH  16  21
ENDBRANCH   2  15
TORSDOF 4
ENDMDL
MODEL 4
REMARK VINA RESULT:     -11.4      1.561      2.007
REMARK  Name = 5828196
REMARK  4 active torsions:
REMARK  status: ('A' for Active; 'I' for Inactive)
REMARK    1  A    between atoms: C_2  and  C_15
REMARK    2  A    between atoms: C_3  and  C_10
REMARK    3  A    between atoms: C_16  and  S_21
REMARK    4  A    between atoms: S_21  and  N_24
REMARK                            x       y       z     vdW  Elec       q    Type
REMARK                         _______ _______ _______ _____ _____    ______ ____
ROOT
ATOM      1  O   UNL     1      34.407 -19.432 -21.170  0.00  0.00    -0.453 OA
ATOM      2  C   UNL     1      35.421 -19.746 -20.327  0.00  0.00    +0.145 C 
ATOM      3  C   UNL     1      34.941 -18.634 -22.132  0.00  0.00    +0.146 C 
ATOM      4  C   UNL     1      36.594 -19.162 -20.731  0.00  0.00    +0.041 C 
ATOM      5  C   UNL     1      36.283 -18.438 -21.906  0.00  0.00    +0.041 C 
ENDROOT
BRANCH   3  10
ATOM      6  S   UNL     1      34.476 -15.504 -22.415  0.00  0.00    -0.025 S 
ATOM      7  O   UNL     1      32.562 -16.997 -25.371  0.00  0.00    -0.269 OA
ATOM      8  O   UNL     1      33.737 -13.088 -23.177  0.00  0.00    -0.262 OA
ATOM      9  N   UNL     1      33.027 -14.917 -24.439  0.00  0.00    -0.243 N 
ATOM     10  C   UNL     1      34.164 -18.110 -23.192  0.00  0.00    +0.049 C 
ATOM     11  C   UNL     1      33.910 -16.801 -23.396  0.00  0.00    +0.090 C 
ATOM     12  C   UNL     1      33.088 -16.295 -24.520  0.00  0.00    +0.258 C 
ATOM     13  C   UNL     1      33.684 -14.287 -23.407  0.00  0.00    +0.283 C 
ATOM     14  H   UNL     1      32.523 -14.396 -25.105  0.00  0.00    +0.159 HD
ENDBRANCH   3  10
BRANCH   2  15
ATOM     15  C   UNL     1      35.058 -20.597 -19.222  0.00  0.00    +0.035 C 
ATOM     16  C   UNL     1      34.356 -22.247 -17.084  0.00  0.00    +0.122 C 
ATOM     17  C   UNL     1      35.997 -20.897 -18.235  0.00  0.00    +0.004 C 
ATOM     18  C   UNL     1      33.769 -21.123 -19.141  0.00  0.00    +0.004 C 
ATOM     19  C   UNL     1      35.645 -21.721 -17.165  0.00  0.00    +0.020 C 
ATOM     20  C   UNL     1      33.417 -21.948 -18.072  0.00  0.00    +0.020 C 
BRANCH  16  21
ATOM     21  S   UNL     1      33.916 -23.278 -15.746  0.00  0.00    +0.057 S 
ATOM     22  O   UNL     1      32.476 -23.490 -15.784  0.00  0.00    -0.153 OA
ATOM     23  O   UNL     1      34.815 -24.423 -15.727  0.00  0.00    -0.153 OA
BRANCH  21  24
ATOM     24  N   UNL     1      34.287 -22.267 -14.419  0.00  0.00    -0.203 NA
ATOM     25  H   UNL     1      34.460 -21.318 -14.753  0.00  0.00    +0.144 HD
ATOM     26  H   UNL     1      35.120 -22.618 -13.947  0.00  0.00    +0.144 HD
ENDBRANCH  21  24
ENDBRANCH  16  21
ENDBRANCH   2  15
TORSDOF 4
ENDMDL
MODEL 5
REMARK VINA RESULT:     -10.7      3.989     10.214
REMARK  Name = 5828196
REMARK  4 active torsions:
REMARK  status: ('A' for Active; 'I' for Inactive)
REMARK    1  A    between atoms: C_2  and  C_15
REMARK    2  A    between atoms: C_3  and  C_10
REMARK    3  A    between atoms: C_16  and  S_21
REMARK    4  A    between atoms: S_21  and  N_24
REMARK                            x       y       z     vdW  Elec       q    Type
REMARK                         _______ _______ _______ _____ _____    ______ ____
ROOT
ATOM      1  O   UNL     1      34.344 -22.017 -16.600  0.00  0.00    -0.453 OA
ATOM      2  C   UNL     1      33.761 -22.146 -17.816  0.00  0.00    +0.145 C 
ATOM      3  C   UNL     1      33.812 -22.990 -15.814  0.00  0.00    +0.146 C 
ATOM      4  C   UNL     1      32.864 -23.183 -17.823  0.00  0.00    +0.041 C 
ATOM      5  C   UNL     1      32.897 -23.734 -16.521  0.00  0.00    +0.041 C 
ENDROOT
BRANCH   3  10
ATOM      6  S   UNL     1      35.887 -25.246 -14.978  0.00  0.00    -0.025 S 
ATOM      7  O   UNL     1      35.002 -23.529 -11.677  0.00  0.00    -0.269 OA
ATOM      8  O   UNL     1      37.505 -26.876 -13.679  0.00  0.00    -0.262 OA
ATOM      9  N   UNL     1      36.343 -25.261 -12.462  0.00  0.00    -0.243 N 
ATOM     10  C   UNL     1      34.194 -23.157 -14.462  0.00  0.00    +0.049 C 
ATOM     11  C   UNL     1      35.064 -24.084 -14.010  0.00  0.00    +0.090 C 
ATOM     12  C   UNL     1      35.436 -24.226 -12.583  0.00  0.00    +0.258 C 
ATOM     13  C   UNL     1      36.723 -25.941 -13.596  0.00  0.00    +0.283 C 
ATOM     14  H   UNL     1      36.710 -25.507 -11.582  0.00  0.00    +0.159 HD
ENDBRANCH   3  10
BRANCH   2  15
ATOM     15  C   UNL     1      34.194 -21.193 -18.808  0.00  0.00    +0.035 C 
ATOM     16  C   UNL     1      35.032 -19.352 -20.729  0.00  0.00    +0.122 C 
ATOM     17  C   UNL     1      33.255 -20.550 -19.615  0.00  0.00    +0.004 C 
ATOM     18  C   UNL     1      35.552 -20.916 -18.963  0.00  0.00    +0.004 C 
ATOM     19  C   UNL     1      33.674 -19.629 -20.574  0.00  0.00    +0.020 C 
ATOM     20  C   UNL     1      35.971 -19.996 -19.923  0.00  0.00    +0.020 C 
BRANCH  16  21
ATOM     21  S   UNL     1      35.557 -18.198 -21.930  0.00  0.00    +0.057 S 
ATOM     22  O   UNL     1      35.297 -18.758 -23.249  0.00  0.00    -0.153 OA
ATOM     23  O   UNL     1      35.022 -16.889 -21.581  0.00  0.00    -0.153 OA
BRANCH  21  24
ATOM     24  N   UNL     1      37.244 -18.190 -21.658  0.00  0.00    -0.203 NA
ATOM     25  H   UNL     1      37.435 -17.847 -20.717  0.00  0.00    +0.144 HD
ATOM     26  H   UNL     1      37.695 -17.581 -22.341  0.00  0.00    +0.144 HD
ENDBRANCH  21  24
ENDBRANCH  16  21
ENDBRANCH   2  15
TORSDOF 4
ENDMDL
MODEL 6
REMARK VINA RESULT:     -10.7      1.950      8.695
REMARK  Name = 5828196
REMARK  4 active torsions:
REMARK  status: ('A' for Active; 'I' for Inactive)
REMARK    1  A    between atoms: C_2  and  C_15
REMARK    2  A    between atoms: C_3  and  C_10
REMARK    3  A    between atoms: C_16  and  S_21
REMARK    4  A    between atoms: S_21  and  N_24
REMARK                            x       y       z     vdW  Elec       q    Type
REMARK                         _______ _______ _______ _____ _____    ______ ____
ROOT
ATOM      1  O   UNL     1      34.343 -18.624 -20.619  0.00  0.00    -0.453 OA
ATOM      2  C   UNL     1      35.207 -17.809 -21.272  0.00  0.00    +0.145 C 
ATOM      3  C   UNL     1      35.059 -19.715 -20.239  0.00  0.00    +0.146 C 
ATOM      4  C   UNL     1      36.463 -18.359 -21.318  0.00  0.00    +0.041 C 
ATOM      5  C   UNL     1      36.368 -19.600 -20.646  0.00  0.00    +0.041 C 
ENDROOT
BRANCH   3  10
ATOM      6  S   UNL     1      36.327 -20.737 -17.512  0.00  0.00    -0.025 S 
ATOM      7  O   UNL     1      33.288 -23.000 -18.027  0.00  0.00    -0.269 OA
ATOM      8  O   UNL     1      36.878 -22.013 -15.269  0.00  0.00    -0.262 OA
ATOM      9  N   UNL     1      35.013 -22.683 -16.498  0.00  0.00    -0.243 N 
ATOM     10  C   UNL     1      34.474 -20.787 -19.525  0.00  0.00    +0.049 C 
ATOM     11  C   UNL     1      34.937 -21.291 -18.363  0.00  0.00    +0.090 C 
ATOM     12  C   UNL     1      34.293 -22.417 -17.647  0.00  0.00    +0.258 C 
ATOM     13  C   UNL     1      36.126 -21.921 -16.227  0.00  0.00    +0.283 C 
ATOM     14  H   UNL     1      34.736 -23.403 -15.887  0.00  0.00    +0.159 HD
ENDBRANCH   3  10
BRANCH   2  15
ATOM     15  C   UNL     1      34.637 -16.580 -21.764  0.00  0.00    +0.035 C 
ATOM     16  C   UNL     1      33.531 -14.201 -22.716  0.00  0.00    +0.122 C 
ATOM     17  C   UNL     1      34.211 -15.600 -20.867  0.00  0.00    +0.004 C 
ATOM     18  C   UNL     1      34.509 -16.370 -23.137  0.00  0.00    +0.004 C 
ATOM     19  C   UNL     1      33.659 -14.411 -21.343  0.00  0.00    +0.020 C 
ATOM     20  C   UNL     1      33.956 -15.182 -23.613  0.00  0.00    +0.020 C 
BRANCH  16  21
ATOM     21  S   UNL     1      32.840 -12.713 -23.312  0.00  0.00    +0.057 S 
ATOM     22  O   UNL     1      31.618 -12.443 -22.567  0.00  0.00    -0.153 OA
ATOM     23  O   UNL     1      33.890 -11.705 -23.371  0.00  0.00    -0.153 OA
BRANCH  21  24
ATOM     24  N   UNL     1      32.423 -13.163 -24.907  0.00  0.00    -0.203 NA
ATOM     25  H   UNL     1      31.861 -12.426 -25.333  0.00  0.00    +0.144 HD
ATOM     26  H   UNL     1      31.887 -14.031 -24.886  0.00  0.00    +0.144 HD
ENDBRANCH  21  24
ENDBRANCH  16  21
ENDBRANCH   2  15
TORSDOF 4
ENDMDL
MODEL 7
REMARK VINA RESULT:     -10.7      5.139     11.626
REMARK  Name = 5828196
REMARK  4 active torsions:
REMARK  status: ('A' for Active; 'I' for Inactive)
REMARK    1  A    between atoms: C_2  and  C_15
REMARK    2  A    between atoms: C_3  and  C_10
REMARK    3  A    between atoms: C_16  and  S_21
REMARK    4  A    between atoms: S_21  and  N_24
REMARK                            x       y       z     vdW  Elec       q    Type
REMARK                         _______ _______ _______ _____ _____    ______ ____
ROOT
ATOM      1  O   UNL     1      32.361 -11.171 -22.950  0.00  0.00    -0.453 OA
ATOM      2  C   UNL     1      31.720 -10.483 -21.973  0.00  0.00    +0.145 C 
ATOM      3  C   UNL     1      32.337 -12.478 -22.577  0.00  0.00    +0.146 C 
ATOM      4  C   UNL     1      31.289 -11.326 -20.981  0.00  0.00    +0.041 C 
ATOM      5  C   UNL     1      31.689 -12.625 -21.373  0.00  0.00    +0.041 C 
ENDROOT
BRANCH   3  10
ATOM      6  S   UNL     1      33.886 -14.899 -21.226  0.00  0.00    -0.025 S 
ATOM      7  O   UNL     1      34.136 -15.614 -24.975  0.00  0.00    -0.269 OA
ATOM      8  O   UNL     1      35.259 -17.098 -20.731  0.00  0.00    -0.262 OA
ATOM      9  N   UNL     1      34.808 -16.547 -22.952  0.00  0.00    -0.243 N 
ATOM     10  C   UNL     1      32.920 -13.495 -23.368  0.00  0.00    +0.049 C 
ATOM     11  C   UNL     1      33.596 -14.560 -22.889  0.00  0.00    +0.090 C 
ATOM     12  C   UNL     1      34.193 -15.604 -23.754  0.00  0.00    +0.258 C 
ATOM     13  C   UNL     1      34.772 -16.375 -21.587  0.00  0.00    +0.283 C 
ATOM     14  H   UNL     1      35.263 -17.324 -23.349  0.00  0.00    +0.159 HD
ENDBRANCH   3  10
BRANCH   2  15
ATOM     15  C   UNL     1      31.635  -9.059 -22.179  0.00  0.00    +0.035 C 
ATOM     16  C   UNL     1      31.469  -6.303 -22.580  0.00  0.00    +0.122 C 
ATOM     17  C   UNL     1      31.645  -8.193 -21.086  0.00  0.00    +0.004 C 
ATOM     18  C   UNL     1      31.542  -8.547 -23.473  0.00  0.00    +0.004 C 
ATOM     19  C   UNL     1      31.563  -6.815 -21.286  0.00  0.00    +0.020 C 
ATOM     20  C   UNL     1      31.458  -7.169 -23.674  0.00  0.00    +0.020 C 
BRANCH  16  21
ATOM     21  S   UNL     1      31.366  -4.578 -22.832  0.00  0.00    +0.057 S 
ATOM     22  O   UNL     1      32.525  -4.158 -23.607  0.00  0.00    -0.153 OA
ATOM     23  O   UNL     1      30.026  -4.257 -23.302  0.00  0.00    -0.153 OA
BRANCH  21  24
ATOM     24  N   UNL     1      31.538  -4.005 -21.231  0.00  0.00    -0.203 NA
ATOM     25  H   UNL     1      32.111  -4.657 -20.696  0.00  0.00    +0.144 HD
ATOM     26  H   UNL     1      30.618  -3.925 -20.798  0.00  0.00    +0.144 HD
ENDBRANCH  21  24
ENDBRANCH  16  21
ENDBRANCH   2  15
TORSDOF 4
ENDMDL
MODEL 8
REMARK VINA RESULT:     -10.7      4.434     10.287
REMARK  Name = 5828196
REMARK  4 active torsions:
REMARK  status: ('A' for Active; 'I' for Inactive)
REMARK    1  A    between atoms: C_2  and  C_15
REMARK    2  A    between atoms: C_3  and  C_10
REMARK    3  A    between atoms: C_16  and  S_21
REMARK    4  A    between atoms: S_21  and  N_24
REMARK                            x       y       z     vdW  Elec       q    Type
REMARK                         _______ _______ _______ _____ _____    ______ ____
ROOT
ATOM      1  O   UNL     1      35.774 -22.325 -16.595  0.00  0.00    -0.453 OA
ATOM      2  C   UNL     1      34.601 -22.160 -17.254  0.00  0.00    +0.145 C 
ATOM      3  C   UNL     1      35.512 -23.151 -15.548  0.00  0.00    +0.146 C 
ATOM      4  C   UNL     1      33.593 -22.863 -16.647  0.00  0.00    +0.041 C 
ATOM      5  C   UNL     1      34.184 -23.509 -15.536  0.00  0.00    +0.041 C 
ENDROOT
BRANCH   3  10
ATOM      6  S   UNL     1      34.879 -23.391 -12.444  0.00  0.00    -0.025 S 
ATOM      7  O   UNL     1      38.568 -24.361 -12.716  0.00  0.00    -0.269 OA
ATOM      8  O   UNL     1      34.988 -23.765  -9.835  0.00  0.00    -0.262 OA
ATOM      9  N   UNL     1      36.920 -24.128 -11.091  0.00  0.00    -0.243 N 
ATOM     10  C   UNL     1      36.516 -23.546 -14.633  0.00  0.00    +0.049 C 
ATOM     11  C   UNL     1      36.345 -23.677 -13.301  0.00  0.00    +0.090 C 
ATOM     12  C   UNL     1      37.425 -24.093 -12.376  0.00  0.00    +0.258 C 
ATOM     13  C   UNL     1      35.600 -23.793 -10.891  0.00  0.00    +0.283 C 
ATOM     14  H   UNL     1      37.493 -24.386 -10.332  0.00  0.00    +0.159 HD
ENDBRANCH   3  10
BRANCH   2  15
ATOM     15  C   UNL     1      34.665 -21.305 -18.413  0.00  0.00    +0.035 C 
ATOM     16  C   UNL     1      34.789 -19.652 -20.658  0.00  0.00    +0.122 C 
ATOM     17  C   UNL     1      33.497 -20.967 -19.096  0.00  0.00    +0.004 C 
ATOM     18  C   UNL     1      35.895 -20.817 -18.853  0.00  0.00    +0.004 C 
ATOM     19  C   UNL     1      33.558 -20.140 -20.218  0.00  0.00    +0.020 C 
ATOM     20  C   UNL     1      35.958 -19.991 -19.976  0.00  0.00    +0.020 C 
BRANCH  16  21
ATOM     21  S   UNL     1      34.867 -18.617 -22.062  0.00  0.00    +0.057 S 
ATOM     22  O   UNL     1      34.457 -19.390 -23.226  0.00  0.00    -0.153 OA
ATOM     23  O   UNL     1      34.192 -17.364 -21.752  0.00  0.00    -0.153 OA
BRANCH  21  24
ATOM     24  N   UNL     1      36.547 -18.326 -22.159  0.00  0.00    -0.203 NA
ATOM     25  H   UNL     1      36.862 -17.861 -21.306  0.00  0.00    +0.144 HD
ATOM     26  H   UNL     1      36.743 -17.730 -22.963  0.00  0.00    +0.144 HD
ENDBRANCH  21  24
ENDBRANCH  16  21
ENDBRANCH   2  15
TORSDOF 4
ENDMDL
MODEL 9
REMARK VINA RESULT:     -10.5      2.197      8.885
REMARK  Name = 5828196
REMARK  4 active torsions:
REMARK  status: ('A' for Active; 'I' for Inactive)
REMARK    1  A    between atoms: C_2  and  C_15
REMARK    2  A    between atoms: C_3  and  C_10
REMARK    3  A    between atoms: C_16  and  S_21
REMARK    4  A    between atoms: S_21  and  N_24
REMARK                            x       y       z     vdW  Elec       q    Type
REMARK                         _______ _______ _______ _____ _____    ______ ____
ROOT
ATOM      1  O   UNL     1      33.814 -20.337 -19.723  0.00  0.00    -0.453 OA
ATOM      2  C   UNL     1      34.900 -19.845 -20.369  0.00  0.00    +0.145 C 
ATOM      3  C   UNL     1      34.277 -21.280 -18.860  0.00  0.00    +0.146 C 
ATOM      4  C   UNL     1      36.048 -20.457 -19.937  0.00  0.00    +0.041 C 
ATOM      5  C   UNL     1      35.644 -21.391 -18.954  0.00  0.00    +0.041 C 
ENDROOT
BRANCH   3  10
ATOM      6  S   UNL     1      35.217 -22.163 -15.957  0.00  0.00    -0.025 S 
ATOM      7  O   UNL     1      31.651 -23.519 -16.230  0.00  0.00    -0.269 OA
ATOM      8  O   UNL     1      35.393 -23.161 -13.521  0.00  0.00    -0.262 OA
ATOM      9  N   UNL     1      33.406 -23.462 -14.703  0.00  0.00    -0.243 N 
ATOM     10  C   UNL     1      33.413 -22.009 -18.010  0.00  0.00    +0.049 C 
ATOM     11  C   UNL     1      33.720 -22.428 -16.765  0.00  0.00    +0.090 C 
ATOM     12  C   UNL     1      32.784 -23.193 -15.908  0.00  0.00    +0.258 C 
ATOM     13  C   UNL     1      34.693 -23.015 -14.510  0.00  0.00    +0.283 C 
ATOM     14  H   UNL     1      32.937 -23.964 -13.997  0.00  0.00    +0.159 HD
ENDBRANCH   3  10
BRANCH   2  15
ATOM     15  C   UNL     1      34.621 -18.819 -21.342  0.00  0.00    +0.035 C 
ATOM     16  C   UNL     1      34.083 -16.834 -23.228  0.00  0.00    +0.122 C 
ATOM     17  C   UNL     1      34.069 -19.160 -22.578  0.00  0.00    +0.004 C 
ATOM     18  C   UNL     1      34.904 -17.485 -21.051  0.00  0.00    +0.004 C 
ATOM     19  C   UNL     1      33.799 -18.168 -23.520  0.00  0.00    +0.020 C 
ATOM     20  C   UNL     1      34.636 -16.492 -21.993  0.00  0.00    +0.020 C 
BRANCH  16  21
ATOM     21  S   UNL     1      33.745 -15.590 -24.406  0.00  0.00    +0.057 S 
ATOM     22  O   UNL     1      33.233 -14.421 -23.706  0.00  0.00    -0.153 OA
ATOM     23  O   UNL     1      34.899 -15.459 -25.286  0.00  0.00    -0.153 OA
BRANCH  21  24
ATOM     24  N   UNL     1      32.467 -16.310 -25.282  0.00  0.00    -0.203 NA
ATOM     25  H   UNL     1      32.850 -16.953 -25.976  0.00  0.00    +0.144 HD
ATOM     26  H   UNL     1      31.926 -15.585 -25.753  0.00  0.00    +0.144 HD
ENDBRANCH  21  24
ENDBRANCH  16  21
ENDBRANCH   2  15
TORSDOF 4
ENDMDL
