MODEL 1
REMARK VINA RESULT:     -11.2      0.000      0.000
REMARK  Name = 45480632
REMARK  4 active torsions:
REMARK  status: ('A' for Active; 'I' for Inactive)
REMARK    1  A    between atoms: C_8  and  O_27
REMARK    2  A    between atoms: C_23  and  C_31
REMARK    3  A    between atoms: C_25  and  O_29
REMARK    4  A    between atoms: C_31  and  O_32
REMARK                            x       y       z     vdW  Elec       q    Type
REMARK                         _______ _______ _______ _____ _____    ______ ____
ROOT
ATOM      1  O   UNL     1      32.527 -11.166 -21.061  0.00  0.00    -0.347 OA
ATOM      2  O   UNL     1      31.768  -9.151 -24.012  0.00  0.00    -0.353 OA
ATOM      3  O   UNL     1      33.402 -13.613 -23.696  0.00  0.00    -0.353 OA
ATOM      4  O   UNL     1      30.919  -6.683 -21.393  0.00  0.00    -0.346 OA
ATOM      5  O   UNL     1      34.780 -16.448 -21.820  0.00  0.00    -0.346 OA
ATOM      6  C   UNL     1      31.760 -10.288 -21.884  0.00  0.00    +0.172 C 
ATOM      7  C   UNL     1      32.512 -10.036 -23.182  0.00  0.00    +0.147 C 
ATOM      8  C   UNL     1      31.538  -8.965 -21.158  0.00  0.00    +0.169 C 
ATOM      9  C   UNL     1      32.721 -11.360 -23.900  0.00  0.00    +0.065 C 
ATOM     10  C   UNL     1      33.416 -12.377 -22.985  0.00  0.00    +0.149 C 
ATOM     11  C   UNL     1      30.879  -7.933 -22.087  0.00  0.00    +0.172 C 
ATOM     12  C   UNL     1      32.680 -12.476 -21.637  0.00  0.00    +0.164 C 
ATOM     13  C   UNL     1      31.629  -7.846 -23.427  0.00  0.00    +0.149 C 
ATOM     14  C   UNL     1      34.384 -14.559 -23.270  0.00  0.00    +0.151 C 
ATOM     15  C   UNL     1      30.911  -6.985 -24.475  0.00  0.00    +0.058 C 
ATOM     16  C   UNL     1      33.394 -13.301 -20.603  0.00  0.00    +0.003 C 
ATOM     17  C   UNL     1      33.894 -15.340 -22.035  0.00  0.00    +0.164 C 
ATOM     18  C   UNL     1      33.913 -14.524 -20.770  0.00  0.00    +0.003 C 
ATOM     19  C   UNL     1      34.674 -15.470 -24.481  0.00  0.00    +0.058 C 
ATOM     20  C   UNL     1      30.828  -5.522 -24.180  0.00  0.00    -0.026 C 
ATOM     21  C   UNL     1      29.954  -5.735 -21.830  0.00  0.00    +0.168 C 
ATOM     22  C   UNL     1      30.415  -4.975 -23.029  0.00  0.00    +0.001 C 
ATOM     23  C   UNL     1      34.164 -17.742 -21.892  0.00  0.00    +0.176 C 
ATOM     24  C   UNL     1      33.529 -16.384 -24.816  0.00  0.00    -0.026 C 
ATOM     25  C   UNL     1      34.257 -18.304 -23.327  0.00  0.00    +0.162 C 
ATOM     26  C   UNL     1      33.344 -17.611 -24.304  0.00  0.00    +0.001 C 
ENDROOT
BRANCH   8  27
ATOM     27  O   UNL     1      30.680  -9.204 -20.041  0.00  0.00    -0.379 OA
ATOM     28  H   UNL     1      29.963  -9.800 -20.306  0.00  0.00    +0.211 HD
ENDBRANCH   8  27
BRANCH  25  29
ATOM     29  O   UNL     1      33.897 -19.686 -23.342  0.00  0.00    -0.377 OA
ATOM     30  H   UNL     1      33.678 -19.972 -22.441  0.00  0.00    +0.211 HD
ENDBRANCH  25  29
BRANCH  23  31
ATOM     31  C   UNL     1      34.929 -18.613 -20.893  0.00  0.00    +0.170 C 
BRANCH  31  32
ATOM     32  O   UNL     1      36.105 -17.927 -20.513  0.00  0.00    -0.379 OA
ATOM     33  H   UNL     1      36.526 -17.546 -21.300  0.00  0.00    +0.211 HD
ENDBRANCH  31  32
ENDBRANCH  23  31
TORSDOF 4
ENDMDL
MODEL 2
REMARK VINA RESULT:     -10.2      1.510      3.808
REMARK  Name = 45480632
REMARK  4 active torsions:
REMARK  status: ('A' for Active; 'I' for Inactive)
REMARK    1  A    between atoms: C_8  and  O_27
REMARK    2  A    between atoms: C_23  and  C_31
REMARK    3  A    between atoms: C_25  and  O_29
REMARK    4  A    between atoms: C_31  and  O_32
REMARK                            x       y       z     vdW  Elec       q    Type
REMARK                         _______ _______ _______ _____ _____    ______ ____
ROOT
ATOM      1  O   UNL     1      32.337  -8.836 -23.988  0.00  0.00    -0.347 OA
ATOM      2  O   UNL     1      31.001  -6.796 -21.267  0.00  0.00    -0.353 OA
ATOM      3  O   UNL     1      32.120 -11.425 -21.351  0.00  0.00    -0.353 OA
ATOM      4  O   UNL     1      31.182  -4.205 -23.898  0.00  0.00    -0.346 OA
ATOM      5  O   UNL     1      33.066 -14.512 -23.092  0.00  0.00    -0.346 OA
ATOM      6  C   UNL     1      32.243  -7.701 -23.127  0.00  0.00    +0.172 C 
ATOM      7  C   UNL     1      31.120  -7.925 -22.126  0.00  0.00    +0.147 C 
ATOM      8  C   UNL     1      31.949  -6.453 -23.954  0.00  0.00    +0.169 C 
ATOM      9  C   UNL     1      31.427  -9.167 -21.304  0.00  0.00    +0.065 C 
ATOM     10  C   UNL     1      31.679 -10.378 -22.213  0.00  0.00    +0.149 C 
ATOM     11  C   UNL     1      31.656  -5.249 -23.044  0.00  0.00    +0.172 C 
ATOM     12  C   UNL     1      32.725 -10.032 -23.288  0.00  0.00    +0.164 C 
ATOM     13  C   UNL     1      30.608  -5.611 -21.978  0.00  0.00    +0.149 C 
ATOM     14  C   UNL     1      31.959 -12.742 -21.880  0.00  0.00    +0.151 C 
ATOM     15  C   UNL     1      30.416  -4.523 -20.914  0.00  0.00    +0.058 C 
ATOM     16  C   UNL     1      32.898 -11.090 -24.343  0.00  0.00    +0.003 C 
ATOM     17  C   UNL     1      33.130 -13.106 -22.814  0.00  0.00    +0.164 C 
ATOM     18  C   UNL     1      33.071 -12.403 -24.143  0.00  0.00    +0.003 C 
ATOM     19  C   UNL     1      31.837 -13.692 -20.670  0.00  0.00    +0.058 C 
ATOM     20  C   UNL     1      29.808  -3.240 -21.387  0.00  0.00    -0.026 C 
ATOM     21  C   UNL     1      31.326  -2.895 -23.363  0.00  0.00    +0.168 C 
ATOM     22  C   UNL     1      30.200  -2.532 -22.454  0.00  0.00    +0.001 C 
ATOM     23  C   UNL     1      34.211 -15.268 -22.671  0.00  0.00    +0.176 C 
ATOM     24  C   UNL     1      33.126 -13.848 -19.914  0.00  0.00    -0.026 C 
ATOM     25  C   UNL     1      33.996 -15.823 -21.246  0.00  0.00    +0.162 C 
ATOM     26  C   UNL     1      34.069 -14.767 -20.174  0.00  0.00    +0.001 C 
ENDROOT
BRANCH   8  27
ATOM     27  O   UNL     1      33.096  -6.165 -24.756  0.00  0.00    -0.379 OA
ATOM     28  H   UNL     1      33.042  -6.662 -25.587  0.00  0.00    +0.211 HD
ENDBRANCH   8  27
BRANCH  25  29
ATOM     29  O   UNL     1      35.001 -16.790 -20.935  0.00  0.00    -0.377 OA
ATOM     30  H   UNL     1      35.841 -16.338 -20.762  0.00  0.00    +0.211 HD
ENDBRANCH  25  29
BRANCH  23  31
ATOM     31  C   UNL     1      34.356 -16.392 -23.700  0.00  0.00    +0.170 C 
BRANCH  31  32
ATOM     32  O   UNL     1      34.194 -15.840 -24.990  0.00  0.00    -0.379 OA
ATOM     33  H   UNL     1      34.776 -15.070 -25.088  0.00  0.00    +0.211 HD
ENDBRANCH  31  32
ENDBRANCH  23  31
TORSDOF 4
ENDMDL
MODEL 3
REMARK VINA RESULT:     -10.0      7.154     13.182
REMARK  Name = 45480632
REMARK  4 active torsions:
REMARK  status: ('A' for Active; 'I' for Inactive)
REMARK    1  A    between atoms: C_8  and  O_27
REMARK    2  A    between atoms: C_23  and  C_31
REMARK    3  A    between atoms: C_25  and  O_29
REMARK    4  A    between atoms: C_31  and  O_32
REMARK                            x       y       z     vdW  Elec       q    Type
REMARK                         _______ _______ _______ _____ _____    ______ ____
ROOT
ATOM      1  O   UNL     1      33.919 -22.506 -16.930  0.00  0.00    -0.347 OA
ATOM      2  O   UNL     1      36.793 -22.155 -14.703  0.00  0.00    -0.353 OA
ATOM      3  O   UNL     1      35.977 -20.203 -18.971  0.00  0.00    -0.353 OA
ATOM      4  O   UNL     1      34.765 -24.480 -12.666  0.00  0.00    -0.346 OA
ATOM      5  O   UNL     1      34.083 -19.891 -22.096  0.00  0.00    -0.346 OA
ATOM      6  C   UNL     1      34.597 -22.297 -15.692  0.00  0.00    +0.172 C 
ATOM      7  C   UNL     1      36.099 -22.348 -15.930  0.00  0.00    +0.147 C 
ATOM      8  C   UNL     1      34.202 -23.386 -14.700  0.00  0.00    +0.169 C 
ATOM      9  C   UNL     1      36.482 -21.253 -16.915  0.00  0.00    +0.065 C 
ATOM     10  C   UNL     1      35.659 -21.364 -18.206  0.00  0.00    +0.149 C 
ATOM     11  C   UNL     1      35.053 -23.301 -13.423  0.00  0.00    +0.172 C 
ATOM     12  C   UNL     1      34.158 -21.450 -17.879  0.00  0.00    +0.164 C 
ATOM     13  C   UNL     1      36.550 -23.218 -13.769  0.00  0.00    +0.149 C 
ATOM     14  C   UNL     1      35.715 -20.318 -20.370  0.00  0.00    +0.151 C 
ATOM     15  C   UNL     1      37.443 -22.930 -12.555  0.00  0.00    +0.058 C 
ATOM     16  C   UNL     1      33.285 -21.755 -19.065  0.00  0.00    +0.003 C 
ATOM     17  C   UNL     1      34.232 -20.034 -20.676  0.00  0.00    +0.164 C 
ATOM     18  C   UNL     1      33.314 -21.152 -20.260  0.00  0.00    +0.003 C 
ATOM     19  C   UNL     1      36.674 -19.341 -21.080  0.00  0.00    +0.058 C 
ATOM     20  C   UNL     1      37.520 -24.009 -11.522  0.00  0.00    -0.026 C 
ATOM     21  C   UNL     1      35.043 -24.370 -11.276  0.00  0.00    +0.168 C 
ATOM     22  C   UNL     1      36.477 -24.640 -10.967  0.00  0.00    +0.001 C 
ATOM     23  C   UNL     1      33.593 -18.613 -22.530  0.00  0.00    +0.176 C 
ATOM     24  C   UNL     1      36.322 -17.899 -20.846  0.00  0.00    -0.026 C 
ATOM     25  C   UNL     1      34.769 -17.661 -22.837  0.00  0.00    +0.162 C 
ATOM     26  C   UNL     1      35.484 -17.174 -21.604  0.00  0.00    +0.001 C 
ENDROOT
BRANCH   8  27
ATOM     27  O   UNL     1      32.827 -23.204 -14.357  0.00  0.00    -0.379 OA
ATOM     28  H   UNL     1      32.267 -23.610 -15.038  0.00  0.00    +0.211 HD
ENDBRANCH   8  27
BRANCH  25  29
ATOM     29  O   UNL     1      34.299 -16.499 -23.522  0.00  0.00    -0.377 OA
ATOM     30  H   UNL     1      35.044 -15.904 -23.697  0.00  0.00    +0.211 HD
ENDBRANCH  25  29
BRANCH  23  31
ATOM     31  C   UNL     1      32.758 -18.902 -23.780  0.00  0.00    +0.170 C 
BRANCH  31  32
ATOM     32  O   UNL     1      33.570 -18.691 -24.918  0.00  0.00    -0.379 OA
ATOM     33  H   UNL     1      34.203 -17.979 -24.736  0.00  0.00    +0.211 HD
ENDBRANCH  31  32
ENDBRANCH  23  31
TORSDOF 4
ENDMDL
MODEL 4
REMARK VINA RESULT:     -10.0      1.442      9.518
REMARK  Name = 45480632
REMARK  4 active torsions:
REMARK  status: ('A' for Active; 'I' for Inactive)
REMARK    1  A    between atoms: C_8  and  O_27
REMARK    2  A    between atoms: C_23  and  C_31
REMARK    3  A    between atoms: C_25  and  O_29
REMARK    4  A    between atoms: C_31  and  O_32
REMARK                            x       y       z     vdW  Elec       q    Type
REMARK                         _______ _______ _______ _____ _____    ______ ____
ROOT
ATOM      1  O   UNL     1      32.480 -11.664 -21.131  0.00  0.00    -0.347 OA
ATOM      2  O   UNL     1      33.386 -13.665 -24.050  0.00  0.00    -0.353 OA
ATOM      3  O   UNL     1      31.919  -9.141 -23.781  0.00  0.00    -0.353 OA
ATOM      4  O   UNL     1      33.921 -16.206 -21.419  0.00  0.00    -0.346 OA
ATOM      5  O   UNL     1      30.516  -6.279 -21.966  0.00  0.00    -0.346 OA
ATOM      6  C   UNL     1      33.273 -12.562 -21.908  0.00  0.00    +0.172 C 
ATOM      7  C   UNL     1      32.616 -12.761 -23.265  0.00  0.00    +0.147 C 
ATOM      8  C   UNL     1      33.381 -13.904 -21.191  0.00  0.00    +0.169 C 
ATOM      9  C   UNL     1      32.521 -11.418 -23.973  0.00  0.00    +0.065 C 
ATOM     10  C   UNL     1      31.798 -10.386 -23.096  0.00  0.00    +0.149 C 
ATOM     11  C   UNL     1      34.068 -14.949 -22.084  0.00  0.00    +0.172 C 
ATOM     12  C   UNL     1      32.428 -10.340 -21.693  0.00  0.00    +0.164 C 
ATOM     13  C   UNL     1      33.424 -14.983 -23.481  0.00  0.00    +0.149 C 
ATOM     14  C   UNL     1      30.947  -8.161 -23.416  0.00  0.00    +0.151 C 
ATOM     15  C   UNL     1      34.187 -15.857 -24.484  0.00  0.00    +0.058 C 
ATOM     16  C   UNL     1      31.668  -9.501 -20.703  0.00  0.00    +0.003 C 
ATOM     17  C   UNL     1      31.369  -7.421 -22.131  0.00  0.00    +0.164 C 
ATOM     18  C   UNL     1      31.215  -8.254 -20.888  0.00  0.00    +0.003 C 
ATOM     19  C   UNL     1      30.792  -7.220 -24.629  0.00  0.00    +0.058 C 
ATOM     20  C   UNL     1      34.185 -17.328 -24.211  0.00  0.00    -0.026 C 
ATOM     21  C   UNL     1      34.878 -17.188 -21.796  0.00  0.00    +0.168 C 
ATOM     22  C   UNL     1      34.482 -17.909 -23.041  0.00  0.00    +0.001 C 
ATOM     23  C   UNL     1      31.189  -5.012 -21.966  0.00  0.00    +0.176 C 
ATOM     24  C   UNL     1      31.997  -6.351 -24.855  0.00  0.00    -0.026 C 
ATOM     25  C   UNL     1      31.233  -4.425 -23.393  0.00  0.00    +0.162 C 
ATOM     26  C   UNL     1      32.192  -5.141 -24.307  0.00  0.00    +0.001 C 
ENDROOT
BRANCH   8  27
ATOM     27  O   UNL     1      34.156 -13.719 -20.005  0.00  0.00    -0.379 OA
ATOM     28  H   UNL     1      33.759 -14.221 -19.277  0.00  0.00    +0.211 HD
ENDBRANCH   8  27
BRANCH  25  29
ATOM     29  O   UNL     1      31.651  -3.059 -23.353  0.00  0.00    -0.377 OA
ATOM     30  H   UNL     1      31.391  -2.666 -22.505  0.00  0.00    +0.211 HD
ENDBRANCH  25  29
BRANCH  23  31
ATOM     31  C   UNL     1      30.384  -4.124 -21.014  0.00  0.00    +0.170 C 
BRANCH  31  32
ATOM     32  O   UNL     1      29.478  -3.355 -21.779  0.00  0.00    -0.379 OA
ATOM     33  H   UNL     1      28.668  -3.868 -21.933  0.00  0.00    +0.211 HD
ENDBRANCH  31  32
ENDBRANCH  23  31
TORSDOF 4
ENDMDL
MODEL 5
REMARK VINA RESULT:      -9.8      7.513     11.954
REMARK  Name = 45480632
REMARK  4 active torsions:
REMARK  status: ('A' for Active; 'I' for Inactive)
REMARK    1  A    between atoms: C_8  and  O_27
REMARK    2  A    between atoms: C_23  and  C_31
REMARK    3  A    between atoms: C_25  and  O_29
REMARK    4  A    between atoms: C_31  and  O_32
REMARK                            x       y       z     vdW  Elec       q    Type
REMARK                         _______ _______ _______ _____ _____    ______ ____
ROOT
ATOM      1  O   UNL     1      36.542 -20.672 -18.409  0.00  0.00    -0.347 OA
ATOM      2  O   UNL     1      33.485 -20.313 -20.376  0.00  0.00    -0.353 OA
ATOM      3  O   UNL     1      34.247 -22.688 -16.318  0.00  0.00    -0.353 OA
ATOM      4  O   UNL     1      35.770 -18.322 -22.492  0.00  0.00    -0.346 OA
ATOM      5  O   UNL     1      36.437 -24.078 -13.725  0.00  0.00    -0.346 OA
ATOM      6  C   UNL     1      35.539 -19.983 -19.156  0.00  0.00    +0.172 C 
ATOM      7  C   UNL     1      34.487 -20.980 -19.617  0.00  0.00    +0.147 C 
ATOM      8  C   UNL     1      36.174 -19.313 -20.370  0.00  0.00    +0.169 C 
ATOM      9  C   UNL     1      33.857 -21.636 -18.397  0.00  0.00    +0.065 C 
ATOM     10  C   UNL     1      34.929 -22.261 -17.495  0.00  0.00    +0.149 C 
ATOM     11  C   UNL     1      35.098 -18.722 -21.296  0.00  0.00    +0.172 C 
ATOM     12  C   UNL     1      36.034 -21.235 -17.185  0.00  0.00    +0.164 C 
ATOM     13  C   UNL     1      34.004 -19.762 -21.596  0.00  0.00    +0.149 C 
ATOM     14  C   UNL     1      34.924 -23.696 -15.566  0.00  0.00    +0.151 C 
ATOM     15  C   UNL     1      32.799 -19.182 -22.348  0.00  0.00    +0.058 C 
ATOM     16  C   UNL     1      37.225 -21.808 -16.469  0.00  0.00    +0.003 C 
ATOM     17  C   UNL     1      35.988 -23.072 -14.644  0.00  0.00    +0.164 C 
ATOM     18  C   UNL     1      37.208 -22.593 -15.383  0.00  0.00    +0.003 C 
ATOM     19  C   UNL     1      33.838 -24.473 -14.793  0.00  0.00    +0.058 C 
ATOM     20  C   UNL     1      33.054 -18.726 -23.749  0.00  0.00    -0.026 C 
ATOM     21  C   UNL     1      35.088 -17.332 -23.249  0.00  0.00    +0.168 C 
ATOM     22  C   UNL     1      34.051 -17.924 -24.145  0.00  0.00    +0.001 C 
ATOM     23  C   UNL     1      36.210 -23.782 -12.339  0.00  0.00    +0.176 C 
ATOM     24  C   UNL     1      33.216 -23.668 -13.687  0.00  0.00    -0.026 C 
ATOM     25  C   UNL     1      34.855 -24.360 -11.879  0.00  0.00    +0.162 C 
ATOM     26  C   UNL     1      33.667 -23.611 -12.424  0.00  0.00    +0.001 C 
ENDROOT
BRANCH   8  27
ATOM     27  O   UNL     1      37.024 -18.261 -19.910  0.00  0.00    -0.379 OA
ATOM     28  H   UNL     1      37.309 -17.722 -20.665  0.00  0.00    +0.211 HD
ENDBRANCH   8  27
BRANCH  25  29
ATOM     29  O   UNL     1      34.752 -24.307 -10.455  0.00  0.00    -0.377 OA
ATOM     30  H   UNL     1      34.997 -25.168 -10.082  0.00  0.00    +0.211 HD
ENDBRANCH  25  29
BRANCH  23  31
ATOM     31  C   UNL     1      37.382 -24.421 -11.590  0.00  0.00    +0.170 C 
BRANCH  31  32
ATOM     32  O   UNL     1      37.052 -25.767 -11.311  0.00  0.00    -0.379 OA
ATOM     33  H   UNL     1      36.094 -25.892 -11.407  0.00  0.00    +0.211 HD
ENDBRANCH  31  32
ENDBRANCH  23  31
TORSDOF 4
ENDMDL
