MODEL 1
REMARK VINA RESULT:     -11.3      0.000      0.000
REMARK  Name = 24875313
REMARK  5 active torsions:
REMARK  status: ('A' for Active; 'I' for Inactive)
REMARK    1  A    between atoms: N_3  and  C_13
REMARK    2  A    between atoms: C_6  and  C_22
REMARK    3  A    between atoms: C_14  and  C_21
REMARK    4  A    between atoms: C_22  and  C_23
REMARK    5  A    between atoms: C_23  and  N_24
REMARK                            x       y       z     vdW  Elec       q    Type
REMARK                         _______ _______ _______ _____ _____    ______ ____
ROOT
ATOM      1  S   UNL     1      34.180 -19.983 -20.615  0.00  0.00    -0.056 S 
ATOM      2  O   UNL     1      35.391 -15.834 -22.380  0.00  0.00    -0.252 OA
ATOM      3  N   UNL     1      33.258 -16.023 -23.319  0.00  0.00    -0.266 N 
ATOM      4  N   UNL     1      34.071 -17.728 -21.947  0.00  0.00    -0.248 N 
ATOM      5  N   UNL     1      36.067 -18.218 -20.689  0.00  0.00    -0.223 NA
ATOM      6  C   UNL     1      35.615 -20.305 -19.733  0.00  0.00    +0.031 C 
ATOM      7  C   UNL     1      36.500 -19.259 -19.891  0.00  0.00    +0.103 C 
ATOM      8  C   UNL     1      34.858 -18.491 -21.126  0.00  0.00    +0.166 C 
ATOM      9  C   UNL     1      34.344 -16.453 -22.540  0.00  0.00    +0.310 C 
ATOM     10  H   UNL     1      32.484 -16.630 -23.352  0.00  0.00    +0.157 HD
ATOM     11  H   UNL     1      33.190 -18.111 -22.161  0.00  0.00    +0.158 HD
ENDROOT
BRANCH   3  13
ATOM     12  O   UNL     1      32.938 -12.637 -24.538  0.00  0.00    -0.452 OA
ATOM     13  C   UNL     1      33.138 -14.825 -24.061  0.00  0.00    +0.093 C 
ATOM     14  C   UNL     1      33.039 -13.555 -23.541  0.00  0.00    +0.229 C 
ATOM     15  C   UNL     1      33.094 -14.677 -25.469  0.00  0.00    +0.051 C 
ATOM     16  C   UNL     1      32.973 -13.328 -25.707  0.00  0.00    +0.125 C 
ATOM     17  C   UNL     1      32.874 -12.529 -26.936  0.00  0.00    +0.073 C 
BRANCH  14  21
ATOM     18  F   UNL     1      32.225 -13.720 -21.298  0.00  0.00    -0.163 F 
ATOM     19  F   UNL     1      34.254 -12.998 -21.557  0.00  0.00    -0.163 F 
ATOM     20  F   UNL     1      32.573 -11.727 -22.095  0.00  0.00    -0.163 F 
ATOM     21  C   UNL     1      33.025 -13.021 -22.171  0.00  0.00    +0.452 C 
ENDBRANCH  14  21
ENDBRANCH   3  13
BRANCH   6  22
ATOM     22  C   UNL     1      35.760 -21.582 -18.941  0.00  0.00    +0.056 C 
BRANCH  22  23
ATOM     23  C   UNL     1      35.664 -21.366 -17.432  0.00  0.00    +0.093 C 
BRANCH  23  24
ATOM     24  N   UNL     1      36.850 -21.849 -16.764  0.00  0.00    -0.321 N 
ATOM     25  H   UNL     1      37.727 -21.563 -17.109  0.00  0.00    +0.148 HD
ATOM     26  N   UNL     1      37.994 -23.082 -15.117  0.00  0.00    -0.234 NA
ATOM     27  N   UNL     1      34.356 -24.346 -13.583  0.00  0.00    -0.274 N 
ATOM     28  N   UNL     1      36.735 -24.351 -13.500  0.00  0.00    -0.233 NA
ATOM     29  N   UNL     1      32.009 -24.642 -13.270  0.00  0.00    -0.206 N 
ATOM     30  N   UNL     1      32.550 -23.347 -14.945  0.00  0.00    -0.193 NA
ATOM     31  N   UNL     1      30.820 -24.282 -13.777  0.00  0.00    -0.156 NA
ATOM     32  C   UNL     1      36.825 -22.691 -15.665  0.00  0.00    +0.110 C 
ATOM     33  C   UNL     1      35.588 -23.082 -15.194  0.00  0.00    +0.121 C 
ATOM     34  C   UNL     1      35.605 -23.920 -14.097  0.00  0.00    +0.115 C 
ATOM     35  C   UNL     1      37.878 -23.899 -14.053  0.00  0.00    +0.252 C 
ATOM     36  C   UNL     1      33.032 -24.083 -13.970  0.00  0.00    +0.207 C 
ATOM     37  C   UNL     1      31.202 -23.499 -14.788  0.00  0.00    +0.219 C 
ATOM     38  H   UNL     1      34.431 -24.942 -12.803  0.00  0.00    +0.156 HD
ATOM     39  H   UNL     1      32.126 -25.234 -12.492  0.00  0.00    +0.177 HD
ENDBRANCH  23  24
ENDBRANCH  22  23
ENDBRANCH   6  22
TORSDOF 5
ENDMDL
MODEL 2
REMARK VINA RESULT:     -11.2      2.621      4.370
REMARK  Name = 24875313
REMARK  5 active torsions:
REMARK  status: ('A' for Active; 'I' for Inactive)
REMARK    1  A    between atoms: N_3  and  C_13
REMARK    2  A    between atoms: C_6  and  C_22
REMARK    3  A    between atoms: C_14  and  C_21
REMARK    4  A    between atoms: C_22  and  C_23
REMARK    5  A    between atoms: C_23  and  N_24
REMARK                            x       y       z     vdW  Elec       q    Type
REMARK                         _______ _______ _______ _____ _____    ______ ____
ROOT
ATOM      1  S   UNL     1      34.560 -17.283 -22.881  0.00  0.00    -0.056 S 
ATOM      2  O   UNL     1      33.850 -13.114 -20.903  0.00  0.00    -0.252 OA
ATOM      3  N   UNL     1      33.409 -12.545 -23.128  0.00  0.00    -0.266 N 
ATOM      4  N   UNL     1      33.997 -14.740 -22.593  0.00  0.00    -0.248 N 
ATOM      5  N   UNL     1      34.568 -16.014 -20.629  0.00  0.00    -0.223 NA
ATOM      6  C   UNL     1      34.966 -18.162 -21.465  0.00  0.00    +0.031 C 
ATOM      7  C   UNL     1      34.917 -17.325 -20.371  0.00  0.00    +0.103 C 
ATOM      8  C   UNL     1      34.358 -15.876 -21.919  0.00  0.00    +0.166 C 
ATOM      9  C   UNL     1      33.758 -13.421 -22.087  0.00  0.00    +0.310 C 
ATOM     10  H   UNL     1      33.376 -12.938 -24.030  0.00  0.00    +0.157 HD
ATOM     11  H   UNL     1      33.887 -14.843 -23.566  0.00  0.00    +0.158 HD
ENDROOT
BRANCH   3  13
ATOM     12  O   UNL     1      32.096  -9.256 -22.412  0.00  0.00    -0.452 OA
ATOM     13  C   UNL     1      33.098 -11.167 -23.040  0.00  0.00    +0.093 C 
ATOM     14  C   UNL     1      32.122 -10.605 -22.251  0.00  0.00    +0.229 C 
ATOM     15  C   UNL     1      33.711 -10.094 -23.731  0.00  0.00    +0.051 C 
ATOM     16  C   UNL     1      33.067  -8.954 -23.314  0.00  0.00    +0.125 C 
ATOM     17  C   UNL     1      33.221  -7.531 -23.648  0.00  0.00    +0.073 C 
BRANCH  14  21
ATOM     18  F   UNL     1      30.813 -12.475 -21.533  0.00  0.00    -0.163 F 
ATOM     19  F   UNL     1      31.544 -11.135 -19.991  0.00  0.00    -0.163 F 
ATOM     20  F   UNL     1      29.940 -10.495 -21.314  0.00  0.00    -0.163 F 
ATOM     21  C   UNL     1      31.141 -11.159 -21.305  0.00  0.00    +0.452 C 
ENDBRANCH  14  21
ENDBRANCH   3  13
BRANCH   6  22
ATOM     22  C   UNL     1      35.307 -19.631 -21.544  0.00  0.00    +0.056 C 
BRANCH  22  23
ATOM     23  C   UNL     1      35.104 -20.365 -20.220  0.00  0.00    +0.093 C 
BRANCH  23  24
ATOM     24  N   UNL     1      33.703 -20.617 -19.977  0.00  0.00    -0.321 N 
ATOM     25  H   UNL     1      33.052 -20.308 -20.648  0.00  0.00    +0.148 HD
ATOM     26  N   UNL     1      31.893 -21.455 -18.727  0.00  0.00    -0.234 NA
ATOM     27  N   UNL     1      34.548 -22.801 -15.842  0.00  0.00    -0.274 N 
ATOM     28  N   UNL     1      32.314 -22.564 -16.629  0.00  0.00    -0.233 NA
ATOM     29  N   UNL     1      36.572 -23.269 -14.668  0.00  0.00    -0.206 N 
ATOM     30  N   UNL     1      36.840 -22.212 -16.561  0.00  0.00    -0.193 NA
ATOM     31  N   UNL     1      37.902 -23.113 -14.747  0.00  0.00    -0.156 NA
ATOM     32  C   UNL     1      33.223 -21.271 -18.855  0.00  0.00    +0.110 C 
ATOM     33  C   UNL     1      34.149 -21.699 -17.925  0.00  0.00    +0.121 C 
ATOM     34  C   UNL     1      33.631 -22.346 -16.821  0.00  0.00    +0.115 C 
ATOM     35  C   UNL     1      31.512 -22.099 -17.607  0.00  0.00    +0.252 C 
ATOM     36  C   UNL     1      35.948 -22.731 -15.749  0.00  0.00    +0.207 C 
ATOM     37  C   UNL     1      38.012 -22.468 -15.910  0.00  0.00    +0.219 C 
ATOM     38  H   UNL     1      34.121 -23.253 -15.079  0.00  0.00    +0.156 HD
ATOM     39  H   UNL     1      36.107 -23.716 -13.923  0.00  0.00    +0.177 HD
ENDBRANCH  23  24
ENDBRANCH  22  23
ENDBRANCH   6  22
TORSDOF 5
ENDMDL
MODEL 3
REMARK VINA RESULT:     -10.8      4.890     12.108
REMARK  Name = 24875313
REMARK  5 active torsions:
REMARK  status: ('A' for Active; 'I' for Inactive)
REMARK    1  A    between atoms: N_3  and  C_13
REMARK    2  A    between atoms: C_6  and  C_22
REMARK    3  A    between atoms: C_14  and  C_21
REMARK    4  A    between atoms: C_22  and  C_23
REMARK    5  A    between atoms: C_23  and  N_24
REMARK                            x       y       z     vdW  Elec       q    Type
REMARK                         _______ _______ _______ _____ _____    ______ ____
ROOT
ATOM      1  S   UNL     1      33.629 -20.148 -20.651  0.00  0.00    -0.056 S 
ATOM      2  O   UNL     1      36.819 -20.961 -17.340  0.00  0.00    -0.252 OA
ATOM      3  N   UNL     1      35.124 -22.378 -16.573  0.00  0.00    -0.266 N 
ATOM      4  N   UNL     1      34.791 -21.128 -18.516  0.00  0.00    -0.248 N 
ATOM      5  N   UNL     1      36.009 -19.535 -19.852  0.00  0.00    -0.223 NA
ATOM      6  C   UNL     1      34.519 -19.013 -21.579  0.00  0.00    +0.031 C 
ATOM      7  C   UNL     1      35.756 -18.814 -21.003  0.00  0.00    +0.103 C 
ATOM      8  C   UNL     1      34.957 -20.271 -19.572  0.00  0.00    +0.166 C 
ATOM      9  C   UNL     1      35.697 -21.446 -17.453  0.00  0.00    +0.310 C 
ATOM     10  H   UNL     1      34.212 -22.678 -16.795  0.00  0.00    +0.157 HD
ATOM     11  H   UNL     1      33.924 -21.591 -18.482  0.00  0.00    +0.158 HD
ENDROOT
BRANCH   3  13
ATOM     12  O   UNL     1      35.868 -23.863 -13.364  0.00  0.00    -0.452 OA
ATOM     13  C   UNL     1      35.694 -22.942 -15.408  0.00  0.00    +0.093 C 
ATOM     14  C   UNL     1      35.008 -23.379 -14.298  0.00  0.00    +0.229 C 
ATOM     15  C   UNL     1      37.065 -23.171 -15.137  0.00  0.00    +0.051 C 
ATOM     16  C   UNL     1      37.117 -23.733 -13.883  0.00  0.00    +0.125 C 
ATOM     17  C   UNL     1      38.224 -24.196 -13.033  0.00  0.00    +0.073 C 
BRANCH  14  21
ATOM     18  F   UNL     1      32.819 -22.444 -14.535  0.00  0.00    -0.163 F 
ATOM     19  F   UNL     1      32.948 -24.595 -14.284  0.00  0.00    -0.163 F 
ATOM     20  F   UNL     1      33.350 -23.279 -12.599  0.00  0.00    -0.163 F 
ATOM     21  C   UNL     1      33.581 -23.424 -13.944  0.00  0.00    +0.452 C 
ENDBRANCH  14  21
ENDBRANCH   3  13
BRANCH   6  22
ATOM     22  C   UNL     1      33.921 -18.399 -22.821  0.00  0.00    +0.056 C 
BRANCH  22  23
ATOM     23  C   UNL     1      34.191 -16.900 -22.938  0.00  0.00    +0.093 C 
BRANCH  23  24
ATOM     24  N   UNL     1      34.099 -16.463 -24.311  0.00  0.00    -0.321 N 
ATOM     25  H   UNL     1      34.410 -17.076 -25.016  0.00  0.00    +0.148 HD
ATOM     26  N   UNL     1      33.556 -14.922 -26.007  0.00  0.00    -0.234 NA
ATOM     27  N   UNL     1      32.219 -12.265 -23.120  0.00  0.00    -0.274 N 
ATOM     28  N   UNL     1      32.602 -12.791 -25.410  0.00  0.00    -0.233 NA
ATOM     29  N   UNL     1      31.660 -11.306 -21.007  0.00  0.00    -0.206 N 
ATOM     30  N   UNL     1      32.515 -13.314 -20.901  0.00  0.00    -0.193 NA
ATOM     31  N   UNL     1      31.679 -11.563 -19.691  0.00  0.00    -0.156 NA
ATOM     32  C   UNL     1      33.597 -15.230 -24.694  0.00  0.00    +0.110 C 
ATOM     33  C   UNL     1      33.165 -14.382 -23.694  0.00  0.00    +0.121 C 
ATOM     34  C   UNL     1      32.672 -13.164 -24.115  0.00  0.00    +0.115 C 
ATOM     35  C   UNL     1      33.055 -13.705 -26.291  0.00  0.00    +0.252 C 
ATOM     36  C   UNL     1      32.159 -12.351 -21.720  0.00  0.00    +0.207 C 
ATOM     37  C   UNL     1      32.204 -12.790 -19.679  0.00  0.00    +0.219 C 
ATOM     38  H   UNL     1      31.880 -11.413 -23.480  0.00  0.00    +0.156 HD
ATOM     39  H   UNL     1      31.329 -10.469 -21.407  0.00  0.00    +0.177 HD
ENDBRANCH  23  24
ENDBRANCH  22  23
ENDBRANCH   6  22
TORSDOF 5
ENDMDL
MODEL 4
REMARK VINA RESULT:     -10.8      7.295     15.119
REMARK  Name = 24875313
REMARK  5 active torsions:
REMARK  status: ('A' for Active; 'I' for Inactive)
REMARK    1  A    between atoms: N_3  and  C_13
REMARK    2  A    between atoms: C_6  and  C_22
REMARK    3  A    between atoms: C_14  and  C_21
REMARK    4  A    between atoms: C_22  and  C_23
REMARK    5  A    between atoms: C_23  and  N_24
REMARK                            x       y       z     vdW  Elec       q    Type
REMARK                         _______ _______ _______ _____ _____    ______ ____
ROOT
ATOM      1  S   UNL     1      33.064 -11.163 -23.706  0.00  0.00    -0.056 S 
ATOM      2  O   UNL     1      33.091 -14.901 -20.908  0.00  0.00    -0.252 OA
ATOM      3  N   UNL     1      34.411 -15.736 -22.648  0.00  0.00    -0.266 N 
ATOM      4  N   UNL     1      33.568 -13.563 -22.780  0.00  0.00    -0.248 N 
ATOM      5  N   UNL     1      32.204 -12.087 -21.450  0.00  0.00    -0.223 NA
ATOM      6  C   UNL     1      32.088 -10.138 -22.739  0.00  0.00    +0.031 C 
ATOM      7  C   UNL     1      31.727 -10.797 -21.583  0.00  0.00    +0.103 C 
ATOM      8  C   UNL     1      32.921 -12.386 -22.510  0.00  0.00    +0.166 C 
ATOM      9  C   UNL     1      33.638 -14.761 -21.997  0.00  0.00    +0.310 C 
ATOM     10  H   UNL     1      34.787 -15.477 -23.521  0.00  0.00    +0.157 HD
ATOM     11  H   UNL     1      34.055 -13.590 -23.635  0.00  0.00    +0.158 HD
ENDROOT
BRANCH   3  13
ATOM     12  O   UNL     1      34.850 -19.288 -22.153  0.00  0.00    -0.452 OA
ATOM     13  C   UNL     1      34.717 -17.044 -22.206  0.00  0.00    +0.093 C 
ATOM     14  C   UNL     1      34.408 -18.215 -22.860  0.00  0.00    +0.229 C 
ATOM     15  C   UNL     1      35.390 -17.423 -21.019  0.00  0.00    +0.051 C 
ATOM     16  C   UNL     1      35.446 -18.797 -21.035  0.00  0.00    +0.125 C 
ATOM     17  C   UNL     1      36.003 -19.792 -20.107  0.00  0.00    +0.073 C 
BRANCH  14  21
ATOM     18  F   UNL     1      32.359 -18.651 -24.015  0.00  0.00    -0.163 F 
ATOM     19  F   UNL     1      33.889 -17.563 -25.103  0.00  0.00    -0.163 F 
ATOM     20  F   UNL     1      34.142 -19.687 -24.707  0.00  0.00    -0.163 F 
ATOM     21  C   UNL     1      33.723 -18.516 -24.126  0.00  0.00    +0.452 C 
ENDBRANCH  14  21
ENDBRANCH   3  13
BRANCH   6  22
ATOM     22  C   UNL     1      31.748  -8.741 -23.201  0.00  0.00    +0.056 C 
BRANCH  22  23
ATOM     23  C   UNL     1      32.564  -7.661 -22.494  0.00  0.00    +0.093 C 
BRANCH  23  24
ATOM     24  N   UNL     1      31.716  -6.823 -21.678  0.00  0.00    -0.321 N 
ATOM     25  H   UNL     1      31.481  -7.139 -20.776  0.00  0.00    +0.148 HD
ATOM     26  N   UNL     1      30.433  -4.897 -21.249  0.00  0.00    -0.234 NA
ATOM     27  N   UNL     1      31.364  -3.473 -25.030  0.00  0.00    -0.274 N 
ATOM     28  N   UNL     1      30.249  -3.193 -22.945  0.00  0.00    -0.233 NA
ATOM     29  N   UNL     1      32.280  -3.309 -27.227  0.00  0.00    -0.206 N 
ATOM     30  N   UNL     1      32.814  -5.133 -26.150  0.00  0.00    -0.193 NA
ATOM     31  N   UNL     1      33.055  -3.967 -28.102  0.00  0.00    -0.156 NA
ATOM     32  C   UNL     1      31.216  -5.599 -22.093  0.00  0.00    +0.110 C 
ATOM     33  C   UNL     1      31.556  -5.171 -23.361  0.00  0.00    +0.121 C 
ATOM     34  C   UNL     1      31.039  -3.948 -23.736  0.00  0.00    +0.115 C 
ATOM     35  C   UNL     1      29.990  -3.720 -21.732  0.00  0.00    +0.252 C 
ATOM     36  C   UNL     1      32.142  -4.008 -26.069  0.00  0.00    +0.207 C 
ATOM     37  C   UNL     1      33.352  -5.064 -27.403  0.00  0.00    +0.219 C 
ATOM     38  H   UNL     1      30.966  -2.597 -25.242  0.00  0.00    +0.156 HD
ATOM     39  H   UNL     1      31.866  -2.432 -27.400  0.00  0.00    +0.177 HD
ENDBRANCH  23  24
ENDBRANCH  22  23
ENDBRANCH   6  22
TORSDOF 5
ENDMDL
MODEL 5
REMARK VINA RESULT:     -10.7      2.288      3.759
REMARK  Name = 24875313
REMARK  5 active torsions:
REMARK  status: ('A' for Active; 'I' for Inactive)
REMARK    1  A    between atoms: N_3  and  C_13
REMARK    2  A    between atoms: C_6  and  C_22
REMARK    3  A    between atoms: C_14  and  C_21
REMARK    4  A    between atoms: C_22  and  C_23
REMARK    5  A    between atoms: C_23  and  N_24
REMARK                            x       y       z     vdW  Elec       q    Type
REMARK                         _______ _______ _______ _____ _____    ______ ____
ROOT
ATOM      1  S   UNL     1      34.268 -19.099 -22.014  0.00  0.00    -0.056 S 
ATOM      2  O   UNL     1      34.580 -14.485 -21.368  0.00  0.00    -0.252 OA
ATOM      3  N   UNL     1      33.147 -14.501 -23.215  0.00  0.00    -0.266 N 
ATOM      4  N   UNL     1      33.912 -16.522 -22.331  0.00  0.00    -0.248 N 
ATOM      5  N   UNL     1      35.336 -17.267 -20.536  0.00  0.00    -0.223 NA
ATOM      6  C   UNL     1      35.290 -19.598 -20.730  0.00  0.00    +0.031 C 
ATOM      7  C   UNL     1      35.763 -18.491 -20.058  0.00  0.00    +0.103 C 
ATOM      8  C   UNL     1      34.544 -17.466 -21.566  0.00  0.00    +0.166 C 
ATOM      9  C   UNL     1      33.941 -15.094 -22.221  0.00  0.00    +0.310 C 
ATOM     10  H   UNL     1      32.693 -15.121 -23.831  0.00  0.00    +0.157 HD
ATOM     11  H   UNL     1      33.358 -16.875 -23.064  0.00  0.00    +0.158 HD
ENDROOT
BRANCH   3  13
ATOM     12  O   UNL     1      32.541 -11.185 -24.516  0.00  0.00    -0.452 OA
ATOM     13  C   UNL     1      32.917 -13.124 -23.442  0.00  0.00    +0.093 C 
ATOM     14  C   UNL     1      32.739 -12.521 -24.665  0.00  0.00    +0.229 C 
ATOM     15  C   UNL     1      32.824 -12.090 -22.478  0.00  0.00    +0.051 C 
ATOM     16  C   UNL     1      32.594 -10.932 -23.182  0.00  0.00    +0.125 C 
ATOM     17  C   UNL     1      32.406  -9.531 -22.780  0.00  0.00    +0.073 C 
BRANCH  14  21
ATOM     18  F   UNL     1      31.603 -12.666 -26.766  0.00  0.00    -0.163 F 
ATOM     19  F   UNL     1      33.771 -12.596 -26.822  0.00  0.00    -0.163 F 
ATOM     20  F   UNL     1      32.761 -14.393 -26.130  0.00  0.00    -0.163 F 
ATOM     21  C   UNL     1      32.719 -13.024 -26.047  0.00  0.00    +0.452 C 
ENDBRANCH  14  21
ENDBRANCH   3  13
BRANCH   6  22
ATOM     22  C   UNL     1      35.550 -21.064 -20.480  0.00  0.00    +0.056 C 
BRANCH  22  23
ATOM     23  C   UNL     1      35.071 -21.532 -19.107  0.00  0.00    +0.093 C 
BRANCH  23  24
ATOM     24  N   UNL     1      33.634 -21.436 -19.000  0.00  0.00    -0.321 N 
ATOM     25  H   UNL     1      33.144 -20.977 -19.720  0.00  0.00    +0.148 HD
ATOM     26  N   UNL     1      31.565 -21.807 -17.940  0.00  0.00    -0.234 NA
ATOM     27  N   UNL     1      33.531 -23.757 -14.855  0.00  0.00    -0.274 N 
ATOM     28  N   UNL     1      31.505 -22.983 -15.837  0.00  0.00    -0.233 NA
ATOM     29  N   UNL     1      35.260 -24.704 -13.511  0.00  0.00    -0.206 N 
ATOM     30  N   UNL     1      35.954 -23.745 -15.347  0.00  0.00    -0.193 NA
ATOM     31  N   UNL     1      36.590 -24.876 -13.464  0.00  0.00    -0.156 NA
ATOM     32  C   UNL     1      32.906 -21.952 -17.941  0.00  0.00    +0.110 C 
ATOM     33  C   UNL     1      33.609 -22.593 -16.940  0.00  0.00    +0.121 C 
ATOM     34  C   UNL     1      32.848 -23.094 -15.903  0.00  0.00    +0.115 C 
ATOM     35  C   UNL     1      30.936 -22.338 -16.874  0.00  0.00    +0.252 C 
ATOM     36  C   UNL     1      34.890 -24.030 -14.632  0.00  0.00    +0.207 C 
ATOM     37  C   UNL     1      36.962 -24.278 -14.598  0.00  0.00    +0.219 C 
ATOM     38  H   UNL     1      32.937 -24.092 -14.144  0.00  0.00    +0.156 HD
ATOM     39  H   UNL     1      34.633 -25.024 -12.822  0.00  0.00    +0.177 HD
ENDBRANCH  23  24
ENDBRANCH  22  23
ENDBRANCH   6  22
TORSDOF 5
ENDMDL
MODEL 6
REMARK VINA RESULT:     -10.7      7.460     14.978
REMARK  Name = 24875313
REMARK  5 active torsions:
REMARK  status: ('A' for Active; 'I' for Inactive)
REMARK    1  A    between atoms: N_3  and  C_13
REMARK    2  A    between atoms: C_6  and  C_22
REMARK    3  A    between atoms: C_14  and  C_21
REMARK    4  A    between atoms: C_22  and  C_23
REMARK    5  A    between atoms: C_23  and  N_24
REMARK                            x       y       z     vdW  Elec       q    Type
REMARK                         _______ _______ _______ _____ _____    ______ ____
ROOT
ATOM      1  S   UNL     1      33.290 -11.116 -23.727  0.00  0.00    -0.056 S 
ATOM      2  O   UNL     1      33.110 -14.892 -20.986  0.00  0.00    -0.252 OA
ATOM      3  N   UNL     1      34.511 -15.723 -22.664  0.00  0.00    -0.266 N 
ATOM      4  N   UNL     1      33.708 -13.536 -22.810  0.00  0.00    -0.248 N 
ATOM      5  N   UNL     1      32.295 -12.057 -21.535  0.00  0.00    -0.223 NA
ATOM      6  C   UNL     1      32.277 -10.089 -22.799  0.00  0.00    +0.031 C 
ATOM      7  C   UNL     1      31.845 -10.759 -21.674  0.00  0.00    +0.103 C 
ATOM      8  C   UNL     1      33.064 -12.353 -22.558  0.00  0.00    +0.166 C 
ATOM      9  C   UNL     1      33.718 -14.745 -22.042  0.00  0.00    +0.310 C 
ATOM     10  H   UNL     1      34.938 -15.457 -23.511  0.00  0.00    +0.157 HD
ATOM     11  H   UNL     1      34.241 -13.558 -23.637  0.00  0.00    +0.158 HD
ENDROOT
BRANCH   3  13
ATOM     12  O   UNL     1      34.829 -19.288 -22.176  0.00  0.00    -0.452 OA
ATOM     13  C   UNL     1      34.773 -17.042 -22.225  0.00  0.00    +0.093 C 
ATOM     14  C   UNL     1      34.422 -18.200 -22.879  0.00  0.00    +0.229 C 
ATOM     15  C   UNL     1      35.438 -17.446 -21.042  0.00  0.00    +0.051 C 
ATOM     16  C   UNL     1      35.447 -18.820 -21.060  0.00  0.00    +0.125 C 
ATOM     17  C   UNL     1      35.973 -19.835 -20.136  0.00  0.00    +0.073 C 
BRANCH  14  21
ATOM     18  F   UNL     1      32.359 -18.619 -24.016  0.00  0.00    -0.163 F 
ATOM     19  F   UNL     1      33.869 -17.500 -25.099  0.00  0.00    -0.163 F 
ATOM     20  F   UNL     1      34.137 -19.631 -24.756  0.00  0.00    -0.163 F 
ATOM     21  C   UNL     1      33.721 -18.475 -24.143  0.00  0.00    +0.452 C 
ENDBRANCH  14  21
ENDBRANCH   3  13
BRANCH   6  22
ATOM     22  C   UNL     1      31.983  -8.681 -23.258  0.00  0.00    +0.056 C 
BRANCH  22  23
ATOM     23  C   UNL     1      33.074  -7.685 -22.872  0.00  0.00    +0.093 C 
BRANCH  23  24
ATOM     24  N   UNL     1      33.915  -7.374 -24.004  0.00  0.00    -0.321 N 
ATOM     25  H   UNL     1      34.532  -8.069 -24.330  0.00  0.00    +0.148 HD
ATOM     26  N   UNL     1      34.731  -5.968 -25.707  0.00  0.00    -0.234 NA
ATOM     27  N   UNL     1      32.173  -2.972 -24.417  0.00  0.00    -0.274 N 
ATOM     28  N   UNL     1      33.853  -3.734 -25.922  0.00  0.00    -0.233 NA
ATOM     29  N   UNL     1      30.517  -1.786 -23.173  0.00  0.00    -0.206 N 
ATOM     30  N   UNL     1      30.890  -3.825 -22.483  0.00  0.00    -0.193 NA
ATOM     31  N   UNL     1      29.675  -1.919 -22.137  0.00  0.00    -0.156 NA
ATOM     32  C   UNL     1      33.904  -6.153 -24.658  0.00  0.00    +0.110 C 
ATOM     33  C   UNL     1      33.033  -5.189 -24.189  0.00  0.00    +0.121 C 
ATOM     34  C   UNL     1      33.051  -3.988 -24.867  0.00  0.00    +0.115 C 
ATOM     35  C   UNL     1      34.656  -4.753 -26.284  0.00  0.00    +0.252 C 
ATOM     36  C   UNL     1      31.236  -2.923 -23.371  0.00  0.00    +0.207 C 
ATOM     37  C   UNL     1      29.939  -3.170 -21.755  0.00  0.00    +0.219 C 
ATOM     38  H   UNL     1      32.231  -2.139 -24.938  0.00  0.00    +0.156 HD
ATOM     39  H   UNL     1      30.604  -0.971 -23.719  0.00  0.00    +0.177 HD
ENDBRANCH  23  24
ENDBRANCH  22  23
ENDBRANCH   6  22
TORSDOF 5
ENDMDL
MODEL 7
REMARK VINA RESULT:     -10.6      1.293      2.825
REMARK  Name = 24875313
REMARK  5 active torsions:
REMARK  status: ('A' for Active; 'I' for Inactive)
REMARK    1  A    between atoms: N_3  and  C_13
REMARK    2  A    between atoms: C_6  and  C_22
REMARK    3  A    between atoms: C_14  and  C_21
REMARK    4  A    between atoms: C_22  and  C_23
REMARK    5  A    between atoms: C_23  and  N_24
REMARK                            x       y       z     vdW  Elec       q    Type
REMARK                         _______ _______ _______ _____ _____    ______ ____
ROOT
ATOM      1  S   UNL     1      34.232 -19.987 -20.944  0.00  0.00    -0.056 S 
ATOM      2  O   UNL     1      35.288 -15.687 -22.423  0.00  0.00    -0.252 OA
ATOM      3  N   UNL     1      33.231 -15.952 -23.504  0.00  0.00    -0.266 N 
ATOM      4  N   UNL     1      34.064 -17.676 -22.168  0.00  0.00    -0.248 N 
ATOM      5  N   UNL     1      36.007 -18.113 -20.811  0.00  0.00    -0.223 NA
ATOM      6  C   UNL     1      35.628 -20.270 -19.989  0.00  0.00    +0.031 C 
ATOM      7  C   UNL     1      36.454 -19.167 -20.039  0.00  0.00    +0.103 C 
ATOM      8  C   UNL     1      34.846 -18.434 -21.337  0.00  0.00    +0.166 C 
ATOM      9  C   UNL     1      34.293 -16.357 -22.679  0.00  0.00    +0.310 C 
ATOM     10  H   UNL     1      32.500 -16.602 -23.616  0.00  0.00    +0.157 HD
ATOM     11  H   UNL     1      33.223 -18.098 -22.456  0.00  0.00    +0.158 HD
ENDROOT
BRANCH   3  13
ATOM     12  O   UNL     1      32.840 -12.523 -24.573  0.00  0.00    -0.452 OA
ATOM     13  C   UNL     1      33.082 -14.725 -24.192  0.00  0.00    +0.093 C 
ATOM     14  C   UNL     1      32.968 -13.481 -23.617  0.00  0.00    +0.229 C 
ATOM     15  C   UNL     1      33.018 -14.519 -25.592  0.00  0.00    +0.051 C 
ATOM     16  C   UNL     1      32.872 -13.163 -25.771  0.00  0.00    +0.125 C 
ATOM     17  C   UNL     1      32.745 -12.314 -26.964  0.00  0.00    +0.073 C 
BRANCH  14  21
ATOM     18  F   UNL     1      32.227 -13.786 -21.363  0.00  0.00    -0.163 F 
ATOM     19  F   UNL     1      34.204 -12.938 -21.642  0.00  0.00    -0.163 F 
ATOM     20  F   UNL     1      32.439 -11.745 -22.083  0.00  0.00    -0.163 F 
ATOM     21  C   UNL     1      32.961 -13.006 -22.225  0.00  0.00    +0.452 C 
ENDBRANCH  14  21
ENDBRANCH   3  13
BRANCH   6  22
ATOM     22  C   UNL     1      35.804 -21.577 -19.253  0.00  0.00    +0.056 C 
BRANCH  22  23
ATOM     23  C   UNL     1      35.096 -21.603 -17.900  0.00  0.00    +0.093 C 
BRANCH  23  24
ATOM     24  N   UNL     1      33.666 -21.718 -18.067  0.00  0.00    -0.321 N 
ATOM     25  H   UNL     1      33.267 -21.384 -18.903  0.00  0.00    +0.148 HD
ATOM     26  N   UNL     1      31.500 -22.330 -17.376  0.00  0.00    -0.234 NA
ATOM     27  N   UNL     1      33.075 -23.766 -13.821  0.00  0.00    -0.274 N 
ATOM     28  N   UNL     1      31.193 -23.369 -15.224  0.00  0.00    -0.233 NA
ATOM     29  N   UNL     1      34.622 -24.356 -12.103  0.00  0.00    -0.206 N 
ATOM     30  N   UNL     1      35.523 -23.419 -13.859  0.00  0.00    -0.193 NA
ATOM     31  N   UNL     1      35.929 -24.323 -11.798  0.00  0.00    -0.156 NA
ATOM     32  C   UNL     1      32.823 -22.271 -17.118  0.00  0.00    +0.110 C 
ATOM     33  C   UNL     1      33.398 -22.735 -15.952  0.00  0.00    +0.121 C 
ATOM     34  C   UNL     1      32.525 -23.280 -15.031  0.00  0.00    +0.115 C 
ATOM     35  C   UNL     1      30.754 -22.882 -16.401  0.00  0.00    +0.252 C 
ATOM     36  C   UNL     1      34.389 -23.817 -13.329  0.00  0.00    +0.207 C 
ATOM     37  C   UNL     1      36.430 -23.747 -12.893  0.00  0.00    +0.219 C 
ATOM     38  H   UNL     1      32.405 -24.142 -13.204  0.00  0.00    +0.156 HD
ATOM     39  H   UNL     1      33.923 -24.724 -11.515  0.00  0.00    +0.177 HD
ENDBRANCH  23  24
ENDBRANCH  22  23
ENDBRANCH   6  22
TORSDOF 5
ENDMDL
MODEL 8
REMARK VINA RESULT:     -10.6      0.985      3.015
REMARK  Name = 24875313
REMARK  5 active torsions:
REMARK  status: ('A' for Active; 'I' for Inactive)
REMARK    1  A    between atoms: N_3  and  C_13
REMARK    2  A    between atoms: C_6  and  C_22
REMARK    3  A    between atoms: C_14  and  C_21
REMARK    4  A    between atoms: C_22  and  C_23
REMARK    5  A    between atoms: C_23  and  N_24
REMARK                            x       y       z     vdW  Elec       q    Type
REMARK                         _______ _______ _______ _____ _____    ______ ____
ROOT
ATOM      1  S   UNL     1      34.255 -20.165 -20.748  0.00  0.00    -0.056 S 
ATOM      2  O   UNL     1      35.325 -15.880 -22.263  0.00  0.00    -0.252 OA
ATOM      3  N   UNL     1      33.286 -16.163 -23.372  0.00  0.00    -0.266 N 
ATOM      4  N   UNL     1      34.101 -17.869 -22.003  0.00  0.00    -0.248 N 
ATOM      5  N   UNL     1      36.024 -18.285 -20.612  0.00  0.00    -0.223 NA
ATOM      6  C   UNL     1      35.638 -20.433 -19.769  0.00  0.00    +0.031 C 
ATOM      7  C   UNL     1      36.462 -19.328 -19.819  0.00  0.00    +0.103 C 
ATOM      8  C   UNL     1      34.872 -18.615 -21.151  0.00  0.00    +0.166 C 
ATOM      9  C   UNL     1      34.336 -16.556 -22.526  0.00  0.00    +0.310 C 
ATOM     10  H   UNL     1      32.557 -16.815 -23.488  0.00  0.00    +0.157 HD
ATOM     11  H   UNL     1      33.266 -18.296 -22.299  0.00  0.00    +0.158 HD
ENDROOT
BRANCH   3  13
ATOM     12  O   UNL     1      32.903 -12.748 -24.488  0.00  0.00    -0.452 OA
ATOM     13  C   UNL     1      33.145 -14.945 -24.078  0.00  0.00    +0.093 C 
ATOM     14  C   UNL     1      33.019 -13.694 -23.519  0.00  0.00    +0.229 C 
ATOM     15  C   UNL     1      33.102 -14.755 -25.480  0.00  0.00    +0.051 C 
ATOM     16  C   UNL     1      32.955 -13.402 -25.678  0.00  0.00    +0.125 C 
ATOM     17  C   UNL     1      32.846 -12.567 -26.882  0.00  0.00    +0.073 C 
BRANCH  14  21
ATOM     18  F   UNL     1      32.609 -14.144 -21.206  0.00  0.00    -0.163 F 
ATOM     19  F   UNL     1      34.195 -12.738 -21.668  0.00  0.00    -0.163 F 
ATOM     20  F   UNL     1      32.117 -12.158 -21.944  0.00  0.00    -0.163 F 
ATOM     21  C   UNL     1      32.988 -13.202 -22.133  0.00  0.00    +0.452 C 
ENDBRANCH  14  21
ENDBRANCH   3  13
BRANCH   6  22
ATOM     22  C   UNL     1      35.805 -21.730 -19.015  0.00  0.00    +0.056 C 
BRANCH  22  23
ATOM     23  C   UNL     1      35.734 -21.556 -17.500  0.00  0.00    +0.093 C 
BRANCH  23  24
ATOM     24  N   UNL     1      34.391 -21.774 -17.016  0.00  0.00    -0.321 N 
ATOM     25  H   UNL     1      33.657 -21.277 -17.444  0.00  0.00    +0.148 HD
ATOM     26  N   UNL     1      32.787 -22.771 -15.610  0.00  0.00    -0.234 NA
ATOM     27  N   UNL     1      35.804 -24.913 -13.740  0.00  0.00    -0.274 N 
ATOM     28  N   UNL     1      33.497 -24.364 -13.947  0.00  0.00    -0.233 NA
ATOM     29  N   UNL     1      37.958 -25.765 -13.169  0.00  0.00    -0.206 N 
ATOM     30  N   UNL     1      37.956 -24.311 -14.799  0.00  0.00    -0.193 NA
ATOM     31  N   UNL     1      39.255 -25.674 -13.502  0.00  0.00    -0.156 NA
ATOM     32  C   UNL     1      34.077 -22.643 -15.984  0.00  0.00    +0.110 C 
ATOM     33  C   UNL     1      35.118 -23.332 -15.395  0.00  0.00    +0.121 C 
ATOM     34  C   UNL     1      34.765 -24.187 -14.372  0.00  0.00    +0.115 C 
ATOM     35  C   UNL     1      32.571 -23.636 -14.601  0.00  0.00    +0.252 C 
ATOM     36  C   UNL     1      37.193 -24.951 -13.943  0.00  0.00    +0.207 C 
ATOM     37  C   UNL     1      39.200 -24.782 -14.493  0.00  0.00    +0.219 C 
ATOM     38  H   UNL     1      35.492 -25.505 -13.019  0.00  0.00    +0.156 HD
ATOM     39  H   UNL     1      37.607 -26.345 -12.455  0.00  0.00    +0.177 HD
ENDBRANCH  23  24
ENDBRANCH  22  23
ENDBRANCH   6  22
TORSDOF 5
ENDMDL
MODEL 9
REMARK VINA RESULT:     -10.6      5.216     11.790
REMARK  Name = 24875313
REMARK  5 active torsions:
REMARK  status: ('A' for Active; 'I' for Inactive)
REMARK    1  A    between atoms: N_3  and  C_13
REMARK    2  A    between atoms: C_6  and  C_22
REMARK    3  A    between atoms: C_14  and  C_21
REMARK    4  A    between atoms: C_22  and  C_23
REMARK    5  A    between atoms: C_23  and  N_24
REMARK                            x       y       z     vdW  Elec       q    Type
REMARK                         _______ _______ _______ _____ _____    ______ ____
ROOT
ATOM      1  S   UNL     1      32.878 -19.437 -21.014  0.00  0.00    -0.056 S 
ATOM      2  O   UNL     1      33.383 -22.149 -17.248  0.00  0.00    -0.252 OA
ATOM      3  N   UNL     1      31.048 -22.029 -17.303  0.00  0.00    -0.266 N 
ATOM      4  N   UNL     1      32.300 -20.913 -18.927  0.00  0.00    -0.248 N 
ATOM      5  N   UNL     1      34.620 -20.590 -19.492  0.00  0.00    -0.223 NA
ATOM      6  C   UNL     1      34.538 -19.221 -21.387  0.00  0.00    +0.031 C 
ATOM      7  C   UNL     1      35.311 -19.906 -20.473  0.00  0.00    +0.103 C 
ATOM      8  C   UNL     1      33.331 -20.413 -19.677  0.00  0.00    +0.166 C 
ATOM      9  C   UNL     1      32.344 -21.746 -17.763  0.00  0.00    +0.310 C 
ATOM     10  H   UNL     1      30.310 -21.633 -17.822  0.00  0.00    +0.157 HD
ATOM     11  H   UNL     1      31.398 -20.664 -19.232  0.00  0.00    +0.158 HD
ENDROOT
BRANCH   3  13
ATOM     12  O   UNL     1      29.384 -23.879 -14.684  0.00  0.00    -0.452 OA
ATOM     13  C   UNL     1      30.670 -22.812 -16.188  0.00  0.00    +0.093 C 
ATOM     14  C   UNL     1      29.383 -23.101 -15.798  0.00  0.00    +0.229 C 
ATOM     15  C   UNL     1      31.517 -23.453 -15.251  0.00  0.00    +0.051 C 
ATOM     16  C   UNL     1      30.687 -24.088 -14.358  0.00  0.00    +0.125 C 
ATOM     17  C   UNL     1      30.933 -24.913 -13.167  0.00  0.00    +0.073 C 
BRANCH  14  21
ATOM     18  F   UNL     1      27.610 -23.581 -17.331  0.00  0.00    -0.163 F 
ATOM     19  F   UNL     1      27.048 -22.759 -15.404  0.00  0.00    -0.163 F 
ATOM     20  F   UNL     1      28.013 -21.491 -16.884  0.00  0.00    -0.163 F 
ATOM     21  C   UNL     1      28.060 -22.748 -16.334  0.00  0.00    +0.452 C 
ENDBRANCH  14  21
ENDBRANCH   3  13
BRANCH   6  22
ATOM     22  C   UNL     1      34.957 -18.383 -22.571  0.00  0.00    +0.056 C 
BRANCH  22  23
ATOM     23  C   UNL     1      34.126 -17.111 -22.728  0.00  0.00    +0.093 C 
BRANCH  23  24
ATOM     24  N   UNL     1      34.056 -16.707 -24.113  0.00  0.00    -0.321 N 
ATOM     25  H   UNL     1      34.359 -17.344 -24.799  0.00  0.00    +0.148 HD
ATOM     26  N   UNL     1      33.561 -15.198 -25.851  0.00  0.00    -0.234 NA
ATOM     27  N   UNL     1      32.258 -12.440 -23.044  0.00  0.00    -0.274 N 
ATOM     28  N   UNL     1      32.650 -13.032 -25.317  0.00  0.00    -0.233 NA
ATOM     29  N   UNL     1      31.704 -11.416 -20.961  0.00  0.00    -0.206 N 
ATOM     30  N   UNL     1      32.512 -13.439 -20.797  0.00  0.00    -0.193 NA
ATOM     31  N   UNL     1      31.705 -11.640 -19.639  0.00  0.00    -0.156 NA
ATOM     32  C   UNL     1      33.585 -15.473 -24.531  0.00  0.00    +0.110 C 
ATOM     33  C   UNL     1      33.162 -14.591 -23.556  0.00  0.00    +0.121 C 
ATOM     34  C   UNL     1      32.700 -13.374 -24.013  0.00  0.00    +0.115 C 
ATOM     35  C   UNL     1      33.089 -13.978 -26.170  0.00  0.00    +0.252 C 
ATOM     36  C   UNL     1      32.185 -12.489 -21.643  0.00  0.00    +0.207 C 
ATOM     37  C   UNL     1      32.203 -12.878 -19.592  0.00  0.00    +0.219 C 
ATOM     38  H   UNL     1      31.941 -11.590 -23.429  0.00  0.00    +0.156 HD
ATOM     39  H   UNL     1      31.394 -10.582 -21.384  0.00  0.00    +0.177 HD
ENDBRANCH  23  24
ENDBRANCH  22  23
ENDBRANCH   6  22
TORSDOF 5
ENDMDL
