MODEL 1
REMARK VINA RESULT:     -13.3      0.000      0.000
REMARK  Name = 25191001
REMARK  7 active torsions:
REMARK  status: ('A' for Active; 'I' for Inactive)
REMARK    1  A    between atoms: C_1  and  N_9
REMARK    2  A    between atoms: C_2  and  O_24
REMARK    3  A    between atoms: N_8  and  C_14
REMARK    4  A    between atoms: C_15  and  C_23
REMARK    5  A    between atoms: O_24  and  C_26
REMARK    6  A    between atoms: C_28  and  C_33
REMARK    7  A    between atoms: N_32  and  C_35
REMARK                            x       y       z     vdW  Elec       q    Type
REMARK                         _______ _______ _______ _____ _____    ______ ____
ROOT
ATOM      1  C   UNL     1      35.267 -20.316 -19.702  0.00  0.00    +0.052 C 
ATOM      2  C   UNL     1      35.178 -18.350 -21.680  0.00  0.00    +0.145 C 
ATOM      3  C   UNL     1      34.074 -20.060 -20.379  0.00  0.00    +0.018 C 
ATOM      4  C   UNL     1      36.415 -19.588 -20.015  0.00  0.00    +0.018 C 
ATOM      5  C   UNL     1      34.029 -19.078 -21.368  0.00  0.00    +0.039 C 
ATOM      6  C   UNL     1      36.371 -18.605 -21.004  0.00  0.00    +0.039 C 
ENDROOT
BRANCH   1   9
ATOM      7  O   UNL     1      36.678 -20.335 -17.070  0.00  0.00    -0.252 OA
ATOM      8  N   UNL     1      35.778 -22.476 -16.759  0.00  0.00    -0.268 N 
ATOM      9  N   UNL     1      35.312 -21.312 -18.698  0.00  0.00    -0.268 N 
ATOM     10  C   UNL     1      35.994 -21.272 -17.472  0.00  0.00    +0.308 C 
ATOM     11  H   UNL     1      35.205 -23.140 -17.207  0.00  0.00    +0.156 HD
ATOM     12  H   UNL     1      34.802 -22.133 -18.883  0.00  0.00    +0.156 HD
BRANCH   8  14
ATOM     13 CL   UNL     1      37.826 -24.026 -11.436  0.00  0.00    -0.082 Cl
ATOM     14  C   UNL     1      36.269 -22.846 -15.506  0.00  0.00    +0.052 C 
ATOM     15  C   UNL     1      37.944 -23.946 -14.157  0.00  0.00    +0.083 C 
ATOM     16  C   UNL     1      37.454 -23.576 -15.410  0.00  0.00    +0.019 C 
ATOM     17  C   UNL     1      35.574 -22.488 -14.352  0.00  0.00    +0.016 C 
ATOM     18  C   UNL     1      37.250 -23.587 -13.002  0.00  0.00    +0.062 C 
ATOM     19  C   UNL     1      36.064 -22.857 -13.100  0.00  0.00    +0.013 C 
BRANCH  15  23
ATOM     20  F   UNL     1      39.756 -24.989 -15.322  0.00  0.00    -0.166 F 
ATOM     21  F   UNL     1      40.208 -24.097 -13.398  0.00  0.00    -0.166 F 
ATOM     22  F   UNL     1      39.057 -25.939 -13.496  0.00  0.00    -0.166 F 
ATOM     23  C   UNL     1      39.218 -24.726 -14.096  0.00  0.00    +0.419 C 
ENDBRANCH  15  23
ENDBRANCH   8  14
ENDBRANCH   1   9
BRANCH   2  24
ATOM     24  O   UNL     1      35.134 -17.389 -22.643  0.00  0.00    -0.453 OA
BRANCH  24  26
ATOM     25  N   UNL     1      33.432 -13.707 -21.635  0.00  0.00    -0.239 NA
ATOM     26  C   UNL     1      34.571 -16.169 -22.310  0.00  0.00    +0.149 C 
ATOM     27  C   UNL     1      34.210 -15.270 -23.307  0.00  0.00    +0.061 C 
ATOM     28  C   UNL     1      33.649 -14.063 -22.921  0.00  0.00    +0.137 C 
ATOM     29  C   UNL     1      34.363 -15.839 -20.976  0.00  0.00    +0.058 C 
ATOM     30  C   UNL     1      33.796 -14.606 -20.693  0.00  0.00    +0.102 C 
BRANCH  28  33
ATOM     31  O   UNL     1      33.386 -11.867 -23.700  0.00  0.00    -0.269 OA
ATOM     32  N   UNL     1      32.748 -13.578 -25.129  0.00  0.00    -0.313 N 
ATOM     33  C   UNL     1      33.254 -13.085 -23.920  0.00  0.00    +0.263 C 
ATOM     34  H   UNL     1      32.670 -14.553 -25.237  0.00  0.00    +0.149 HD
ATOM     35  C   UNL     1      32.335 -12.735 -26.227  0.00  0.00    +0.128 C 
ENDBRANCH  28  33
ENDBRANCH  24  26
ENDBRANCH   2  24
TORSDOF 6
ENDMDL
MODEL 2
REMARK VINA RESULT:     -13.2      8.666     13.705
REMARK  Name = 25191001
REMARK  7 active torsions:
REMARK  status: ('A' for Active; 'I' for Inactive)
REMARK    1  A    between atoms: C_1  and  N_9
REMARK    2  A    between atoms: C_2  and  O_24
REMARK    3  A    between atoms: N_8  and  C_14
REMARK    4  A    between atoms: C_15  and  C_23
REMARK    5  A    between atoms: O_24  and  C_26
REMARK    6  A    between atoms: C_28  and  C_33
REMARK    7  A    between atoms: N_32  and  C_35
REMARK                            x       y       z     vdW  Elec       q    Type
REMARK                         _______ _______ _______ _____ _____    ______ ____
ROOT
ATOM      1  C   UNL     1      32.870 -13.530 -22.490  0.00  0.00    +0.052 C 
ATOM      2  C   UNL     1      34.263 -15.893 -23.003  0.00  0.00    +0.145 C 
ATOM      3  C   UNL     1      32.883 -14.068 -23.777  0.00  0.00    +0.018 C 
ATOM      4  C   UNL     1      33.554 -14.175 -21.459  0.00  0.00    +0.018 C 
ATOM      5  C   UNL     1      33.578 -15.249 -24.033  0.00  0.00    +0.039 C 
ATOM      6  C   UNL     1      34.251 -15.356 -21.715  0.00  0.00    +0.039 C 
ENDROOT
BRANCH   1   9
ATOM      7  O   UNL     1      33.327 -10.765 -23.522  0.00  0.00    -0.252 OA
ATOM      8  N   UNL     1      31.480 -10.126 -22.231  0.00  0.00    -0.268 N 
ATOM      9  N   UNL     1      32.165 -12.331 -22.230  0.00  0.00    -0.268 N 
ATOM     10  C   UNL     1      32.422 -11.050 -22.744  0.00  0.00    +0.308 C 
ATOM     11  H   UNL     1      30.809 -10.498 -21.614  0.00  0.00    +0.156 HD
ATOM     12  H   UNL     1      31.402 -12.405 -21.614  0.00  0.00    +0.156 HD
BRANCH   8  14
ATOM     13 CL   UNL     1      31.037  -4.337 -23.340  0.00  0.00    -0.082 Cl
ATOM     14  C   UNL     1      31.376  -8.757 -22.483  0.00  0.00    +0.052 C 
ATOM     15  C   UNL     1      31.328  -6.480 -21.681  0.00  0.00    +0.083 C 
ATOM     16  C   UNL     1      31.432  -7.847 -21.428  0.00  0.00    +0.019 C 
ATOM     17  C   UNL     1      31.216  -8.301 -23.791  0.00  0.00    +0.016 C 
ATOM     18  C   UNL     1      31.169  -6.021 -22.989  0.00  0.00    +0.062 C 
ATOM     19  C   UNL     1      31.112  -6.933 -24.044  0.00  0.00    +0.013 C 
BRANCH  15  23
ATOM     20  F   UNL     1      30.213  -4.899 -20.272  0.00  0.00    -0.166 F 
ATOM     21  F   UNL     1      31.731  -6.142 -19.347  0.00  0.00    -0.166 F 
ATOM     22  F   UNL     1      32.314  -4.548 -20.706  0.00  0.00    -0.166 F 
ATOM     23  C   UNL     1      31.394  -5.536 -20.523  0.00  0.00    +0.419 C 
ENDBRANCH  15  23
ENDBRANCH   8  14
ENDBRANCH   1   9
BRANCH   2  24
ATOM     24  O   UNL     1      34.944 -17.045 -23.253  0.00  0.00    -0.453 OA
BRANCH  24  26
ATOM     25  N   UNL     1      35.526 -19.692 -20.070  0.00  0.00    -0.239 NA
ATOM     26  C   UNL     1      35.136 -17.921 -22.198  0.00  0.00    +0.149 C 
ATOM     27  C   UNL     1      34.064 -18.642 -21.684  0.00  0.00    +0.061 C 
ATOM     28  C   UNL     1      34.308 -19.507 -20.630  0.00  0.00    +0.137 C 
ATOM     29  C   UNL     1      36.403 -18.085 -21.649  0.00  0.00    +0.058 C 
ATOM     30  C   UNL     1      36.544 -18.974 -20.595  0.00  0.00    +0.102 C 
BRANCH  28  33
ATOM     31  O   UNL     1      32.075 -20.211 -20.522  0.00  0.00    -0.269 OA
ATOM     32  N   UNL     1      33.546 -21.127 -18.981  0.00  0.00    -0.313 N 
ATOM     33  C   UNL     1      33.226 -20.286 -20.054  0.00  0.00    +0.263 C 
ATOM     34  H   UNL     1      34.477 -21.137 -18.661  0.00  0.00    +0.149 HD
ATOM     35  C   UNL     1      32.587 -21.980 -18.319  0.00  0.00    +0.128 C 
ENDBRANCH  28  33
ENDBRANCH  24  26
ENDBRANCH   2  24
TORSDOF 6
ENDMDL
MODEL 3
REMARK VINA RESULT:     -13.2      1.486      2.349
REMARK  Name = 25191001
REMARK  7 active torsions:
REMARK  status: ('A' for Active; 'I' for Inactive)
REMARK    1  A    between atoms: C_1  and  N_9
REMARK    2  A    between atoms: C_2  and  O_24
REMARK    3  A    between atoms: N_8  and  C_14
REMARK    4  A    between atoms: C_15  and  C_23
REMARK    5  A    between atoms: O_24  and  C_26
REMARK    6  A    between atoms: C_28  and  C_33
REMARK    7  A    between atoms: N_32  and  C_35
REMARK                            x       y       z     vdW  Elec       q    Type
REMARK                         _______ _______ _______ _____ _____    ______ ____
ROOT
ATOM      1  C   UNL     1      35.884 -19.438 -20.015  0.00  0.00    +0.052 C 
ATOM      2  C   UNL     1      34.906 -18.491 -22.450  0.00  0.00    +0.145 C 
ATOM      3  C   UNL     1      36.680 -18.619 -20.816  0.00  0.00    +0.018 C 
ATOM      4  C   UNL     1      34.598 -19.783 -20.432  0.00  0.00    +0.018 C 
ATOM      5  C   UNL     1      36.191 -18.145 -22.033  0.00  0.00    +0.039 C 
ATOM      6  C   UNL     1      34.108 -19.309 -21.650  0.00  0.00    +0.039 C 
ENDROOT
BRANCH   1   9
ATOM      7  O   UNL     1      35.087 -21.835 -18.421  0.00  0.00    -0.252 OA
ATOM      8  N   UNL     1      36.725 -21.182 -16.878  0.00  0.00    -0.268 N 
ATOM      9  N   UNL     1      36.381 -19.919 -18.781  0.00  0.00    -0.268 N 
ATOM     10  C   UNL     1      35.970 -21.057 -18.069  0.00  0.00    +0.308 C 
ATOM     11  H   UNL     1      37.401 -20.482 -16.726  0.00  0.00    +0.156 HD
ATOM     12  H   UNL     1      37.103 -19.392 -18.371  0.00  0.00    +0.156 HD
BRANCH   8  14
ATOM     13 CL   UNL     1      36.323 -25.333 -12.689  0.00  0.00    -0.082 Cl
ATOM     14  C   UNL     1      36.639 -22.164 -15.891  0.00  0.00    +0.052 C 
ATOM     15  C   UNL     1      37.661 -23.942 -14.614  0.00  0.00    +0.083 C 
ATOM     16  C   UNL     1      37.747 -22.960 -15.601  0.00  0.00    +0.019 C 
ATOM     17  C   UNL     1      35.445 -22.350 -15.194  0.00  0.00    +0.016 C 
ATOM     18  C   UNL     1      36.467 -24.128 -13.916  0.00  0.00    +0.062 C 
ATOM     19  C   UNL     1      35.358 -23.332 -14.208  0.00  0.00    +0.013 C 
BRANCH  15  23
ATOM     20  F   UNL     1      38.619 -26.115 -14.322  0.00  0.00    -0.166 F 
ATOM     21  F   UNL     1      39.871 -24.603 -15.244  0.00  0.00    -0.166 F 
ATOM     22  F   UNL     1      39.425 -24.493 -13.119  0.00  0.00    -0.166 F 
ATOM     23  C   UNL     1      38.871 -24.774 -14.332  0.00  0.00    +0.419 C 
ENDBRANCH  15  23
ENDBRANCH   8  14
ENDBRANCH   1   9
BRANCH   2  24
ATOM     24  O   UNL     1      34.429 -18.030 -23.639  0.00  0.00    -0.453 OA
BRANCH  24  26
ATOM     25  N   UNL     1      33.212 -14.036 -23.832  0.00  0.00    -0.239 NA
ATOM     26  C   UNL     1      34.025 -16.708 -23.702  0.00  0.00    +0.149 C 
ATOM     27  C   UNL     1      33.901 -15.959 -22.537  0.00  0.00    +0.061 C 
ATOM     28  C   UNL     1      33.495 -14.639 -22.654  0.00  0.00    +0.137 C 
ATOM     29  C   UNL     1      33.743 -16.123 -24.932  0.00  0.00    +0.058 C 
ATOM     30  C   UNL     1      33.343 -14.796 -24.943  0.00  0.00    +0.102 C 
BRANCH  28  33
ATOM     31  O   UNL     1      34.164 -13.894 -20.535  0.00  0.00    -0.269 OA
ATOM     32  N   UNL     1      32.275 -12.910 -21.452  0.00  0.00    -0.313 N 
ATOM     33  C   UNL     1      33.348 -13.809 -21.471  0.00  0.00    +0.263 C 
ATOM     34  H   UNL     1      31.667 -12.896 -22.226  0.00  0.00    +0.149 HD
ATOM     35  C   UNL     1      32.010 -12.003 -20.359  0.00  0.00    +0.128 C 
ENDBRANCH  28  33
ENDBRANCH  24  26
ENDBRANCH   2  24
TORSDOF 6
ENDMDL
MODEL 4
REMARK VINA RESULT:     -13.1      7.800     12.927
REMARK  Name = 25191001
REMARK  7 active torsions:
REMARK  status: ('A' for Active; 'I' for Inactive)
REMARK    1  A    between atoms: C_1  and  N_9
REMARK    2  A    between atoms: C_2  and  O_24
REMARK    3  A    between atoms: N_8  and  C_14
REMARK    4  A    between atoms: C_15  and  C_23
REMARK    5  A    between atoms: O_24  and  C_26
REMARK    6  A    between atoms: C_28  and  C_33
REMARK    7  A    between atoms: N_32  and  C_35
REMARK                            x       y       z     vdW  Elec       q    Type
REMARK                         _______ _______ _______ _____ _____    ______ ____
ROOT
ATOM      1  C   UNL     1      34.118 -15.569 -22.857  0.00  0.00    +0.052 C 
ATOM      2  C   UNL     1      34.958 -18.083 -21.985  0.00  0.00    +0.145 C 
ATOM      3  C   UNL     1      34.507 -15.754 -21.530  0.00  0.00    +0.018 C 
ATOM      4  C   UNL     1      34.148 -16.642 -23.747  0.00  0.00    +0.018 C 
ATOM      5  C   UNL     1      34.928 -17.010 -21.094  0.00  0.00    +0.039 C 
ATOM      6  C   UNL     1      34.568 -17.900 -23.312  0.00  0.00    +0.039 C 
ENDROOT
BRANCH   1   9
ATOM      7  O   UNL     1      33.396 -13.130 -21.290  0.00  0.00    -0.252 OA
ATOM      8  N   UNL     1      32.980 -12.098 -23.352  0.00  0.00    -0.268 N 
ATOM      9  N   UNL     1      33.690 -14.295 -23.298  0.00  0.00    -0.268 N 
ATOM     10  C   UNL     1      33.361 -13.176 -22.517  0.00  0.00    +0.308 C 
ATOM     11  H   UNL     1      33.000 -12.280 -24.320  0.00  0.00    +0.156 HD
ATOM     12  H   UNL     1      33.614 -14.179 -24.272  0.00  0.00    +0.156 HD
BRANCH   8  14
ATOM     13 CL   UNL     1      31.260  -6.664 -21.787  0.00  0.00    -0.082 Cl
ATOM     14  C   UNL     1      32.581 -10.811 -22.987  0.00  0.00    +0.052 C 
ATOM     15  C   UNL     1      32.930  -8.422 -23.031  0.00  0.00    +0.083 C 
ATOM     16  C   UNL     1      33.329  -9.707 -23.397  0.00  0.00    +0.019 C 
ATOM     17  C   UNL     1      31.436 -10.631 -22.212  0.00  0.00    +0.016 C 
ATOM     18  C   UNL     1      31.784  -8.239 -22.257  0.00  0.00    +0.062 C 
ATOM     19  C   UNL     1      31.037  -9.345 -21.847  0.00  0.00    +0.013 C 
BRANCH  15  23
ATOM     20  F   UNL     1      34.252  -6.509 -22.468  0.00  0.00    -0.166 F 
ATOM     21  F   UNL     1      34.847  -7.633 -24.224  0.00  0.00    -0.166 F 
ATOM     22  F   UNL     1      33.055  -6.403 -24.280  0.00  0.00    -0.166 F 
ATOM     23  C   UNL     1      33.757  -7.264 -23.491  0.00  0.00    +0.419 C 
ENDBRANCH  15  23
ENDBRANCH   8  14
ENDBRANCH   1   9
BRANCH   2  24
ATOM     24  O   UNL     1      35.365 -19.310 -21.560  0.00  0.00    -0.453 OA
BRANCH  24  26
ATOM     25  N   UNL     1      33.018 -21.249 -18.696  0.00  0.00    -0.239 NA
ATOM     26  C   UNL     1      34.589 -19.954 -20.611  0.00  0.00    +0.149 C 
ATOM     27  C   UNL     1      35.190 -20.613 -19.545  0.00  0.00    +0.061 C 
ATOM     28  C   UNL     1      34.368 -21.239 -18.622  0.00  0.00    +0.137 C 
ATOM     29  C   UNL     1      33.202 -19.941 -20.721  0.00  0.00    +0.058 C 
ATOM     30  C   UNL     1      32.468 -20.598 -19.746  0.00  0.00    +0.102 C 
BRANCH  28  33
ATOM     31  O   UNL     1      34.307 -22.853 -16.922  0.00  0.00    -0.269 OA
ATOM     32  N   UNL     1      36.231 -21.568 -17.091  0.00  0.00    -0.313 N 
ATOM     33  C   UNL     1      34.942 -21.943 -17.488  0.00  0.00    +0.263 C 
ATOM     34  H   UNL     1      36.675 -20.841 -17.582  0.00  0.00    +0.149 HD
ATOM     35  C   UNL     1      36.943 -22.189 -15.999  0.00  0.00    +0.128 C 
ENDBRANCH  28  33
ENDBRANCH  24  26
ENDBRANCH   2  24
TORSDOF 6
ENDMDL
MODEL 5
REMARK VINA RESULT:     -13.0      8.997     14.033
REMARK  Name = 25191001
REMARK  7 active torsions:
REMARK  status: ('A' for Active; 'I' for Inactive)
REMARK    1  A    between atoms: C_1  and  N_9
REMARK    2  A    between atoms: C_2  and  O_24
REMARK    3  A    between atoms: N_8  and  C_14
REMARK    4  A    between atoms: C_15  and  C_23
REMARK    5  A    between atoms: O_24  and  C_26
REMARK    6  A    between atoms: C_28  and  C_33
REMARK    7  A    between atoms: N_32  and  C_35
REMARK                            x       y       z     vdW  Elec       q    Type
REMARK                         _______ _______ _______ _____ _____    ______ ____
ROOT
ATOM      1  C   UNL     1      32.902 -13.460 -22.767  0.00  0.00    +0.052 C 
ATOM      2  C   UNL     1      34.128 -15.918 -23.254  0.00  0.00    +0.145 C 
ATOM      3  C   UNL     1      33.618 -14.096 -21.753  0.00  0.00    +0.018 C 
ATOM      4  C   UNL     1      32.799 -14.054 -24.025  0.00  0.00    +0.018 C 
ATOM      5  C   UNL     1      34.231 -15.324 -21.996  0.00  0.00    +0.039 C 
ATOM      6  C   UNL     1      33.412 -15.283 -24.269  0.00  0.00    +0.039 C 
ENDROOT
BRANCH   1   9
ATOM      7  O   UNL     1      33.758 -10.696 -23.508  0.00  0.00    -0.252 OA
ATOM      8  N   UNL     1      31.804  -9.955 -22.448  0.00  0.00    -0.268 N 
ATOM      9  N   UNL     1      32.278 -12.214 -22.519  0.00  0.00    -0.268 N 
ATOM     10  C   UNL     1      32.724 -10.936 -22.891  0.00  0.00    +0.308 C 
ATOM     11  H   UNL     1      31.017 -10.296 -21.964  0.00  0.00    +0.156 HD
ATOM     12  H   UNL     1      31.427 -12.248 -22.026  0.00  0.00    +0.156 HD
BRANCH   8  14
ATOM     13 CL   UNL     1      32.061  -4.084 -23.082  0.00  0.00    -0.082 Cl
ATOM     14  C   UNL     1      31.864  -8.570 -22.606  0.00  0.00    +0.052 C 
ATOM     15  C   UNL     1      31.776  -6.622 -24.033  0.00  0.00    +0.083 C 
ATOM     16  C   UNL     1      31.716  -8.007 -23.874  0.00  0.00    +0.019 C 
ATOM     17  C   UNL     1      32.071  -7.750 -21.498  0.00  0.00    +0.016 C 
ATOM     18  C   UNL     1      31.982  -5.801 -22.924  0.00  0.00    +0.062 C 
ATOM     19  C   UNL     1      32.130  -6.365 -21.656  0.00  0.00    +0.013 C 
BRANCH  15  23
ATOM     20  F   UNL     1      30.805  -4.958 -25.452  0.00  0.00    -0.166 F 
ATOM     21  F   UNL     1      32.789  -5.661 -25.975  0.00  0.00    -0.166 F 
ATOM     22  F   UNL     1      31.066  -6.953 -26.277  0.00  0.00    -0.166 F 
ATOM     23  C   UNL     1      31.613  -6.057 -25.407  0.00  0.00    +0.419 C 
ENDBRANCH  15  23
ENDBRANCH   8  14
ENDBRANCH   1   9
BRANCH   2  24
ATOM     24  O   UNL     1      34.725 -17.118 -23.492  0.00  0.00    -0.453 OA
BRANCH  24  26
ATOM     25  N   UNL     1      35.546 -19.568 -20.206  0.00  0.00    -0.239 NA
ATOM     26  C   UNL     1      34.996 -17.929 -22.402  0.00  0.00    +0.149 C 
ATOM     27  C   UNL     1      33.984 -18.690 -21.828  0.00  0.00    +0.061 C 
ATOM     28  C   UNL     1      34.307 -19.486 -20.741  0.00  0.00    +0.137 C 
ATOM     29  C   UNL     1      36.283 -17.987 -21.880  0.00  0.00    +0.058 C 
ATOM     30  C   UNL     1      36.505 -18.814 -20.790  0.00  0.00    +0.102 C 
BRANCH  28  33
ATOM     31  O   UNL     1      32.110 -20.266 -20.497  0.00  0.00    -0.269 OA
ATOM     32  N   UNL     1      33.705 -21.132 -19.053  0.00  0.00    -0.313 N 
ATOM     33  C   UNL     1      33.290 -20.302 -20.101  0.00  0.00    +0.263 C 
ATOM     34  H   UNL     1      34.653 -21.111 -18.791  0.00  0.00    +0.149 HD
ATOM     35  C   UNL     1      32.818 -22.018 -18.335  0.00  0.00    +0.128 C 
ENDBRANCH  28  33
ENDBRANCH  24  26
ENDBRANCH   2  24
TORSDOF 6
ENDMDL
MODEL 6
REMARK VINA RESULT:     -13.0      1.627      2.109
REMARK  Name = 25191001
REMARK  7 active torsions:
REMARK  status: ('A' for Active; 'I' for Inactive)
REMARK    1  A    between atoms: C_1  and  N_9
REMARK    2  A    between atoms: C_2  and  O_24
REMARK    3  A    between atoms: N_8  and  C_14
REMARK    4  A    between atoms: C_15  and  C_23
REMARK    5  A    between atoms: O_24  and  C_26
REMARK    6  A    between atoms: C_28  and  C_33
REMARK    7  A    between atoms: N_32  and  C_35
REMARK                            x       y       z     vdW  Elec       q    Type
REMARK                         _______ _______ _______ _____ _____    ______ ____
ROOT
ATOM      1  C   UNL     1      34.478 -21.104 -19.070  0.00  0.00    +0.052 C 
ATOM      2  C   UNL     1      35.056 -19.433 -21.229  0.00  0.00    +0.145 C 
ATOM      3  C   UNL     1      35.802 -20.779 -19.367  0.00  0.00    +0.018 C 
ATOM      4  C   UNL     1      33.443 -20.593 -19.854  0.00  0.00    +0.018 C 
ATOM      5  C   UNL     1      36.091 -19.943 -20.446  0.00  0.00    +0.039 C 
ATOM      6  C   UNL     1      33.732 -19.758 -20.934  0.00  0.00    +0.039 C 
ENDROOT
BRANCH   1   9
ATOM      7  O   UNL     1      35.754 -21.281 -16.375  0.00  0.00    -0.252 OA
ATOM      8  N   UNL     1      34.220 -22.992 -15.915  0.00  0.00    -0.268 N 
ATOM      9  N   UNL     1      34.186 -21.952 -17.977  0.00  0.00    -0.268 N 
ATOM     10  C   UNL     1      34.819 -21.996 -16.724  0.00  0.00    +0.308 C 
ATOM     11  H   UNL     1      33.478 -23.489 -16.329  0.00  0.00    +0.156 HD
ATOM     12  H   UNL     1      33.449 -22.590 -18.111  0.00  0.00    +0.156 HD
BRANCH   8  14
ATOM     13 CL   UNL     1      35.545 -24.552 -10.370  0.00  0.00    -0.082 Cl
ATOM     14  C   UNL     1      34.542 -23.362 -14.608  0.00  0.00    +0.052 C 
ATOM     15  C   UNL     1      36.177 -24.070 -12.977  0.00  0.00    +0.083 C 
ATOM     16  C   UNL     1      35.856 -23.701 -14.283  0.00  0.00    +0.019 C 
ATOM     17  C   UNL     1      33.550 -23.393 -13.629  0.00  0.00    +0.016 C 
ATOM     18  C   UNL     1      35.185 -24.101 -11.996  0.00  0.00    +0.062 C 
ATOM     19  C   UNL     1      33.871 -23.762 -12.323  0.00  0.00    +0.013 C 
BRANCH  15  23
ATOM     20  F   UNL     1      37.748 -25.696 -12.194  0.00  0.00    -0.166 F 
ATOM     21  F   UNL     1      38.424 -24.345 -13.750  0.00  0.00    -0.166 F 
ATOM     22  F   UNL     1      38.143 -23.610 -11.723  0.00  0.00    -0.166 F 
ATOM     23  C   UNL     1      37.595 -24.425 -12.668  0.00  0.00    +0.419 C 
ENDBRANCH  15  23
ENDBRANCH   8  14
ENDBRANCH   1   9
BRANCH   2  24
ATOM     24  O   UNL     1      35.337 -18.620 -22.284  0.00  0.00    -0.453 OA
BRANCH  24  26
ATOM     25  N   UNL     1      33.711 -14.769 -22.251  0.00  0.00    -0.239 NA
ATOM     26  C   UNL     1      34.799 -17.344 -22.274  0.00  0.00    +0.149 C 
ATOM     27  C   UNL     1      34.332 -16.773 -23.452  0.00  0.00    +0.061 C 
ATOM     28  C   UNL     1      33.801 -15.495 -23.388  0.00  0.00    +0.137 C 
ATOM     29  C   UNL     1      34.723 -16.630 -21.084  0.00  0.00    +0.058 C 
ATOM     30  C   UNL     1      34.176 -15.357 -21.125  0.00  0.00    +0.102 C 
BRANCH  28  33
ATOM     31  O   UNL     1      33.187 -15.488 -25.651  0.00  0.00    -0.269 OA
ATOM     32  N   UNL     1      32.927 -13.503 -24.480  0.00  0.00    -0.313 N 
ATOM     33  C   UNL     1      33.298 -14.849 -24.588  0.00  0.00    +0.263 C 
ATOM     34  H   UNL     1      33.041 -13.059 -23.610  0.00  0.00    +0.149 HD
ATOM     35  C   UNL     1      32.388 -12.732 -25.576  0.00  0.00    +0.128 C 
ENDBRANCH  28  33
ENDBRANCH  24  26
ENDBRANCH   2  24
TORSDOF 6
ENDMDL
MODEL 7
REMARK VINA RESULT:     -12.8      6.070     12.065
REMARK  Name = 25191001
REMARK  7 active torsions:
REMARK  status: ('A' for Active; 'I' for Inactive)
REMARK    1  A    between atoms: C_1  and  N_9
REMARK    2  A    between atoms: C_2  and  O_24
REMARK    3  A    between atoms: N_8  and  C_14
REMARK    4  A    between atoms: C_15  and  C_23
REMARK    5  A    between atoms: O_24  and  C_26
REMARK    6  A    between atoms: C_28  and  C_33
REMARK    7  A    between atoms: N_32  and  C_35
REMARK                            x       y       z     vdW  Elec       q    Type
REMARK                         _______ _______ _______ _____ _____    ______ ____
ROOT
ATOM      1  C   UNL     1      35.002 -20.898 -18.994  0.00  0.00    +0.052 C 
ATOM      2  C   UNL     1      34.450 -22.676 -16.915  0.00  0.00    +0.145 C 
ATOM      3  C   UNL     1      35.959 -21.139 -18.009  0.00  0.00    +0.018 C 
ATOM      4  C   UNL     1      33.768 -21.547 -18.939  0.00  0.00    +0.018 C 
ATOM      5  C   UNL     1      35.684 -22.028 -16.970  0.00  0.00    +0.039 C 
ATOM      6  C   UNL     1      33.491 -22.436 -17.899  0.00  0.00    +0.039 C 
ENDROOT
BRANCH   1   9
ATOM      7  O   UNL     1      33.231 -18.907 -20.344  0.00  0.00    -0.252 OA
ATOM      8  N   UNL     1      35.086 -18.363 -21.668  0.00  0.00    -0.268 N 
ATOM      9  N   UNL     1      35.280 -19.996 -20.047  0.00  0.00    -0.268 N 
ATOM     10  C   UNL     1      34.408 -19.075 -20.649  0.00  0.00    +0.308 C 
ATOM     11  H   UNL     1      36.031 -18.604 -21.802  0.00  0.00    +0.156 HD
ATOM     12  H   UNL     1      36.199 -20.016 -20.400  0.00  0.00    +0.156 HD
BRANCH   8  14
ATOM     13 CL   UNL     1      32.997 -14.152 -25.251  0.00  0.00    -0.082 Cl
ATOM     14  C   UNL     1      34.593 -17.362 -22.507  0.00  0.00    +0.052 C 
ATOM     15  C   UNL     1      33.887 -15.078 -22.848  0.00  0.00    +0.083 C 
ATOM     16  C   UNL     1      34.379 -16.077 -22.009  0.00  0.00    +0.019 C 
ATOM     17  C   UNL     1      34.313 -17.649 -23.843  0.00  0.00    +0.016 C 
ATOM     18  C   UNL     1      33.607 -15.363 -24.184  0.00  0.00    +0.062 C 
ATOM     19  C   UNL     1      33.820 -16.649 -24.682  0.00  0.00    +0.013 C 
BRANCH  15  23
ATOM     20  F   UNL     1      34.212 -13.552 -21.033  0.00  0.00    -0.166 F 
ATOM     21  F   UNL     1      34.214 -12.715 -23.034  0.00  0.00    -0.166 F 
ATOM     22  F   UNL     1      32.351 -13.403 -22.148  0.00  0.00    -0.166 F 
ATOM     23  C   UNL     1      33.672 -13.713 -22.276  0.00  0.00    +0.419 C 
ENDBRANCH  15  23
ENDBRANCH   8  14
ENDBRANCH   1   9
BRANCH   2  24
ATOM     24  O   UNL     1      34.180 -23.542 -15.900  0.00  0.00    -0.453 OA
BRANCH  24  26
ATOM     25  N   UNL     1      37.037 -23.936 -12.874  0.00  0.00    -0.239 NA
ATOM     26  C   UNL     1      35.126 -23.674 -14.897  0.00  0.00    +0.149 C 
ATOM     27  C   UNL     1      36.117 -24.644 -14.995  0.00  0.00    +0.061 C 
ATOM     28  C   UNL     1      37.041 -24.734 -13.966  0.00  0.00    +0.137 C 
ATOM     29  C   UNL     1      35.089 -22.834 -13.790  0.00  0.00    +0.058 C 
ATOM     30  C   UNL     1      36.058 -23.004 -12.814  0.00  0.00    +0.102 C 
BRANCH  28  33
ATOM     31  O   UNL     1      37.831 -26.924 -14.239  0.00  0.00    -0.269 OA
ATOM     32  N   UNL     1      39.409 -25.276 -13.824  0.00  0.00    -0.313 N 
ATOM     33  C   UNL     1      38.098 -25.729 -14.015  0.00  0.00    +0.263 C 
ATOM     34  H   UNL     1      39.549 -24.317 -13.651  0.00  0.00    +0.149 HD
ATOM     35  C   UNL     1      40.568 -26.137 -13.868  0.00  0.00    +0.128 C 
ENDBRANCH  28  33
ENDBRANCH  24  26
ENDBRANCH   2  24
TORSDOF 6
ENDMDL
MODEL 8
REMARK VINA RESULT:     -12.7      6.604     11.151
REMARK  Name = 25191001
REMARK  7 active torsions:
REMARK  status: ('A' for Active; 'I' for Inactive)
REMARK    1  A    between atoms: C_1  and  N_9
REMARK    2  A    between atoms: C_2  and  O_24
REMARK    3  A    between atoms: N_8  and  C_14
REMARK    4  A    between atoms: C_15  and  C_23
REMARK    5  A    between atoms: O_24  and  C_26
REMARK    6  A    between atoms: C_28  and  C_33
REMARK    7  A    between atoms: N_32  and  C_35
REMARK                            x       y       z     vdW  Elec       q    Type
REMARK                         _______ _______ _______ _____ _____    ______ ____
ROOT
ATOM      1  C   UNL     1      35.143 -20.749 -19.154  0.00  0.00    +0.052 C 
ATOM      2  C   UNL     1      34.642 -22.595 -17.123  0.00  0.00    +0.145 C 
ATOM      3  C   UNL     1      36.049 -20.893 -18.102  0.00  0.00    +0.018 C 
ATOM      4  C   UNL     1      33.987 -21.528 -19.189  0.00  0.00    +0.018 C 
ATOM      5  C   UNL     1      35.799 -21.816 -17.087  0.00  0.00    +0.039 C 
ATOM      6  C   UNL     1      33.736 -22.452 -18.174  0.00  0.00    +0.039 C 
ENDROOT
BRANCH   1   9
ATOM      7  O   UNL     1      33.306 -18.806 -20.484  0.00  0.00    -0.252 OA
ATOM      8  N   UNL     1      35.152 -18.152 -21.769  0.00  0.00    -0.268 N 
ATOM      9  N   UNL     1      35.396 -19.811 -20.182  0.00  0.00    -0.268 N 
ATOM     10  C   UNL     1      34.493 -18.916 -20.776  0.00  0.00    +0.308 C 
ATOM     11  H   UNL     1      36.109 -18.349 -21.895  0.00  0.00    +0.156 HD
ATOM     12  H   UNL     1      36.319 -19.783 -20.523  0.00  0.00    +0.156 HD
BRANCH   8  14
ATOM     13 CL   UNL     1      32.928 -13.955 -25.287  0.00  0.00    -0.082 Cl
ATOM     14  C   UNL     1      34.627 -17.155 -22.593  0.00  0.00    +0.052 C 
ATOM     15  C   UNL     1      33.870 -14.882 -22.904  0.00  0.00    +0.083 C 
ATOM     16  C   UNL     1      34.394 -15.878 -22.081  0.00  0.00    +0.019 C 
ATOM     17  C   UNL     1      34.335 -17.436 -23.927  0.00  0.00    +0.016 C 
ATOM     18  C   UNL     1      33.577 -15.162 -24.239  0.00  0.00    +0.062 C 
ATOM     19  C   UNL     1      33.810 -16.440 -24.751  0.00  0.00    +0.013 C 
BRANCH  15  23
ATOM     20  F   UNL     1      34.180 -12.514 -23.053  0.00  0.00    -0.166 F 
ATOM     21  F   UNL     1      32.314 -13.210 -22.194  0.00  0.00    -0.166 F 
ATOM     22  F   UNL     1      34.163 -13.401 -21.068  0.00  0.00    -0.166 F 
ATOM     23  C   UNL     1      33.635 -13.527 -22.318  0.00  0.00    +0.419 C 
ENDBRANCH  15  23
ENDBRANCH   8  14
ENDBRANCH   1   9
BRANCH   2  24
ATOM     24  O   UNL     1      34.397 -23.495 -16.131  0.00  0.00    -0.453 OA
BRANCH  24  26
ATOM     25  N   UNL     1      30.922 -22.991 -13.863  0.00  0.00    -0.239 NA
ATOM     26  C   UNL     1      33.245 -23.327 -15.380  0.00  0.00    +0.149 C 
ATOM     27  C   UNL     1      32.059 -22.945 -15.996  0.00  0.00    +0.061 C 
ATOM     28  C   UNL     1      30.935 -22.792 -15.200  0.00  0.00    +0.137 C 
ATOM     29  C   UNL     1      33.272 -23.541 -14.007  0.00  0.00    +0.058 C 
ATOM     30  C   UNL     1      32.094 -23.361 -13.299  0.00  0.00    +0.102 C 
BRANCH  28  33
ATOM     31  O   UNL     1      29.621 -21.969 -16.959  0.00  0.00    -0.269 OA
ATOM     32  N   UNL     1      28.523 -22.536 -14.996  0.00  0.00    -0.313 N 
ATOM     33  C   UNL     1      29.668 -22.394 -15.790  0.00  0.00    +0.263 C 
ATOM     34  H   UNL     1      28.633 -22.879 -14.080  0.00  0.00    +0.149 HD
ATOM     35  C   UNL     1      27.191 -22.207 -15.448  0.00  0.00    +0.128 C 
ENDBRANCH  28  33
ENDBRANCH  24  26
ENDBRANCH   2  24
TORSDOF 6
ENDMDL
MODEL 9
REMARK VINA RESULT:     -12.5      6.702     12.078
REMARK  Name = 25191001
REMARK  7 active torsions:
REMARK  status: ('A' for Active; 'I' for Inactive)
REMARK    1  A    between atoms: C_1  and  N_9
REMARK    2  A    between atoms: C_2  and  O_24
REMARK    3  A    between atoms: N_8  and  C_14
REMARK    4  A    between atoms: C_15  and  C_23
REMARK    5  A    between atoms: O_24  and  C_26
REMARK    6  A    between atoms: C_28  and  C_33
REMARK    7  A    between atoms: N_32  and  C_35
REMARK                            x       y       z     vdW  Elec       q    Type
REMARK                         _______ _______ _______ _____ _____    ______ ____
ROOT
ATOM      1  C   UNL     1      34.737 -17.797 -21.719  0.00  0.00    +0.052 C 
ATOM      2  C   UNL     1      35.762 -19.952 -20.274  0.00  0.00    +0.145 C 
ATOM      3  C   UNL     1      33.899 -18.845 -21.340  0.00  0.00    +0.018 C 
ATOM      4  C   UNL     1      36.089 -17.827 -21.376  0.00  0.00    +0.018 C 
ATOM      5  C   UNL     1      34.411 -19.922 -20.617  0.00  0.00    +0.039 C 
ATOM      6  C   UNL     1      36.602 -18.904 -20.653  0.00  0.00    +0.039 C 
ENDROOT
BRANCH   1   9
ATOM      7  O   UNL     1      34.246 -14.972 -20.883  0.00  0.00    -0.252 OA
ATOM      8  N   UNL     1      33.468 -14.607 -23.063  0.00  0.00    -0.268 N 
ATOM      9  N   UNL     1      34.218 -16.705 -22.454  0.00  0.00    -0.268 N 
ATOM     10  C   UNL     1      34.005 -15.390 -22.012  0.00  0.00    +0.308 C 
ATOM     11  H   UNL     1      33.327 -15.078 -23.916  0.00  0.00    +0.156 HD
ATOM     12  H   UNL     1      33.975 -16.891 -23.389  0.00  0.00    +0.156 HD
BRANCH   8  14
ATOM     13 CL   UNL     1      31.984  -8.886 -23.045  0.00  0.00    -0.082 Cl
ATOM     14  C   UNL     1      33.113 -13.258 -23.051  0.00  0.00    +0.052 C 
ATOM     15  C   UNL     1      32.055 -11.383 -21.955  0.00  0.00    +0.083 C 
ATOM     16  C   UNL     1      32.409 -12.732 -21.967  0.00  0.00    +0.019 C 
ATOM     17  C   UNL     1      33.463 -12.436 -24.122  0.00  0.00    +0.016 C 
ATOM     18  C   UNL     1      32.405 -10.560 -23.026  0.00  0.00    +0.062 C 
ATOM     19  C   UNL     1      33.109 -11.087 -24.110  0.00  0.00    +0.013 C 
BRANCH  15  23
ATOM     20  F   UNL     1      31.446 -11.620 -19.653  0.00  0.00    -0.166 F 
ATOM     21  F   UNL     1      31.680  -9.599 -20.406  0.00  0.00    -0.166 F 
ATOM     22  F   UNL     1      29.959 -10.787 -21.004  0.00  0.00    -0.166 F 
ATOM     23  C   UNL     1      31.301 -10.858 -20.776  0.00  0.00    +0.419 C 
ENDBRANCH  15  23
ENDBRANCH   8  14
ENDBRANCH   1   9
BRANCH   2  24
ATOM     24  O   UNL     1      36.264 -21.004 -19.570  0.00  0.00    -0.453 OA
BRANCH  24  26
ATOM     25  N   UNL     1      34.007 -22.439 -16.357  0.00  0.00    -0.239 NA
ATOM     26  C   UNL     1      35.517 -21.480 -18.506  0.00  0.00    +0.149 C 
ATOM     27  C   UNL     1      36.106 -21.645 -17.257  0.00  0.00    +0.061 C 
ATOM     28  C   UNL     1      35.316 -22.123 -16.224  0.00  0.00    +0.137 C 
ATOM     29  C   UNL     1      34.174 -21.794 -18.682  0.00  0.00    +0.058 C 
ATOM     30  C   UNL     1      33.469 -22.267 -17.586  0.00  0.00    +0.102 C 
BRANCH  28  33
ATOM     31  O   UNL     1      37.072 -22.042 -14.673  0.00  0.00    -0.269 OA
ATOM     32  N   UNL     1      35.016 -22.788 -13.903  0.00  0.00    -0.313 N 
ATOM     33  C   UNL     1      35.878 -22.314 -14.899  0.00  0.00    +0.263 C 
ATOM     34  H   UNL     1      34.084 -22.984 -14.150  0.00  0.00    +0.149 HD
ATOM     35  C   UNL     1      35.419 -23.007 -12.533  0.00  0.00    +0.128 C 
ENDBRANCH  28  33
ENDBRANCH  24  26
ENDBRANCH   2  24
TORSDOF 6
ENDMDL
