MODEL 1
REMARK VINA RESULT:     -11.8      0.000      0.000
REMARK  Name = 67171867
REMARK  8 active torsions:
REMARK  status: ('A' for Active; 'I' for Inactive)
REMARK    1  A    between atoms: C_1  and  N_4
REMARK    2  A    between atoms: C_1  and  C_17
REMARK    3  A    between atoms: C_5  and  C_9
REMARK    4  A    between atoms: C_10  and  C_13
REMARK    5  A    between atoms: C_13  and  O_15
REMARK    6  A    between atoms: C_17  and  N_18
REMARK    7  A    between atoms: C_21  and  C_24
REMARK    8  A    between atoms: C_29  and  C_31
REMARK                            x       y       z     vdW  Elec       q    Type
REMARK                         _______ _______ _______ _____ _____    ______ ____
ROOT
ATOM      1  C   UNL     1      35.155 -20.243 -20.232  0.00  0.00    +0.094 C 
ATOM      2  C   UNL     1      33.672 -19.884 -20.242  0.00  0.00    +0.023 C 
ENDROOT
BRANCH   1   4
ATOM      3  O   UNL     1      34.225 -22.496 -18.713  0.00  0.00    -0.268 OA
ATOM      4  N   UNL     1      35.561 -20.609 -18.894  0.00  0.00    -0.299 N 
ATOM      5  C   UNL     1      35.052 -21.721 -18.241  0.00  0.00    +0.265 C 
ATOM      6  H   UNL     1      36.223 -20.049 -18.429  0.00  0.00    +0.150 HD
BRANCH   5   9
ATOM      7  N   UNL     1      36.872 -21.895 -15.230  0.00  0.00    -0.238 N 
ATOM      8  N   UNL     1      36.773 -21.527 -16.518  0.00  0.00    -0.177 NA
ATOM      9  C   UNL     1      35.551 -21.946 -16.860  0.00  0.00    +0.153 C 
ATOM     10  C   UNL     1      35.763 -22.527 -14.750  0.00  0.00    +0.071 C 
ATOM     11  C   UNL     1      34.876 -22.576 -15.798  0.00  0.00    +0.039 C 
ATOM     12  H   UNL     1      37.672 -21.724 -14.682  0.00  0.00    +0.174 HD
BRANCH  10  13
ATOM     13  C   UNL     1      35.673 -23.010 -13.363  0.00  0.00    +0.147 C 
ATOM     14  C   UNL     1      36.104 -24.478 -13.197  0.00  0.00    +0.038 C 
BRANCH  13  15
ATOM     15  O   UNL     1      34.328 -22.880 -12.865  0.00  0.00    -0.379 OA
ATOM     16  H   UNL     1      33.729 -22.682 -13.601  0.00  0.00    +0.211 HD
ENDBRANCH  13  15
ENDBRANCH  10  13
ENDBRANCH   5   9
ENDBRANCH   1   4
BRANCH   1  17
ATOM     17  C   UNL     1      35.999 -19.078 -20.769  0.00  0.00    +0.136 C 
BRANCH  17  18
ATOM     18  N   UNL     1      35.270 -18.242 -21.794  0.00  0.00    -0.209 N 
ATOM     19  N   UNL     1      35.026 -16.943 -21.546  0.00  0.00    -0.178 NA
ATOM     20  C   UNL     1      34.807 -18.668 -23.003  0.00  0.00    +0.086 C 
ATOM     21  C   UNL     1      34.385 -16.540 -22.645  0.00  0.00    +0.100 C 
ATOM     22  C   UNL     1      34.219 -17.573 -23.587  0.00  0.00    +0.038 C 
BRANCH  21  24
ATOM     23 CL   UNL     1      32.526 -12.846 -25.690  0.00  0.00    -0.082 Cl
ATOM     24  C   UNL     1      33.939 -15.177 -22.775  0.00  0.00    +0.020 C 
ATOM     25  C   UNL     1      33.497 -14.702 -24.010  0.00  0.00    +0.014 C 
ATOM     26  C   UNL     1      33.947 -14.333 -21.666  0.00  0.00    +0.002 C 
ATOM     27  C   UNL     1      33.064 -13.382 -24.136  0.00  0.00    +0.067 C 
ATOM     28  C   UNL     1      33.514 -13.012 -21.791  0.00  0.00    +0.011 C 
ATOM     29  C   UNL     1      33.072 -12.538 -23.026  0.00  0.00    +0.079 C 
BRANCH  29  31
ATOM     30  N   UNL     1      32.284 -10.072 -23.180  0.00  0.00    -0.191 NA
ATOM     31  C   UNL     1      32.637 -11.175 -23.111  0.00  0.00    +0.101 C 
ENDBRANCH  29  31
ENDBRANCH  21  24
ENDBRANCH  17  18
ENDBRANCH   1  17
TORSDOF 8
ENDMDL
MODEL 2
REMARK VINA RESULT:     -11.7      1.653      1.725
REMARK  Name = 67171867
REMARK  8 active torsions:
REMARK  status: ('A' for Active; 'I' for Inactive)
REMARK    1  A    between atoms: C_1  and  N_4
REMARK    2  A    between atoms: C_1  and  C_17
REMARK    3  A    between atoms: C_5  and  C_9
REMARK    4  A    between atoms: C_10  and  C_13
REMARK    5  A    between atoms: C_13  and  O_15
REMARK    6  A    between atoms: C_17  and  N_18
REMARK    7  A    between atoms: C_21  and  C_24
REMARK    8  A    between atoms: C_29  and  C_31
REMARK                            x       y       z     vdW  Elec       q    Type
REMARK                         _______ _______ _______ _____ _____    ______ ____
ROOT
ATOM      1  C   UNL     1      34.220 -20.710 -19.868  0.00  0.00    +0.094 C 
ATOM      2  C   UNL     1      32.846 -20.159 -20.241  0.00  0.00    +0.023 C 
ENDROOT
BRANCH   1   4
ATOM      3  O   UNL     1      33.138 -23.213 -18.969  0.00  0.00    -0.268 OA
ATOM      4  N   UNL     1      34.198 -21.203 -18.510  0.00  0.00    -0.299 N 
ATOM      5  C   UNL     1      33.650 -22.430 -18.174  0.00  0.00    +0.265 C 
ATOM      6  H   UNL     1      34.587 -20.646 -17.797  0.00  0.00    +0.150 HD
BRANCH   5   9
ATOM      7  N   UNL     1      34.497 -23.236 -14.850  0.00  0.00    -0.238 N 
ATOM      8  N   UNL     1      34.855 -22.930 -16.108  0.00  0.00    -0.177 NA
ATOM      9  C   UNL     1      33.682 -22.781 -16.730  0.00  0.00    +0.153 C 
ATOM     10  C   UNL     1      33.148 -23.285 -14.658  0.00  0.00    +0.071 C 
ATOM     11  C   UNL     1      32.584 -22.990 -15.875  0.00  0.00    +0.039 C 
ATOM     12  H   UNL     1      35.149 -23.408 -14.132  0.00  0.00    +0.174 HD
BRANCH  10  13
ATOM     13  C   UNL     1      32.552 -23.605 -13.351  0.00  0.00    +0.147 C 
ATOM     14  C   UNL     1      31.412 -24.636 -13.434  0.00  0.00    +0.038 C 
BRANCH  13  15
ATOM     15  O   UNL     1      32.035 -22.417 -12.723  0.00  0.00    -0.379 OA
ATOM     16  H   UNL     1      32.451 -22.302 -11.855  0.00  0.00    +0.211 HD
ENDBRANCH  13  15
ENDBRANCH  10  13
ENDBRANCH   5   9
ENDBRANCH   1   4
BRANCH   1  17
ATOM     17  C   UNL     1      35.303 -19.637 -20.052  0.00  0.00    +0.136 C 
BRANCH  17  18
ATOM     18  N   UNL     1      35.035 -18.720 -21.224  0.00  0.00    -0.209 N 
ATOM     19  N   UNL     1      34.648 -17.452 -21.004  0.00  0.00    -0.178 NA
ATOM     20  C   UNL     1      35.147 -19.042 -22.543  0.00  0.00    +0.086 C 
ATOM     21  C   UNL     1      34.512 -16.960 -22.237  0.00  0.00    +0.100 C 
ATOM     22  C   UNL     1      34.809 -17.906 -23.236  0.00  0.00    +0.038 C 
BRANCH  21  24
ATOM     23 CL   UNL     1      32.786 -13.377 -25.487  0.00  0.00    -0.082 Cl
ATOM     24  C   UNL     1      34.100 -15.595 -22.440  0.00  0.00    +0.020 C 
ATOM     25  C   UNL     1      33.688 -15.170 -23.704  0.00  0.00    +0.014 C 
ATOM     26  C   UNL     1      34.108 -14.699 -21.372  0.00  0.00    +0.002 C 
ATOM     27  C   UNL     1      33.286 -13.849 -23.899  0.00  0.00    +0.067 C 
ATOM     28  C   UNL     1      33.706 -13.377 -21.567  0.00  0.00    +0.011 C 
ATOM     29  C   UNL     1      33.295 -12.953 -22.831  0.00  0.00    +0.079 C 
BRANCH  29  31
ATOM     30  N   UNL     1      32.564 -10.481 -23.116  0.00  0.00    -0.191 NA
ATOM     31  C   UNL     1      32.891 -11.587 -22.988  0.00  0.00    +0.101 C 
ENDBRANCH  29  31
ENDBRANCH  21  24
ENDBRANCH  17  18
ENDBRANCH   1  17
TORSDOF 8
ENDMDL
MODEL 3
REMARK VINA RESULT:     -11.7      2.817      3.683
REMARK  Name = 67171867
REMARK  8 active torsions:
REMARK  status: ('A' for Active; 'I' for Inactive)
REMARK    1  A    between atoms: C_1  and  N_4
REMARK    2  A    between atoms: C_1  and  C_17
REMARK    3  A    between atoms: C_5  and  C_9
REMARK    4  A    between atoms: C_10  and  C_13
REMARK    5  A    between atoms: C_13  and  O_15
REMARK    6  A    between atoms: C_17  and  N_18
REMARK    7  A    between atoms: C_21  and  C_24
REMARK    8  A    between atoms: C_29  and  C_31
REMARK                            x       y       z     vdW  Elec       q    Type
REMARK                         _______ _______ _______ _____ _____    ______ ____
ROOT
ATOM      1  C   UNL     1      35.615 -17.785 -21.577  0.00  0.00    +0.094 C 
ATOM      2  C   UNL     1      37.097 -18.114 -21.731  0.00  0.00    +0.023 C 
ENDROOT
BRANCH   1   4
ATOM      3  O   UNL     1      33.282 -19.377 -22.098  0.00  0.00    -0.268 OA
ATOM      4  N   UNL     1      34.994 -18.728 -20.675  0.00  0.00    -0.299 N 
ATOM      5  C   UNL     1      33.864 -19.452 -21.020  0.00  0.00    +0.265 C 
ATOM      6  H   UNL     1      35.388 -18.861 -19.783  0.00  0.00    +0.150 HD
BRANCH   5   9
ATOM      7  N   UNL     1      31.921 -21.289 -18.725  0.00  0.00    -0.238 N 
ATOM      8  N   UNL     1      32.025 -20.368 -19.699  0.00  0.00    -0.177 NA
ATOM      9  C   UNL     1      33.333 -20.361 -19.972  0.00  0.00    +0.153 C 
ATOM     10  C   UNL     1      33.110 -21.859 -18.377  0.00  0.00    +0.071 C 
ATOM     11  C   UNL     1      34.058 -21.271 -19.179  0.00  0.00    +0.039 C 
ATOM     12  H   UNL     1      31.065 -21.530 -18.303  0.00  0.00    +0.174 HD
BRANCH  10  13
ATOM     13  C   UNL     1      33.210 -22.889 -17.331  0.00  0.00    +0.147 C 
ATOM     14  C   UNL     1      32.099 -22.793 -16.270  0.00  0.00    +0.038 C 
BRANCH  13  15
ATOM     15  O   UNL     1      34.480 -22.808 -16.658  0.00  0.00    -0.379 OA
ATOM     16  H   UNL     1      34.367 -23.046 -15.725  0.00  0.00    +0.211 HD
ENDBRANCH  13  15
ENDBRANCH  10  13
ENDBRANCH   5   9
ENDBRANCH   1   4
BRANCH   1  17
ATOM     17  C   UNL     1      34.915 -17.781 -22.944  0.00  0.00    +0.136 C 
BRANCH  17  18
ATOM     18  N   UNL     1      34.312 -16.441 -23.296  0.00  0.00    -0.209 N 
ATOM     19  N   UNL     1      33.872 -15.630 -22.319  0.00  0.00    -0.178 NA
ATOM     20  C   UNL     1      34.155 -15.930 -24.550  0.00  0.00    +0.086 C 
ATOM     21  C   UNL     1      33.420 -14.567 -22.990  0.00  0.00    +0.100 C 
ATOM     22  C   UNL     1      33.570 -14.699 -24.383  0.00  0.00    +0.038 C 
BRANCH  21  24
ATOM     23 CL   UNL     1      31.795  -9.698 -23.167  0.00  0.00    -0.082 Cl
ATOM     24  C   UNL     1      32.852 -13.445 -22.288  0.00  0.00    +0.020 C 
ATOM     25  C   UNL     1      32.617 -12.246 -22.962  0.00  0.00    +0.014 C 
ATOM     26  C   UNL     1      32.533 -13.559 -20.935  0.00  0.00    +0.002 C 
ATOM     27  C   UNL     1      32.065 -11.160 -22.283  0.00  0.00    +0.067 C 
ATOM     28  C   UNL     1      31.980 -12.473 -20.255  0.00  0.00    +0.011 C 
ATOM     29  C   UNL     1      31.746 -11.274 -20.930  0.00  0.00    +0.079 C 
BRANCH  29  31
ATOM     30  N   UNL     1      30.719  -9.300 -19.598  0.00  0.00    -0.191 NA
ATOM     31  C   UNL     1      31.179 -10.184 -20.194  0.00  0.00    +0.101 C 
ENDBRANCH  29  31
ENDBRANCH  21  24
ENDBRANCH  17  18
ENDBRANCH   1  17
TORSDOF 8
ENDMDL
MODEL 4
REMARK VINA RESULT:     -11.6      2.999      4.019
REMARK  Name = 67171867
REMARK  8 active torsions:
REMARK  status: ('A' for Active; 'I' for Inactive)
REMARK    1  A    between atoms: C_1  and  N_4
REMARK    2  A    between atoms: C_1  and  C_17
REMARK    3  A    between atoms: C_5  and  C_9
REMARK    4  A    between atoms: C_10  and  C_13
REMARK    5  A    between atoms: C_13  and  O_15
REMARK    6  A    between atoms: C_17  and  N_18
REMARK    7  A    between atoms: C_21  and  C_24
REMARK    8  A    between atoms: C_29  and  C_31
REMARK                            x       y       z     vdW  Elec       q    Type
REMARK                         _______ _______ _______ _____ _____    ______ ____
ROOT
ATOM      1  C   UNL     1      35.882 -17.697 -21.358  0.00  0.00    +0.094 C 
ATOM      2  C   UNL     1      36.969 -18.425 -22.143  0.00  0.00    +0.023 C 
ENDROOT
BRANCH   1   4
ATOM      3  O   UNL     1      33.696 -19.378 -22.160  0.00  0.00    -0.268 OA
ATOM      4  N   UNL     1      35.165 -18.637 -20.526  0.00  0.00    -0.299 N 
ATOM      5  C   UNL     1      34.118 -19.406 -21.008  0.00  0.00    +0.265 C 
ATOM      6  H   UNL     1      35.430 -18.733 -19.583  0.00  0.00    +0.150 HD
BRANCH   5   9
ATOM      7  N   UNL     1      31.926 -21.171 -18.888  0.00  0.00    -0.238 N 
ATOM      8  N   UNL     1      32.147 -20.236 -19.827  0.00  0.00    -0.177 NA
ATOM      9  C   UNL     1      33.467 -20.305 -20.020  0.00  0.00    +0.153 C 
ATOM     10  C   UNL     1      33.054 -21.823 -18.484  0.00  0.00    +0.071 C 
ATOM     11  C   UNL     1      34.084 -21.277 -19.209  0.00  0.00    +0.039 C 
ATOM     12  H   UNL     1      31.032 -21.369 -18.525  0.00  0.00    +0.174 HD
BRANCH  10  13
ATOM     13  C   UNL     1      33.025 -22.882 -17.462  0.00  0.00    +0.147 C 
ATOM     14  C   UNL     1      31.860 -22.739 -16.465  0.00  0.00    +0.038 C 
BRANCH  13  15
ATOM     15  O   UNL     1      34.254 -22.900 -16.714  0.00  0.00    -0.379 OA
ATOM     16  H   UNL     1      34.457 -22.006 -16.401  0.00  0.00    +0.211 HD
ENDBRANCH  13  15
ENDBRANCH  10  13
ENDBRANCH   5   9
ENDBRANCH   1   4
BRANCH   1  17
ATOM     17  C   UNL     1      34.929 -16.957 -22.309  0.00  0.00    +0.136 C 
BRANCH  17  18
ATOM     18  N   UNL     1      34.298 -15.736 -21.682  0.00  0.00    -0.209 N 
ATOM     19  N   UNL     1      33.952 -14.693 -22.455  0.00  0.00    -0.178 NA
ATOM     20  C   UNL     1      34.020 -15.559 -20.359  0.00  0.00    +0.086 C 
ATOM     21  C   UNL     1      33.437 -13.826 -21.580  0.00  0.00    +0.100 C 
ATOM     22  C   UNL     1      33.454 -14.312 -20.259  0.00  0.00    +0.038 C 
BRANCH  21  24
ATOM     23 CL   UNL     1      30.230  -9.896 -20.774  0.00  0.00    -0.082 Cl
ATOM     24  C   UNL     1      32.940 -12.548 -22.020  0.00  0.00    +0.020 C 
ATOM     25  C   UNL     1      31.945 -11.897 -21.291  0.00  0.00    +0.014 C 
ATOM     26  C   UNL     1      33.456 -11.960 -23.175  0.00  0.00    +0.002 C 
ATOM     27  C   UNL     1      31.465 -10.659 -21.716  0.00  0.00    +0.067 C 
ATOM     28  C   UNL     1      32.976 -10.721 -23.601  0.00  0.00    +0.011 C 
ATOM     29  C   UNL     1      31.981 -10.071 -22.871  0.00  0.00    +0.079 C 
BRANCH  29  31
ATOM     30  N   UNL     1      31.138  -7.772 -23.726  0.00  0.00    -0.191 NA
ATOM     31  C   UNL     1      31.515  -8.801 -23.344  0.00  0.00    +0.101 C 
ENDBRANCH  29  31
ENDBRANCH  21  24
ENDBRANCH  17  18
ENDBRANCH   1  17
TORSDOF 8
ENDMDL
MODEL 5
REMARK VINA RESULT:     -11.4      4.731     11.073
REMARK  Name = 67171867
REMARK  8 active torsions:
REMARK  status: ('A' for Active; 'I' for Inactive)
REMARK    1  A    between atoms: C_1  and  N_4
REMARK    2  A    between atoms: C_1  and  C_17
REMARK    3  A    between atoms: C_5  and  C_9
REMARK    4  A    between atoms: C_10  and  C_13
REMARK    5  A    between atoms: C_13  and  O_15
REMARK    6  A    between atoms: C_17  and  N_18
REMARK    7  A    between atoms: C_21  and  C_24
REMARK    8  A    between atoms: C_29  and  C_31
REMARK                            x       y       z     vdW  Elec       q    Type
REMARK                         _______ _______ _______ _____ _____    ______ ____
ROOT
ATOM      1  C   UNL     1      32.701 -13.368 -23.992  0.00  0.00    +0.094 C 
ATOM      2  C   UNL     1      32.628 -13.316 -25.516  0.00  0.00    +0.023 C 
ENDROOT
BRANCH   1   4
ATOM      3  O   UNL     1      31.575 -12.795 -21.413  0.00  0.00    -0.268 OA
ATOM      4  N   UNL     1      32.422 -12.061 -23.443  0.00  0.00    -0.299 N 
ATOM      5  C   UNL     1      31.875 -11.886 -22.182  0.00  0.00    +0.265 C 
ATOM      6  H   UNL     1      32.628 -11.265 -23.985  0.00  0.00    +0.150 HD
BRANCH   5   9
ATOM      7  N   UNL     1      31.070  -8.875 -20.540  0.00  0.00    -0.238 N 
ATOM      8  N   UNL     1      31.175 -10.215 -20.544  0.00  0.00    -0.177 NA
ATOM      9  C   UNL     1      31.624 -10.480 -21.774  0.00  0.00    +0.153 C 
ATOM     10  C   UNL     1      31.435  -8.290 -21.716  0.00  0.00    +0.071 C 
ATOM     11  C   UNL     1      31.805  -9.318 -22.549  0.00  0.00    +0.039 C 
ATOM     12  H   UNL     1      30.759  -8.362 -19.759  0.00  0.00    +0.174 HD
BRANCH  10  13
ATOM     13  C   UNL     1      31.390  -6.832 -21.916  0.00  0.00    +0.147 C 
ATOM     14  C   UNL     1      31.419  -6.034 -20.600  0.00  0.00    +0.038 C 
BRANCH  13  15
ATOM     15  O   UNL     1      30.207  -6.454 -22.643  0.00  0.00    -0.379 OA
ATOM     16  H   UNL     1      30.457  -5.924 -23.415  0.00  0.00    +0.211 HD
ENDBRANCH  13  15
ENDBRANCH  10  13
ENDBRANCH   5   9
ENDBRANCH   1   4
BRANCH   1  17
ATOM     17  C   UNL     1      34.073 -13.883 -23.532  0.00  0.00    +0.136 C 
BRANCH  17  18
ATOM     18  N   UNL     1      34.141 -15.390 -23.446  0.00  0.00    -0.209 N 
ATOM     19  N   UNL     1      34.496 -15.976 -22.290  0.00  0.00    -0.178 NA
ATOM     20  C   UNL     1      33.870 -16.270 -24.451  0.00  0.00    +0.086 C 
ATOM     21  C   UNL     1      34.445 -17.278 -22.583  0.00  0.00    +0.100 C 
ATOM     22  C   UNL     1      34.062 -17.520 -23.916  0.00  0.00    +0.038 C 
BRANCH  21  24
ATOM     23 CL   UNL     1      32.813 -21.111 -19.580  0.00  0.00    -0.082 Cl
ATOM     24  C   UNL     1      34.765 -18.267 -21.587  0.00  0.00    +0.020 C 
ATOM     25  C   UNL     1      33.772 -19.120 -21.105  0.00  0.00    +0.014 C 
ATOM     26  C   UNL     1      36.070 -18.374 -21.105  0.00  0.00    +0.002 C 
ATOM     27  C   UNL     1      34.083 -20.079 -20.142  0.00  0.00    +0.067 C 
ATOM     28  C   UNL     1      36.381 -19.333 -20.141  0.00  0.00    +0.011 C 
ATOM     29  C   UNL     1      35.387 -20.186 -19.660  0.00  0.00    +0.079 C 
BRANCH  29  31
ATOM     30  N   UNL     1      36.042 -21.942 -17.868  0.00  0.00    -0.191 NA
ATOM     31  C   UNL     1      35.750 -21.156 -18.670  0.00  0.00    +0.101 C 
ENDBRANCH  29  31
ENDBRANCH  21  24
ENDBRANCH  17  18
ENDBRANCH   1  17
TORSDOF 8
ENDMDL
MODEL 6
REMARK VINA RESULT:     -11.4      4.286      7.526
REMARK  Name = 67171867
REMARK  8 active torsions:
REMARK  status: ('A' for Active; 'I' for Inactive)
REMARK    1  A    between atoms: C_1  and  N_4
REMARK    2  A    between atoms: C_1  and  C_17
REMARK    3  A    between atoms: C_5  and  C_9
REMARK    4  A    between atoms: C_10  and  C_13
REMARK    5  A    between atoms: C_13  and  O_15
REMARK    6  A    between atoms: C_17  and  N_18
REMARK    7  A    between atoms: C_21  and  C_24
REMARK    8  A    between atoms: C_29  and  C_31
REMARK                            x       y       z     vdW  Elec       q    Type
REMARK                         _______ _______ _______ _____ _____    ______ ____
ROOT
ATOM      1  C   UNL     1      34.420 -23.326 -13.952  0.00  0.00    +0.094 C 
ATOM      2  C   UNL     1      34.531 -24.148 -12.671  0.00  0.00    +0.023 C 
ENDROOT
BRANCH   1   4
ATOM      3  O   UNL     1      31.936 -22.833 -12.600  0.00  0.00    -0.268 OA
ATOM      4  N   UNL     1      33.093 -23.461 -14.509  0.00  0.00    -0.299 N 
ATOM      5  C   UNL     1      31.949 -23.199 -13.772  0.00  0.00    +0.265 C 
ATOM      6  H   UNL     1      32.998 -23.750 -15.444  0.00  0.00    +0.150 HD
BRANCH   5   9
ATOM      7  N   UNL     1      28.921 -24.400 -15.113  0.00  0.00    -0.238 N 
ATOM      8  N   UNL     1      30.014 -24.573 -14.351  0.00  0.00    -0.177 NA
ATOM      9  C   UNL     1      30.660 -23.411 -14.480  0.00  0.00    +0.153 C 
ATOM     10  C   UNL     1      28.856 -23.178 -15.714  0.00  0.00    +0.071 C 
ATOM     11  C   UNL     1      29.985 -22.503 -15.318  0.00  0.00    +0.039 C 
ATOM     12  H   UNL     1      28.230 -25.093 -15.227  0.00  0.00    +0.174 HD
BRANCH  10  13
ATOM     13  C   UNL     1      27.738 -22.793 -16.591  0.00  0.00    +0.147 C 
ATOM     14  C   UNL     1      26.630 -22.012 -15.862  0.00  0.00    +0.038 C 
BRANCH  13  15
ATOM     15  O   UNL     1      27.142 -23.955 -17.197  0.00  0.00    -0.379 OA
ATOM     16  H   UNL     1      26.970 -24.622 -16.516  0.00  0.00    +0.211 HD
ENDBRANCH  13  15
ENDBRANCH  10  13
ENDBRANCH   5   9
ENDBRANCH   1   4
BRANCH   1  17
ATOM     17  C   UNL     1      35.493 -23.753 -14.965  0.00  0.00    +0.136 C 
BRANCH  17  18
ATOM     18  N   UNL     1      35.917 -22.633 -15.886  0.00  0.00    -0.209 N 
ATOM     19  N   UNL     1      35.194 -22.364 -16.987  0.00  0.00    -0.178 NA
ATOM     20  C   UNL     1      36.999 -21.820 -15.724  0.00  0.00    +0.086 C 
ATOM     21  C   UNL     1      35.851 -21.340 -17.537  0.00  0.00    +0.100 C 
ATOM     22  C   UNL     1      36.984 -20.959 -16.794  0.00  0.00    +0.038 C 
BRANCH  21  24
ATOM     23 CL   UNL     1      36.853 -18.280 -21.538  0.00  0.00    -0.082 Cl
ATOM     24  C   UNL     1      35.386 -20.746 -18.763  0.00  0.00    +0.020 C 
ATOM     25  C   UNL     1      36.224 -19.898 -19.489  0.00  0.00    +0.014 C 
ATOM     26  C   UNL     1      34.100 -21.020 -19.227  0.00  0.00    +0.002 C 
ATOM     27  C   UNL     1      35.774 -19.324 -20.678  0.00  0.00    +0.067 C 
ATOM     28  C   UNL     1      33.650 -20.446 -20.416  0.00  0.00    +0.011 C 
ATOM     29  C   UNL     1      34.488 -19.598 -21.142  0.00  0.00    +0.079 C 
BRANCH  29  31
ATOM     30  N   UNL     1      33.579 -18.567 -23.341  0.00  0.00    -0.191 NA
ATOM     31  C   UNL     1      33.986 -19.029 -22.357  0.00  0.00    +0.101 C 
ENDBRANCH  29  31
ENDBRANCH  21  24
ENDBRANCH  17  18
ENDBRANCH   1  17
TORSDOF 8
ENDMDL
MODEL 7
REMARK VINA RESULT:     -11.3      4.417     10.286
REMARK  Name = 67171867
REMARK  8 active torsions:
REMARK  status: ('A' for Active; 'I' for Inactive)
REMARK    1  A    between atoms: C_1  and  N_4
REMARK    2  A    between atoms: C_1  and  C_17
REMARK    3  A    between atoms: C_5  and  C_9
REMARK    4  A    between atoms: C_10  and  C_13
REMARK    5  A    between atoms: C_13  and  O_15
REMARK    6  A    between atoms: C_17  and  N_18
REMARK    7  A    between atoms: C_21  and  C_24
REMARK    8  A    between atoms: C_29  and  C_31
REMARK                            x       y       z     vdW  Elec       q    Type
REMARK                         _______ _______ _______ _____ _____    ______ ____
ROOT
ATOM      1  C   UNL     1      35.487 -17.992 -22.068  0.00  0.00    +0.094 C 
ATOM      2  C   UNL     1      36.545 -18.350 -21.028  0.00  0.00    +0.023 C 
ENDROOT
BRANCH   1   4
ATOM      3  O   UNL     1      34.766 -15.760 -23.726  0.00  0.00    -0.268 OA
ATOM      4  N   UNL     1      34.776 -16.803 -21.655  0.00  0.00    -0.299 N 
ATOM      5  C   UNL     1      34.474 -15.775 -22.533  0.00  0.00    +0.265 C 
ATOM      6  H   UNL     1      34.497 -16.721 -20.715  0.00  0.00    +0.150 HD
BRANCH   5   9
ATOM      7  N   UNL     1      33.137 -13.239 -20.486  0.00  0.00    -0.238 N 
ATOM      8  N   UNL     1      33.907 -14.327 -20.649  0.00  0.00    -0.177 NA
ATOM      9  C   UNL     1      33.762 -14.610 -21.947  0.00  0.00    +0.153 C 
ATOM     10  C   UNL     1      32.514 -12.828 -21.628  0.00  0.00    +0.071 C 
ATOM     11  C   UNL     1      32.906 -13.709 -22.607  0.00  0.00    +0.039 C 
ATOM     12  H   UNL     1      33.031 -12.779 -19.622  0.00  0.00    +0.174 HD
BRANCH  10  13
ATOM     13  C   UNL     1      31.625 -11.656 -21.660  0.00  0.00    +0.147 C 
ATOM     14  C   UNL     1      32.068 -10.579 -22.667  0.00  0.00    +0.038 C 
BRANCH  13  15
ATOM     15  O   UNL     1      31.542 -11.045 -20.359  0.00  0.00    -0.379 OA
ATOM     16  H   UNL     1      31.127 -10.172 -20.438  0.00  0.00    +0.211 HD
ENDBRANCH  13  15
ENDBRANCH  10  13
ENDBRANCH   5   9
ENDBRANCH   1   4
BRANCH   1  17
ATOM     17  C   UNL     1      34.523 -19.167 -22.289  0.00  0.00    +0.136 C 
BRANCH  17  18
ATOM     18  N   UNL     1      34.107 -19.841 -21.003  0.00  0.00    -0.209 N 
ATOM     19  N   UNL     1      35.045 -20.260 -20.136  0.00  0.00    -0.178 NA
ATOM     20  C   UNL     1      32.830 -20.086 -20.595  0.00  0.00    +0.086 C 
ATOM     21  C   UNL     1      34.325 -20.789 -19.144  0.00  0.00    +0.100 C 
ATOM     22  C   UNL     1      32.939 -20.710 -19.376  0.00  0.00    +0.038 C 
BRANCH  21  24
ATOM     23 CL   UNL     1      33.945 -23.757 -14.969  0.00  0.00    -0.082 Cl
ATOM     24  C   UNL     1      34.973 -21.363 -17.993  0.00  0.00    +0.020 C 
ATOM     25  C   UNL     1      34.255 -22.186 -17.125  0.00  0.00    +0.014 C 
ATOM     26  C   UNL     1      36.320 -21.099 -17.748  0.00  0.00    +0.002 C 
ATOM     27  C   UNL     1      34.883 -22.744 -16.012  0.00  0.00    +0.067 C 
ATOM     28  C   UNL     1      36.950 -21.657 -16.635  0.00  0.00    +0.011 C 
ATOM     29  C   UNL     1      36.230 -22.480 -15.768  0.00  0.00    +0.079 C 
BRANCH  29  31
ATOM     30  N   UNL     1      37.468 -23.477 -13.718  0.00  0.00    -0.191 NA
ATOM     31  C   UNL     1      36.914 -23.031 -14.635  0.00  0.00    +0.101 C 
ENDBRANCH  29  31
ENDBRANCH  21  24
ENDBRANCH  17  18
ENDBRANCH   1  17
TORSDOF 8
ENDMDL
MODEL 8
REMARK VINA RESULT:     -11.1      4.303     10.923
REMARK  Name = 67171867
REMARK  8 active torsions:
REMARK  status: ('A' for Active; 'I' for Inactive)
REMARK    1  A    between atoms: C_1  and  N_4
REMARK    2  A    between atoms: C_1  and  C_17
REMARK    3  A    between atoms: C_5  and  C_9
REMARK    4  A    between atoms: C_10  and  C_13
REMARK    5  A    between atoms: C_13  and  O_15
REMARK    6  A    between atoms: C_17  and  N_18
REMARK    7  A    between atoms: C_21  and  C_24
REMARK    8  A    between atoms: C_29  and  C_31
REMARK                            x       y       z     vdW  Elec       q    Type
REMARK                         _______ _______ _______ _____ _____    ______ ____
ROOT
ATOM      1  C   UNL     1      35.674 -20.601 -19.893  0.00  0.00    +0.094 C 
ATOM      2  C   UNL     1      36.112 -20.392 -18.446  0.00  0.00    +0.023 C 
ENDROOT
BRANCH   1   4
ATOM      3  O   UNL     1      37.109 -18.475 -21.185  0.00  0.00    -0.268 OA
ATOM      4  N   UNL     1      35.114 -19.377 -20.418  0.00  0.00    -0.299 N 
ATOM      5  C   UNL     1      35.893 -18.406 -21.027  0.00  0.00    +0.265 C 
ATOM      6  H   UNL     1      34.145 -19.227 -20.340  0.00  0.00    +0.150 HD
BRANCH   5   9
ATOM      7  N   UNL     1      34.076 -15.406 -21.364  0.00  0.00    -0.238 N 
ATOM      8  N   UNL     1      34.630 -16.359 -20.596  0.00  0.00    -0.177 NA
ATOM      9  C   UNL     1      35.171 -17.193 -21.490  0.00  0.00    +0.153 C 
ATOM     10  C   UNL     1      34.248 -15.607 -22.702  0.00  0.00    +0.071 C 
ATOM     11  C   UNL     1      34.964 -16.774 -22.818  0.00  0.00    +0.039 C 
ATOM     12  H   UNL     1      33.592 -14.632 -20.995  0.00  0.00    +0.174 HD
BRANCH  10  13
ATOM     13  C   UNL     1      33.716 -14.677 -23.711  0.00  0.00    +0.147 C 
ATOM     14  C   UNL     1      32.937 -13.496 -23.103  0.00  0.00    +0.038 C 
BRANCH  13  15
ATOM     15  O   UNL     1      32.844 -15.364 -24.627  0.00  0.00    -0.379 OA
ATOM     16  H   UNL     1      32.941 -14.983 -25.513  0.00  0.00    +0.211 HD
ENDBRANCH  13  15
ENDBRANCH  10  13
ENDBRANCH   5   9
ENDBRANCH   1   4
BRANCH   1  17
ATOM     17  C   UNL     1      34.670 -21.759 -19.995  0.00  0.00    +0.136 C 
BRANCH  17  18
ATOM     18  N   UNL     1      33.941 -22.026 -18.698  0.00  0.00    -0.209 N 
ATOM     19  N   UNL     1      34.629 -22.432 -17.617  0.00  0.00    -0.178 NA
ATOM     20  C   UNL     1      32.602 -21.895 -18.482  0.00  0.00    +0.086 C 
ATOM     21  C   UNL     1      33.680 -22.560 -16.686  0.00  0.00    +0.100 C 
ATOM     22  C   UNL     1      32.398 -22.240 -17.169  0.00  0.00    +0.038 C 
BRANCH  21  24
ATOM     23 CL   UNL     1      37.350 -23.732 -13.290  0.00  0.00    -0.082 Cl
ATOM     24  C   UNL     1      34.016 -22.989 -15.353  0.00  0.00    +0.020 C 
ATOM     25  C   UNL     1      35.352 -23.143 -14.985  0.00  0.00    +0.014 C 
ATOM     26  C   UNL     1      33.003 -23.246 -14.429  0.00  0.00    +0.002 C 
ATOM     27  C   UNL     1      35.677 -23.556 -13.693  0.00  0.00    +0.067 C 
ATOM     28  C   UNL     1      33.328 -23.660 -13.136  0.00  0.00    +0.011 C 
ATOM     29  C   UNL     1      34.665 -23.814 -12.769  0.00  0.00    +0.079 C 
BRANCH  29  31
ATOM     30  N   UNL     1      35.188 -24.587 -10.349  0.00  0.00    -0.191 NA
ATOM     31  C   UNL     1      34.954 -24.241 -11.432  0.00  0.00    +0.101 C 
ENDBRANCH  29  31
ENDBRANCH  21  24
ENDBRANCH  17  18
ENDBRANCH   1  17
TORSDOF 8
ENDMDL
MODEL 9
REMARK VINA RESULT:     -11.0      3.168      4.937
REMARK  Name = 67171867
REMARK  8 active torsions:
REMARK  status: ('A' for Active; 'I' for Inactive)
REMARK    1  A    between atoms: C_1  and  N_4
REMARK    2  A    between atoms: C_1  and  C_17
REMARK    3  A    between atoms: C_5  and  C_9
REMARK    4  A    between atoms: C_10  and  C_13
REMARK    5  A    between atoms: C_13  and  O_15
REMARK    6  A    between atoms: C_17  and  N_18
REMARK    7  A    between atoms: C_21  and  C_24
REMARK    8  A    between atoms: C_29  and  C_31
REMARK                            x       y       z     vdW  Elec       q    Type
REMARK                         _______ _______ _______ _____ _____    ______ ____
ROOT
ATOM      1  C   UNL     1      36.169 -21.388 -16.315  0.00  0.00    +0.094 C 
ATOM      2  C   UNL     1      37.132 -22.157 -15.415  0.00  0.00    +0.023 C 
ENDROOT
BRANCH   1   4
ATOM      3  O   UNL     1      35.089 -23.980 -15.716  0.00  0.00    -0.268 OA
ATOM      4  N   UNL     1      34.805 -21.691 -15.945  0.00  0.00    -0.299 N 
ATOM      5  C   UNL     1      34.378 -22.981 -15.674  0.00  0.00    +0.265 C 
ATOM      6  H   UNL     1      34.156 -20.954 -15.884  0.00  0.00    +0.150 HD
BRANCH   5   9
ATOM      7  N   UNL     1      31.240 -23.702 -14.243  0.00  0.00    -0.238 N 
ATOM      8  N   UNL     1      32.582 -23.763 -14.215  0.00  0.00    -0.177 NA
ATOM      9  C   UNL     1      32.939 -23.128 -15.335  0.00  0.00    +0.153 C 
ATOM     10  C   UNL     1      30.741 -23.054 -15.335  0.00  0.00    +0.071 C 
ATOM     11  C   UNL     1      31.833 -22.665 -16.072  0.00  0.00    +0.039 C 
ATOM     12  H   UNL     1      30.669 -24.088 -13.540  0.00  0.00    +0.174 HD
BRANCH  10  13
ATOM     13  C   UNL     1      29.296 -22.881 -15.553  0.00  0.00    +0.147 C 
ATOM     14  C   UNL     1      28.526 -24.212 -15.633  0.00  0.00    +0.038 C 
BRANCH  13  15
ATOM     15  O   UNL     1      29.049 -22.147 -16.766  0.00  0.00    -0.379 OA
ATOM     16  H   UNL     1      29.863 -22.105 -17.291  0.00  0.00    +0.211 HD
ENDBRANCH  13  15
ENDBRANCH  10  13
ENDBRANCH   5   9
ENDBRANCH   1   4
BRANCH   1  17
ATOM     17  C   UNL     1      36.429 -21.715 -17.793  0.00  0.00    +0.136 C 
BRANCH  17  18
ATOM     18  N   UNL     1      35.369 -21.162 -18.717  0.00  0.00    -0.209 N 
ATOM     19  N   UNL     1      35.687 -20.196 -19.596  0.00  0.00    -0.178 NA
ATOM     20  C   UNL     1      34.063 -21.548 -18.770  0.00  0.00    +0.086 C 
ATOM     21  C   UNL     1      34.532 -19.968 -20.225  0.00  0.00    +0.100 C 
ATOM     22  C   UNL     1      33.485 -20.780 -19.751  0.00  0.00    +0.038 C 
BRANCH  21  24
ATOM     23 CL   UNL     1      32.730 -18.665 -24.854  0.00  0.00    -0.082 Cl
ATOM     24  C   UNL     1      34.448 -18.976 -21.265  0.00  0.00    +0.020 C 
ATOM     25  C   UNL     1      33.724 -19.243 -22.427  0.00  0.00    +0.014 C 
ATOM     26  C   UNL     1      35.088 -17.747 -21.109  0.00  0.00    +0.002 C 
ATOM     27  C   UNL     1      33.641 -18.281 -23.434  0.00  0.00    +0.067 C 
ATOM     28  C   UNL     1      35.006 -16.784 -22.117  0.00  0.00    +0.011 C 
ATOM     29  C   UNL     1      34.281 -17.052 -23.278  0.00  0.00    +0.079 C 
BRANCH  29  31
ATOM     30  N   UNL     1      34.175 -15.216 -25.106  0.00  0.00    -0.191 NA
ATOM     31  C   UNL     1      34.223 -16.037 -24.288  0.00  0.00    +0.101 C 
ENDBRANCH  29  31
ENDBRANCH  21  24
ENDBRANCH  17  18
ENDBRANCH   1  17
TORSDOF 8
ENDMDL
