MODEL 1
REMARK VINA RESULT:     -10.8      0.000      0.000
REMARK  Name = 24180585
REMARK  4 active torsions:
REMARK  status: ('A' for Active; 'I' for Inactive)
REMARK    1  A    between atoms: C_4  and  C_15
REMARK    2  A    between atoms: C_5  and  N_29
REMARK    3  A    between atoms: C_10  and  C_22
REMARK    4  A    between atoms: C_26  and  O_27
REMARK                            x       y       z     vdW  Elec       q    Type
REMARK                         _______ _______ _______ _____ _____    ______ ____
ROOT
ATOM      1  N   UNL     1      33.699 -16.530 -23.808  0.00  0.00    -0.298 N 
ATOM      2  N   UNL     1      33.296 -14.919 -25.469  0.00  0.00    -0.234 NA
ATOM      3  N   UNL     1      32.593 -12.706 -24.825  0.00  0.00    -0.248 NA
ATOM      4  C   UNL     1      33.905 -18.536 -22.574  0.00  0.00    +0.026 C 
ATOM      5  C   UNL     1      34.676 -18.671 -23.898  0.00  0.00    -0.040 C 
ATOM      6  C   UNL     1      33.774 -17.008 -22.427  0.00  0.00    +0.094 C 
ATOM      7  C   UNL     1      34.042 -17.578 -24.768  0.00  0.00    +0.070 C 
ATOM      8  C   UNL     1      33.329 -15.249 -24.161  0.00  0.00    +0.111 C 
ATOM      9  C   UNL     1      33.013 -14.374 -23.142  0.00  0.00    +0.106 C 
ATOM     10  C   UNL     1      32.648 -13.104 -23.537  0.00  0.00    +0.065 C 
ATOM     11  C   UNL     1      32.925 -13.650 -25.725  0.00  0.00    +0.251 C 
ENDROOT
BRANCH   4  15
ATOM     12  F   UNL     1      36.570 -18.036 -21.741  0.00  0.00    -0.204 F 
ATOM     13  F   UNL     1      33.679 -21.636 -18.809  0.00  0.00    -0.202 F 
ATOM     14  F   UNL     1      36.260 -21.059 -18.115  0.00  0.00    -0.202 F 
ATOM     15  C   UNL     1      34.538 -19.210 -21.381  0.00  0.00    +0.007 C 
ATOM     16  C   UNL     1      35.855 -18.917 -21.027  0.00  0.00    +0.138 C 
ATOM     17  C   UNL     1      33.803 -20.129 -20.631  0.00  0.00    +0.030 C 
ATOM     18  C   UNL     1      34.385 -20.753 -19.528  0.00  0.00    +0.167 C 
ATOM     19  C   UNL     1      36.437 -19.540 -19.924  0.00  0.00    +0.061 C 
ATOM     20  C   UNL     1      35.701 -20.460 -19.174  0.00  0.00    +0.170 C 
ENDBRANCH   4  15
BRANCH  10  22
ATOM     21  N   UNL     1      31.886  -9.763 -22.070  0.00  0.00    -0.210 NA
ATOM     22  C   UNL     1      32.292 -12.094 -22.568  0.00  0.00    +0.033 C 
ATOM     23  C   UNL     1      32.015 -12.432 -21.248  0.00  0.00    +0.008 C 
ATOM     24  C   UNL     1      32.214 -10.757 -22.926  0.00  0.00    +0.103 C 
ATOM     25  C   UNL     1      31.674 -11.437 -20.338  0.00  0.00    +0.058 C 
ATOM     26  C   UNL     1      31.623 -10.130 -20.796  0.00  0.00    +0.225 C 
BRANCH  26  27
ATOM     27  O   UNL     1      31.290  -9.131 -19.918  0.00  0.00    -0.456 OA
ATOM     28  C   UNL     1      31.596  -7.801 -20.315  0.00  0.00    +0.254 C 
ENDBRANCH  26  27
ENDBRANCH  10  22
BRANCH   5  29
ATOM     29  N   UNL     1      34.550 -19.989 -24.501  0.00  0.00    +0.383 N 
ATOM     30  H   UNL     1      34.106 -20.625 -23.839  0.00  0.00    -0.089 HD
ATOM     31  H   UNL     1      35.476 -20.343 -24.743  0.00  0.00    -0.089 HD
ATOM     32  H   UNL     1      33.980 -19.925 -25.345  0.00  0.00    -0.089 HD
ENDBRANCH   5  29
TORSDOF 4
ENDMDL
MODEL 2
REMARK VINA RESULT:     -10.7      4.804      7.913
REMARK  Name = 24180585
REMARK  4 active torsions:
REMARK  status: ('A' for Active; 'I' for Inactive)
REMARK    1  A    between atoms: C_4  and  C_15
REMARK    2  A    between atoms: C_5  and  N_29
REMARK    3  A    between atoms: C_10  and  C_22
REMARK    4  A    between atoms: C_26  and  O_27
REMARK                            x       y       z     vdW  Elec       q    Type
REMARK                         _______ _______ _______ _____ _____    ______ ____
ROOT
ATOM      1  N   UNL     1      31.781  -9.514 -22.423  0.00  0.00    -0.298 N 
ATOM      2  N   UNL     1      30.751  -7.435 -22.055  0.00  0.00    -0.234 NA
ATOM      3  N   UNL     1      31.384  -5.544 -23.407  0.00  0.00    -0.248 NA
ATOM      4  C   UNL     1      32.730 -11.667 -22.187  0.00  0.00    +0.026 C 
ATOM      5  C   UNL     1      31.304 -11.672 -21.611  0.00  0.00    -0.040 C 
ATOM      6  C   UNL     1      32.709 -10.423 -23.097  0.00  0.00    +0.094 C 
ATOM      7  C   UNL     1      31.040 -10.183 -21.356  0.00  0.00    +0.070 C 
ATOM      8  C   UNL     1      31.640  -8.180 -22.745  0.00  0.00    +0.111 C 
ATOM      9  C   UNL     1      32.425  -7.685 -23.766  0.00  0.00    +0.106 C 
ATOM     10  C   UNL     1      32.254  -6.347 -24.056  0.00  0.00    +0.065 C 
ATOM     11  C   UNL     1      30.675  -6.145 -22.433  0.00  0.00    +0.251 C 
ENDROOT
BRANCH   4  15
ATOM     12  F   UNL     1      34.157 -13.759 -20.910  0.00  0.00    -0.204 F 
ATOM     13  F   UNL     1      32.926 -14.449 -26.194  0.00  0.00    -0.202 F 
ATOM     14  F   UNL     1      34.298 -16.388 -24.841  0.00  0.00    -0.202 F 
ATOM     15  C   UNL     1      33.151 -12.932 -22.896  0.00  0.00    +0.007 C 
ATOM     16  C   UNL     1      33.851 -13.921 -22.206  0.00  0.00    +0.138 C 
ATOM     17  C   UNL     1      32.838 -13.111 -24.243  0.00  0.00    +0.030 C 
ATOM     18  C   UNL     1      33.225 -14.278 -24.900  0.00  0.00    +0.167 C 
ATOM     19  C   UNL     1      34.238 -15.089 -22.862  0.00  0.00    +0.061 C 
ATOM     20  C   UNL     1      33.925 -15.267 -24.210  0.00  0.00    +0.170 C 
ENDBRANCH   4  15
BRANCH  10  22
ATOM     21  N   UNL     1      33.326  -5.269 -27.459  0.00  0.00    -0.210 NA
ATOM     22  C   UNL     1      33.016  -5.706 -25.101  0.00  0.00    +0.033 C 
ATOM     23  C   UNL     1      34.131  -4.930 -24.804  0.00  0.00    +0.008 C 
ATOM     24  C   UNL     1      32.658  -5.843 -26.433  0.00  0.00    +0.103 C 
ATOM     25  C   UNL     1      34.844  -4.324 -25.832  0.00  0.00    +0.058 C 
ATOM     26  C   UNL     1      34.404  -4.523 -27.131  0.00  0.00    +0.225 C 
BRANCH  26  27
ATOM     27  O   UNL     1      35.091  -3.936 -28.162  0.00  0.00    -0.456 OA
ATOM     28  C   UNL     1      35.146  -4.657 -29.387  0.00  0.00    +0.254 C 
ENDBRANCH  26  27
ENDBRANCH  10  22
BRANCH   5  29
ATOM     29  N   UNL     1      31.182 -12.463 -20.396  0.00  0.00    +0.383 N 
ATOM     30  H   UNL     1      30.229 -12.397 -20.040  0.00  0.00    -0.089 HD
ATOM     31  H   UNL     1      31.833 -12.111 -19.694  0.00  0.00    -0.089 HD
ATOM     32  H   UNL     1      31.400 -13.439 -20.601  0.00  0.00    -0.089 HD
ENDBRANCH   5  29
TORSDOF 4
ENDMDL
MODEL 3
REMARK VINA RESULT:     -10.7      6.168     11.530
REMARK  Name = 24180585
REMARK  4 active torsions:
REMARK  status: ('A' for Active; 'I' for Inactive)
REMARK    1  A    between atoms: C_4  and  C_15
REMARK    2  A    between atoms: C_5  and  N_29
REMARK    3  A    between atoms: C_10  and  C_22
REMARK    4  A    between atoms: C_26  and  O_27
REMARK                            x       y       z     vdW  Elec       q    Type
REMARK                         _______ _______ _______ _____ _____    ______ ____
ROOT
ATOM      1  N   UNL     1      31.591  -8.010 -22.709  0.00  0.00    -0.298 N 
ATOM      2  N   UNL     1      30.841  -9.309 -20.901  0.00  0.00    -0.234 NA
ATOM      3  N   UNL     1      31.403 -11.650 -20.813  0.00  0.00    -0.248 NA
ATOM      4  C   UNL     1      31.818  -6.402 -24.428  0.00  0.00    +0.026 C 
ATOM      5  C   UNL     1      31.579  -5.685 -23.088  0.00  0.00    -0.040 C 
ATOM      6  C   UNL     1      32.297  -7.794 -23.972  0.00  0.00    +0.094 C 
ATOM      7  C   UNL     1      30.951  -6.788 -22.226  0.00  0.00    +0.070 C 
ATOM      8  C   UNL     1      31.521  -9.227 -22.064  0.00  0.00    +0.111 C 
ATOM      9  C   UNL     1      32.160 -10.298 -22.655  0.00  0.00    +0.106 C 
ATOM     10  C   UNL     1      32.066 -11.497 -21.979  0.00  0.00    +0.065 C 
ATOM     11  C   UNL     1      30.824 -10.532 -20.338  0.00  0.00    +0.251 C 
ENDROOT
BRANCH   4  15
ATOM     12  F   UNL     1      34.193  -5.109 -23.574  0.00  0.00    -0.204 F 
ATOM     13  F   UNL     1      33.103  -5.030 -28.933  0.00  0.00    -0.202 F 
ATOM     14  F   UNL     1      35.361  -3.822 -27.975  0.00  0.00    -0.202 F 
ATOM     15  C   UNL     1      32.768  -5.711 -25.376  0.00  0.00    +0.007 C 
ATOM     16  C   UNL     1      33.920  -5.094 -24.887  0.00  0.00    +0.138 C 
ATOM     17  C   UNL     1      32.492  -5.689 -26.743  0.00  0.00    +0.030 C 
ATOM     18  C   UNL     1      33.368  -5.052 -27.621  0.00  0.00    +0.167 C 
ATOM     19  C   UNL     1      34.796  -4.457 -25.765  0.00  0.00    +0.061 C 
ATOM     20  C   UNL     1      34.520  -4.435 -27.132  0.00  0.00    +0.170 C 
ENDBRANCH   4  15
BRANCH  10  22
ATOM     21  N   UNL     1      33.155 -14.134 -24.376  0.00  0.00    -0.210 NA
ATOM     22  C   UNL     1      32.689 -12.695 -22.491  0.00  0.00    +0.033 C 
ATOM     23  C   UNL     1      33.402 -13.546 -21.655  0.00  0.00    +0.008 C 
ATOM     24  C   UNL     1      32.595 -13.030 -23.832  0.00  0.00    +0.103 C 
ATOM     25  C   UNL     1      33.993 -14.691 -22.177  0.00  0.00    +0.058 C 
ATOM     26  C   UNL     1      33.841 -14.938 -23.533  0.00  0.00    +0.225 C 
BRANCH  26  27
ATOM     27  O   UNL     1      34.413 -16.061 -24.072  0.00  0.00    -0.456 OA
ATOM     28  C   UNL     1      34.458 -17.217 -23.245  0.00  0.00    +0.254 C 
ENDBRANCH  26  27
ENDBRANCH  10  22
BRANCH   5  29
ATOM     29  N   UNL     1      30.710  -4.525 -23.207  0.00  0.00    +0.383 N 
ATOM     30  H   UNL     1      30.458  -4.387 -24.186  0.00  0.00    -0.089 HD
ATOM     31  H   UNL     1      31.197  -3.698 -22.862  0.00  0.00    -0.089 HD
ATOM     32  H   UNL     1      29.864  -4.675 -22.656  0.00  0.00    -0.089 HD
ENDBRANCH   5  29
TORSDOF 4
ENDMDL
MODEL 4
REMARK VINA RESULT:     -10.5      4.204      7.065
REMARK  Name = 24180585
REMARK  4 active torsions:
REMARK  status: ('A' for Active; 'I' for Inactive)
REMARK    1  A    between atoms: C_4  and  C_15
REMARK    2  A    between atoms: C_5  and  N_29
REMARK    3  A    between atoms: C_10  and  C_22
REMARK    4  A    between atoms: C_26  and  O_27
REMARK                            x       y       z     vdW  Elec       q    Type
REMARK                         _______ _______ _______ _____ _____    ______ ____
ROOT
ATOM      1  N   UNL     1      32.053 -10.527 -22.016  0.00  0.00    -0.298 N 
ATOM      2  N   UNL     1      31.048  -8.491 -21.414  0.00  0.00    -0.234 NA
ATOM      3  N   UNL     1      31.422  -6.539 -22.776  0.00  0.00    -0.248 NA
ATOM      4  C   UNL     1      33.072 -12.661 -22.012  0.00  0.00    +0.026 C 
ATOM      5  C   UNL     1      31.754 -12.724 -21.220  0.00  0.00    -0.040 C 
ATOM      6  C   UNL     1      32.882 -11.388 -22.860  0.00  0.00    +0.094 C 
ATOM      7  C   UNL     1      31.502 -11.252 -20.872  0.00  0.00    +0.070 C 
ATOM      8  C   UNL     1      31.834  -9.187 -22.261  0.00  0.00    +0.111 C 
ATOM      9  C   UNL     1      32.439  -8.637 -23.373  0.00  0.00    +0.106 C 
ATOM     10  C   UNL     1      32.196  -7.295 -23.582  0.00  0.00    +0.065 C 
ATOM     11  C   UNL     1      30.887  -7.192 -21.727  0.00  0.00    +0.251 C 
ENDROOT
BRANCH   4  15
ATOM     12  F   UNL     1      32.292 -12.988 -24.719  0.00  0.00    -0.204 F 
ATOM     13  F   UNL     1      35.128 -17.068 -22.434  0.00  0.00    -0.202 F 
ATOM     14  F   UNL     1      34.314 -17.253 -25.038  0.00  0.00    -0.202 F 
ATOM     15  C   UNL     1      33.404 -13.889 -22.824  0.00  0.00    +0.007 C 
ATOM     16  C   UNL     1      32.988 -13.984 -24.152  0.00  0.00    +0.138 C 
ATOM     17  C   UNL     1      34.127 -14.932 -22.244  0.00  0.00    +0.030 C 
ATOM     18  C   UNL     1      34.435 -16.068 -22.991  0.00  0.00    +0.167 C 
ATOM     19  C   UNL     1      33.296 -15.120 -24.901  0.00  0.00    +0.061 C 
ATOM     20  C   UNL     1      34.019 -16.162 -24.319  0.00  0.00    +0.170 C 
ENDBRANCH   4  15
BRANCH  10  22
ATOM     21  N   UNL     1      32.440  -5.386 -26.774  0.00  0.00    -0.210 NA
ATOM     22  C   UNL     1      32.771  -6.599 -24.709  0.00  0.00    +0.033 C 
ATOM     23  C   UNL     1      34.148  -6.456 -24.837  0.00  0.00    +0.008 C 
ATOM     24  C   UNL     1      31.967  -6.051 -25.695  0.00  0.00    +0.103 C 
ATOM     25  C   UNL     1      34.673  -5.779 -25.932  0.00  0.00    +0.058 C 
ATOM     26  C   UNL     1      33.784  -5.267 -26.864  0.00  0.00    +0.225 C 
BRANCH  26  27
ATOM     27  O   UNL     1      34.276  -4.596 -27.953  0.00  0.00    -0.456 OA
ATOM     28  C   UNL     1      33.950  -5.124 -29.233  0.00  0.00    +0.254 C 
ENDBRANCH  26  27
ENDBRANCH  10  22
BRANCH   5  29
ATOM     29  N   UNL     1      31.841 -13.559 -20.032  0.00  0.00    +0.383 N 
ATOM     30  H   UNL     1      32.373 -13.071 -19.311  0.00  0.00    -0.089 HD
ATOM     31  H   UNL     1      32.309 -14.435 -20.265  0.00  0.00    -0.089 HD
ATOM     32  H   UNL     1      30.902 -13.757 -19.685  0.00  0.00    -0.089 HD
ENDBRANCH   5  29
TORSDOF 4
ENDMDL
MODEL 5
REMARK VINA RESULT:     -10.4      4.067      8.609
REMARK  Name = 24180585
REMARK  4 active torsions:
REMARK  status: ('A' for Active; 'I' for Inactive)
REMARK    1  A    between atoms: C_4  and  C_15
REMARK    2  A    between atoms: C_5  and  N_29
REMARK    3  A    between atoms: C_10  and  C_22
REMARK    4  A    between atoms: C_26  and  O_27
REMARK                            x       y       z     vdW  Elec       q    Type
REMARK                         _______ _______ _______ _____ _____    ______ ____
ROOT
ATOM      1  N   UNL     1      33.472 -15.545 -23.743  0.00  0.00    -0.298 N 
ATOM      2  N   UNL     1      33.914 -17.564 -24.858  0.00  0.00    -0.234 NA
ATOM      3  N   UNL     1      34.433 -19.536 -23.574  0.00  0.00    -0.248 NA
ATOM      4  C   UNL     1      33.283 -13.270 -23.125  0.00  0.00    +0.026 C 
ATOM      5  C   UNL     1      32.632 -13.479 -24.503  0.00  0.00    -0.040 C 
ATOM      6  C   UNL     1      33.312 -14.703 -22.557  0.00  0.00    +0.094 C 
ATOM      7  C   UNL     1      33.270 -14.791 -24.979  0.00  0.00    +0.070 C 
ATOM      8  C   UNL     1      33.794 -16.886 -23.698  0.00  0.00    +0.111 C 
ATOM      9  C   UNL     1      33.974 -17.455 -22.455  0.00  0.00    +0.106 C 
ATOM     10  C   UNL     1      34.296 -18.797 -22.454  0.00  0.00    +0.065 C 
ATOM     11  C   UNL     1      34.230 -18.866 -24.724  0.00  0.00    +0.251 C 
ENDROOT
BRANCH   4  15
ATOM     12  F   UNL     1      32.776 -13.753 -20.377  0.00  0.00    -0.204 F 
ATOM     13  F   UNL     1      31.141  -8.943 -22.404  0.00  0.00    -0.202 F 
ATOM     14  F   UNL     1      30.715  -9.537 -19.769  0.00  0.00    -0.202 F 
ATOM     15  C   UNL     1      32.596 -12.272 -22.225  0.00  0.00    +0.007 C 
ATOM     16  C   UNL     1      32.378 -12.575 -20.881  0.00  0.00    +0.138 C 
ATOM     17  C   UNL     1      32.178 -11.045 -22.739  0.00  0.00    +0.030 C 
ATOM     18  C   UNL     1      31.543 -10.121 -21.910  0.00  0.00    +0.167 C 
ATOM     19  C   UNL     1      31.744 -11.652 -20.051  0.00  0.00    +0.061 C 
ATOM     20  C   UNL     1      31.325 -10.424 -20.566  0.00  0.00    +0.170 C 
ENDBRANCH   4  15
BRANCH  10  22
ATOM     21  N   UNL     1      36.044 -20.238 -19.494  0.00  0.00    -0.210 NA
ATOM     22  C   UNL     1      34.513 -19.512 -21.218  0.00  0.00    +0.033 C 
ATOM     23  C   UNL     1      33.463 -20.146 -20.563  0.00  0.00    +0.008 C 
ATOM     24  C   UNL     1      35.773 -19.587 -20.647  0.00  0.00    +0.103 C 
ATOM     25  C   UNL     1      33.702 -20.826 -19.374  0.00  0.00    +0.058 C 
ATOM     26  C   UNL     1      34.998 -20.842 -18.885  0.00  0.00    +0.225 C 
BRANCH  26  27
ATOM     27  O   UNL     1      35.260 -21.506 -17.715  0.00  0.00    -0.456 OA
ATOM     28  C   UNL     1      36.499 -21.220 -17.079  0.00  0.00    +0.254 C 
ENDBRANCH  26  27
ENDBRANCH  10  22
BRANCH   5  29
ATOM     29  N   UNL     1      32.883 -12.384 -25.426  0.00  0.00    +0.383 N 
ATOM     30  H   UNL     1      32.828 -11.497 -24.926  0.00  0.00    -0.089 HD
ATOM     31  H   UNL     1      32.186 -12.399 -26.170  0.00  0.00    -0.089 HD
ATOM     32  H   UNL     1      33.814 -12.487 -25.832  0.00  0.00    -0.089 HD
ENDBRANCH   5  29
TORSDOF 4
ENDMDL
MODEL 6
REMARK VINA RESULT:     -10.3      6.747     11.756
REMARK  Name = 24180585
REMARK  4 active torsions:
REMARK  status: ('A' for Active; 'I' for Inactive)
REMARK    1  A    between atoms: C_4  and  C_15
REMARK    2  A    between atoms: C_5  and  N_29
REMARK    3  A    between atoms: C_10  and  C_22
REMARK    4  A    between atoms: C_26  and  O_27
REMARK                            x       y       z     vdW  Elec       q    Type
REMARK                         _______ _______ _______ _____ _____    ______ ____
ROOT
ATOM      1  N   UNL     1      33.267 -22.090 -17.580  0.00  0.00    -0.298 N 
ATOM      2  N   UNL     1      32.255 -23.203 -15.776  0.00  0.00    -0.234 NA
ATOM      3  N   UNL     1      33.632 -24.387 -14.193  0.00  0.00    -0.248 NA
ATOM      4  C   UNL     1      33.761 -21.123 -19.680  0.00  0.00    +0.026 C 
ATOM      5  C   UNL     1      32.417 -20.576 -19.171  0.00  0.00    -0.040 C 
ATOM      6  C   UNL     1      34.408 -21.655 -18.387  0.00  0.00    +0.094 C 
ATOM      7  C   UNL     1      31.997 -21.628 -18.137  0.00  0.00    +0.070 C 
ATOM      8  C   UNL     1      33.377 -22.861 -16.441  0.00  0.00    +0.111 C 
ATOM      9  C   UNL     1      34.646 -23.239 -16.049  0.00  0.00    +0.106 C 
ATOM     10  C   UNL     1      34.713 -24.010 -14.907  0.00  0.00    +0.065 C 
ATOM     11  C   UNL     1      32.453 -23.955 -14.677  0.00  0.00    +0.251 C 
ENDROOT
BRANCH   4  15
ATOM     12  F   UNL     1      36.363 -20.378 -18.832  0.00  0.00    -0.204 F 
ATOM     13  F   UNL     1      34.483 -18.067 -23.419  0.00  0.00    -0.202 F 
ATOM     14  F   UNL     1      36.976 -17.439 -22.489  0.00  0.00    -0.202 F 
ATOM     15  C   UNL     1      34.624 -20.137 -20.431  0.00  0.00    +0.007 C 
ATOM     16  C   UNL     1      35.895 -19.816 -19.956  0.00  0.00    +0.138 C 
ATOM     17  C   UNL     1      34.147 -19.546 -21.601  0.00  0.00    +0.030 C 
ATOM     18  C   UNL     1      34.941 -18.635 -22.296  0.00  0.00    +0.167 C 
ATOM     19  C   UNL     1      36.690 -18.905 -20.651  0.00  0.00    +0.061 C 
ATOM     20  C   UNL     1      36.212 -18.314 -21.821  0.00  0.00    +0.170 C 
ENDBRANCH   4  15
BRANCH  10  22
ATOM     21  N   UNL     1      37.687 -26.182 -14.339  0.00  0.00    -0.210 NA
ATOM     22  C   UNL     1      35.980 -24.472 -14.391  0.00  0.00    +0.033 C 
ATOM     23  C   UNL     1      36.709 -23.706 -13.489  0.00  0.00    +0.008 C 
ATOM     24  C   UNL     1      36.508 -25.692 -14.781  0.00  0.00    +0.103 C 
ATOM     25  C   UNL     1      37.927 -24.176 -13.010  0.00  0.00    +0.058 C 
ATOM     26  C   UNL     1      38.368 -25.410 -13.463  0.00  0.00    +0.225 C 
BRANCH  26  27
ATOM     27  O   UNL     1      39.565 -25.896 -13.005  0.00  0.00    -0.456 OA
ATOM     28  C   UNL     1      40.526 -26.259 -13.988  0.00  0.00    +0.254 C 
ENDBRANCH  26  27
ENDBRANCH  10  22
BRANCH   5  29
ATOM     29  N   UNL     1      31.427 -20.421 -20.225  0.00  0.00    +0.383 N 
ATOM     30  H   UNL     1      30.716 -19.752 -19.930  0.00  0.00    -0.089 HD
ATOM     31  H   UNL     1      30.987 -21.322 -20.414  0.00  0.00    -0.089 HD
ATOM     32  H   UNL     1      31.882 -20.082 -21.073  0.00  0.00    -0.089 HD
ENDBRANCH   5  29
TORSDOF 4
ENDMDL
MODEL 7
REMARK VINA RESULT:     -10.3      6.574     12.111
REMARK  Name = 24180585
REMARK  4 active torsions:
REMARK  status: ('A' for Active; 'I' for Inactive)
REMARK    1  A    between atoms: C_4  and  C_15
REMARK    2  A    between atoms: C_5  and  N_29
REMARK    3  A    between atoms: C_10  and  C_22
REMARK    4  A    between atoms: C_26  and  O_27
REMARK                            x       y       z     vdW  Elec       q    Type
REMARK                         _______ _______ _______ _____ _____    ______ ____
ROOT
ATOM      1  N   UNL     1      31.624  -7.443 -21.973  0.00  0.00    -0.298 N 
ATOM      2  N   UNL     1      31.179  -9.077 -20.345  0.00  0.00    -0.234 NA
ATOM      3  N   UNL     1      31.554 -11.399 -20.867  0.00  0.00    -0.248 NA
ATOM      4  C   UNL     1      31.604  -5.508 -23.332  0.00  0.00    +0.026 C 
ATOM      5  C   UNL     1      31.720  -5.092 -21.856  0.00  0.00    -0.040 C 
ATOM      6  C   UNL     1      32.055  -6.981 -23.293  0.00  0.00    +0.094 C 
ATOM      7  C   UNL     1      31.206  -6.334 -21.117  0.00  0.00    +0.070 C 
ATOM      8  C   UNL     1      31.596  -8.768 -21.591  0.00  0.00    +0.111 C 
ATOM      9  C   UNL     1      32.003  -9.706 -22.518  0.00  0.00    +0.106 C 
ATOM     10  C   UNL     1      31.959 -11.019 -22.097  0.00  0.00    +0.065 C 
ATOM     11  C   UNL     1      31.184 -10.392 -20.055  0.00  0.00    +0.251 C 
ENDROOT
BRANCH   4  15
ATOM     12  F   UNL     1      30.457  -3.339 -24.755  0.00  0.00    -0.204 F 
ATOM     13  F   UNL     1      35.740  -4.410 -25.683  0.00  0.00    -0.202 F 
ATOM     14  F   UNL     1      34.509  -2.346 -26.987  0.00  0.00    -0.202 F 
ATOM     15  C   UNL     1      32.380  -4.660 -24.311  0.00  0.00    +0.007 C 
ATOM     16  C   UNL     1      31.752  -3.608 -24.977  0.00  0.00    +0.138 C 
ATOM     17  C   UNL     1      33.727  -4.931 -24.550  0.00  0.00    +0.030 C 
ATOM     18  C   UNL     1      34.446  -4.150 -25.453  0.00  0.00    +0.167 C 
ATOM     19  C   UNL     1      32.471  -2.825 -25.880  0.00  0.00    +0.061 C 
ATOM     20  C   UNL     1      33.819  -3.097 -26.119  0.00  0.00    +0.170 C 
ENDBRANCH   4  15
BRANCH  10  22
ATOM     21  N   UNL     1      33.104 -14.382 -23.223  0.00  0.00    -0.210 NA
ATOM     22  C   UNL     1      32.357 -12.097 -22.971  0.00  0.00    +0.033 C 
ATOM     23  C   UNL     1      32.382 -11.929 -24.351  0.00  0.00    +0.008 C 
ATOM     24  C   UNL     1      32.724 -13.332 -22.461  0.00  0.00    +0.103 C 
ATOM     25  C   UNL     1      32.768 -12.986 -25.168  0.00  0.00    +0.058 C 
ATOM     26  C   UNL     1      33.117 -14.182 -24.560  0.00  0.00    +0.225 C 
BRANCH  26  27
ATOM     27  O   UNL     1      33.501 -15.239 -25.343  0.00  0.00    -0.456 OA
ATOM     28  C   UNL     1      33.863 -16.438 -24.669  0.00  0.00    +0.254 C 
ENDBRANCH  26  27
ENDBRANCH  10  22
BRANCH   5  29
ATOM     29  N   UNL     1      30.943  -3.905 -21.535  0.00  0.00    +0.383 N 
ATOM     30  H   UNL     1      30.034  -4.182 -21.166  0.00  0.00    -0.089 HD
ATOM     31  H   UNL     1      30.812  -3.345 -22.377  0.00  0.00    -0.089 HD
ATOM     32  H   UNL     1      31.439  -3.352 -20.834  0.00  0.00    -0.089 HD
ENDBRANCH   5  29
TORSDOF 4
ENDMDL
MODEL 8
REMARK VINA RESULT:     -10.2      6.023      9.567
REMARK  Name = 24180585
REMARK  4 active torsions:
REMARK  status: ('A' for Active; 'I' for Inactive)
REMARK    1  A    between atoms: C_4  and  C_15
REMARK    2  A    between atoms: C_5  and  N_29
REMARK    3  A    between atoms: C_10  and  C_22
REMARK    4  A    between atoms: C_26  and  O_27
REMARK                            x       y       z     vdW  Elec       q    Type
REMARK                         _______ _______ _______ _____ _____    ______ ____
ROOT
ATOM      1  N   UNL     1      33.134 -22.472 -16.642  0.00  0.00    -0.298 N 
ATOM      2  N   UNL     1      35.465 -22.303 -16.871  0.00  0.00    -0.234 NA
ATOM      3  N   UNL     1      36.385 -21.008 -18.683  0.00  0.00    -0.248 NA
ATOM      4  C   UNL     1      30.930 -23.199 -16.188  0.00  0.00    +0.026 C 
ATOM      5  C   UNL     1      31.781 -23.329 -14.914  0.00  0.00    -0.040 C 
ATOM      6  C   UNL     1      31.749 -22.199 -17.027  0.00  0.00    +0.094 C 
ATOM      7  C   UNL     1      33.212 -23.339 -15.467  0.00  0.00    +0.070 C 
ATOM      8  C   UNL     1      34.233 -21.987 -17.320  0.00  0.00    +0.111 C 
ATOM      9  C   UNL     1      33.999 -21.196 -18.426  0.00  0.00    +0.106 C 
ATOM     10  C   UNL     1      35.124 -20.731 -19.076  0.00  0.00    +0.065 C 
ATOM     11  C   UNL     1      36.480 -21.788 -17.590  0.00  0.00    +0.251 C 
ENDROOT
BRANCH   4  15
ATOM     12  F   UNL     1      30.012 -21.977 -13.799  0.00  0.00    -0.204 F 
ATOM     13  F   UNL     1      26.319 -22.813 -17.747  0.00  0.00    -0.202 F 
ATOM     14  F   UNL     1      25.569 -21.642 -15.393  0.00  0.00    -0.202 F 
ATOM     15  C   UNL     1      29.495 -22.782 -15.973  0.00  0.00    +0.007 C 
ATOM     16  C   UNL     1      29.112 -22.185 -14.772  0.00  0.00    +0.138 C 
ATOM     17  C   UNL     1      28.551 -22.993 -16.978  0.00  0.00    +0.030 C 
ATOM     18  C   UNL     1      27.226 -22.609 -16.782  0.00  0.00    +0.167 C 
ATOM     19  C   UNL     1      27.786 -21.799 -14.575  0.00  0.00    +0.061 C 
ATOM     20  C   UNL     1      26.843 -22.012 -15.581  0.00  0.00    +0.170 C 
ENDBRANCH   4  15
BRANCH  10  22
ATOM     21  N   UNL     1      33.669 -19.063 -22.075  0.00  0.00    -0.210 NA
ATOM     22  C   UNL     1      35.017 -19.895 -20.248  0.00  0.00    +0.033 C 
ATOM     23  C   UNL     1      36.094 -19.134 -20.687  0.00  0.00    +0.008 C 
ATOM     24  C   UNL     1      33.837 -19.825 -20.971  0.00  0.00    +0.103 C 
ATOM     25  C   UNL     1      35.961 -18.337 -21.819  0.00  0.00    +0.058 C 
ATOM     26  C   UNL     1      34.738 -18.337 -22.471  0.00  0.00    +0.225 C 
BRANCH  26  27
ATOM     27  O   UNL     1      34.582 -17.560 -23.589  0.00  0.00    -0.456 OA
ATOM     28  C   UNL     1      34.289 -16.184 -23.378  0.00  0.00    +0.254 C 
ENDBRANCH  26  27
ENDBRANCH  10  22
BRANCH   5  29
ATOM     29  N   UNL     1      31.485 -24.529 -14.148  0.00  0.00    +0.383 N 
ATOM     30  H   UNL     1      32.354 -24.944 -13.813  0.00  0.00    -0.089 HD
ATOM     31  H   UNL     1      30.995 -25.199 -14.741  0.00  0.00    -0.089 HD
ATOM     32  H   UNL     1      30.894 -24.288 -13.351  0.00  0.00    -0.089 HD
ENDBRANCH   5  29
TORSDOF 4
ENDMDL
MODEL 9
REMARK VINA RESULT:     -10.1      6.446     10.134
REMARK  Name = 24180585
REMARK  4 active torsions:
REMARK  status: ('A' for Active; 'I' for Inactive)
REMARK    1  A    between atoms: C_4  and  C_15
REMARK    2  A    between atoms: C_5  and  N_29
REMARK    3  A    between atoms: C_10  and  C_22
REMARK    4  A    between atoms: C_26  and  O_27
REMARK                            x       y       z     vdW  Elec       q    Type
REMARK                         _______ _______ _______ _____ _____    ______ ____
ROOT
ATOM      1  N   UNL     1      33.946 -23.098 -15.379  0.00  0.00    -0.298 N 
ATOM      2  N   UNL     1      31.824 -22.662 -16.287  0.00  0.00    -0.234 NA
ATOM      3  N   UNL     1      31.652 -21.462 -18.369  0.00  0.00    -0.248 NA
ATOM      4  C   UNL     1      35.776 -23.484 -13.932  0.00  0.00    +0.026 C 
ATOM      5  C   UNL     1      34.640 -24.463 -13.589  0.00  0.00    -0.040 C 
ATOM      6  C   UNL     1      35.408 -23.046 -15.363  0.00  0.00    +0.094 C 
ATOM      7  C   UNL     1      33.412 -23.778 -14.200  0.00  0.00    +0.070 C 
ATOM      8  C   UNL     1      33.166 -22.553 -16.377  0.00  0.00    +0.111 C 
ATOM      9  C   UNL     1      33.815 -21.923 -17.419  0.00  0.00    +0.106 C 
ATOM     10  C   UNL     1      33.000 -21.390 -18.396  0.00  0.00    +0.065 C 
ATOM     11  C   UNL     1      31.139 -22.103 -17.302  0.00  0.00    +0.251 C 
ENDROOT
BRANCH   4  15
ATOM     12  F   UNL     1      37.139 -23.706 -11.455  0.00  0.00    -0.204 F 
ATOM     13  F   UNL     1      39.802 -25.397 -15.923  0.00  0.00    -0.202 F 
ATOM     14  F   UNL     1      41.000 -25.557 -13.470  0.00  0.00    -0.202 F 
ATOM     15  C   UNL     1      37.175 -24.039 -13.806  0.00  0.00    +0.007 C 
ATOM     16  C   UNL     1      37.786 -24.120 -12.555  0.00  0.00    +0.138 C 
ATOM     17  C   UNL     1      37.856 -24.471 -14.943  0.00  0.00    +0.030 C 
ATOM     18  C   UNL     1      39.148 -24.983 -14.830  0.00  0.00    +0.167 C 
ATOM     19  C   UNL     1      39.077 -24.633 -12.440  0.00  0.00    +0.061 C 
ATOM     20  C   UNL     1      39.759 -25.064 -13.579  0.00  0.00    +0.170 C 
ENDBRANCH   4  15
BRANCH  10  22
ATOM     21  N   UNL     1      33.185 -19.427 -21.558  0.00  0.00    -0.210 NA
ATOM     22  C   UNL     1      33.554 -20.704 -19.539  0.00  0.00    +0.033 C 
ATOM     23  C   UNL     1      34.928 -20.641 -19.741  0.00  0.00    +0.008 C 
ATOM     24  C   UNL     1      32.732 -20.086 -20.468  0.00  0.00    +0.103 C 
ATOM     25  C   UNL     1      35.432 -19.972 -20.851  0.00  0.00    +0.058 C 
ATOM     26  C   UNL     1      34.527 -19.386 -21.721  0.00  0.00    +0.225 C 
BRANCH  26  27
ATOM     27  O   UNL     1      34.999 -18.721 -22.823  0.00  0.00    -0.456 OA
ATOM     28  C   UNL     1      34.561 -17.379 -22.998  0.00  0.00    +0.254 C 
ENDBRANCH  26  27
ENDBRANCH  10  22
BRANCH   5  29
ATOM     29  N   UNL     1      34.488 -24.683 -12.159  0.00  0.00    +0.383 N 
ATOM     30  H   UNL     1      34.152 -23.828 -11.717  0.00  0.00    -0.089 HD
ATOM     31  H   UNL     1      35.389 -24.942 -11.757  0.00  0.00    -0.089 HD
ATOM     32  H   UNL     1      33.816 -25.435 -11.999  0.00  0.00    -0.089 HD
ENDBRANCH   5  29
TORSDOF 4
ENDMDL
