MODEL 1
REMARK VINA RESULT:     -10.9      0.000      0.000
REMARK  Name = 24871506
REMARK  7 active torsions:
REMARK  status: ('A' for Active; 'I' for Inactive)
REMARK    1  A    between atoms: C_4  and  C_13
REMARK    2  A    between atoms: C_7  and  O_26
REMARK    3  A    between atoms: C_10  and  O_28
REMARK    4  A    between atoms: C_16  and  O_21
REMARK    5  A    between atoms: O_21  and  C_22
REMARK    6  A    between atoms: C_22  and  C_23
REMARK    7  A    between atoms: C_23  and  O_24
REMARK                            x       y       z     vdW  Elec       q    Type
REMARK                         _______ _______ _______ _____ _____    ______ ____
ROOT
ATOM      1  O   UNL     1      32.771 -14.359 -25.508  0.00  0.00    -0.209 OA
ATOM      2  N   UNL     1      33.207 -13.087 -21.736  0.00  0.00    -0.287 N 
ATOM      3  N   UNL     1      32.478 -12.694 -23.963  0.00  0.00    -0.317 NA
ATOM      4  C   UNL     1      32.638 -12.310 -22.725  0.00  0.00    +0.197 C 
ATOM      5  C   UNL     1      33.658 -14.375 -22.041  0.00  0.00    +0.068 C 
ATOM      6  C   UNL     1      33.526 -14.847 -23.352  0.00  0.00    +0.142 C 
ATOM      7  C   UNL     1      33.972 -16.125 -23.698  0.00  0.00    +0.155 C 
ATOM      8  C   UNL     1      34.249 -15.193 -21.075  0.00  0.00    +0.053 C 
ATOM      9  C   UNL     1      32.896 -13.951 -24.357  0.00  0.00    +0.210 C 
ATOM     10  C   UNL     1      34.695 -16.471 -21.417  0.00  0.00    +0.143 C 
ATOM     11  C   UNL     1      34.557 -16.936 -22.725  0.00  0.00    +0.075 C 
ATOM     12  H   UNL     1      33.294 -12.736 -20.821  0.00  0.00    +0.155 HD
ENDROOT
BRANCH   4  13
ATOM     13  C   UNL     1      32.163 -10.935 -22.371  0.00  0.00    +0.045 C 
ATOM     14  C   UNL     1      31.714  -8.647 -23.004  0.00  0.00    +0.012 C 
ATOM     15  C   UNL     1      31.282  -9.381 -20.744  0.00  0.00    +0.012 C 
ATOM     16  C   UNL     1      31.277  -8.373 -21.708  0.00  0.00    +0.131 C 
ATOM     17  C   UNL     1      32.157  -9.927 -23.336  0.00  0.00    +0.003 C 
ATOM     18  C   UNL     1      31.725 -10.662 -21.074  0.00  0.00    +0.003 C 
ATOM     19  C   UNL     1      31.715  -7.582 -24.051  0.00  0.00    +0.034 C 
ATOM     20  C   UNL     1      30.819  -9.107 -19.351  0.00  0.00    +0.034 C 
BRANCH  16  21
ATOM     21  O   UNL     1      30.844  -7.121 -21.384  0.00  0.00    -0.473 OA
BRANCH  21  22
ATOM     22  C   UNL     1      31.835  -6.105 -21.265  0.00  0.00    +0.237 C 
BRANCH  22  23
ATOM     23  C   UNL     1      31.954  -5.697 -19.809  0.00  0.00    +0.185 C 
BRANCH  23  24
ATOM     24  O   UNL     1      33.059  -6.379 -19.226  0.00  0.00    -0.378 OA
ATOM     25  H   UNL     1      32.733  -7.078 -18.638  0.00  0.00    +0.211 HD
ENDBRANCH  23  24
ENDBRANCH  22  23
ENDBRANCH  21  22
ENDBRANCH  16  21
ENDBRANCH   4  13
BRANCH   7  26
ATOM     26  O   UNL     1      33.864 -16.629 -24.959  0.00  0.00    -0.471 OA
ATOM     27  C   UNL     1      33.144 -17.851 -25.110  0.00  0.00    +0.253 C 
ENDBRANCH   7  26
BRANCH  10  28
ATOM     28  O   UNL     1      35.268 -17.266 -20.472  0.00  0.00    -0.471 OA
ATOM     29  C   UNL     1      36.049 -18.365 -20.934  0.00  0.00    +0.252 C 
ENDBRANCH  10  28
TORSDOF 7
ENDMDL
MODEL 2
REMARK VINA RESULT:     -10.1      1.234      2.119
REMARK  Name = 24871506
REMARK  7 active torsions:
REMARK  status: ('A' for Active; 'I' for Inactive)
REMARK    1  A    between atoms: C_4  and  C_13
REMARK    2  A    between atoms: C_7  and  O_26
REMARK    3  A    between atoms: C_10  and  O_28
REMARK    4  A    between atoms: C_16  and  O_21
REMARK    5  A    between atoms: O_21  and  C_22
REMARK    6  A    between atoms: C_22  and  C_23
REMARK    7  A    between atoms: C_23  and  O_24
REMARK                            x       y       z     vdW  Elec       q    Type
REMARK                         _______ _______ _______ _____ _____    ______ ____
ROOT
ATOM      1  O   UNL     1      32.929 -14.894 -25.686  0.00  0.00    -0.209 OA
ATOM      2  N   UNL     1      33.658 -13.347 -22.065  0.00  0.00    -0.287 N 
ATOM      3  N   UNL     1      32.869 -13.079 -24.290  0.00  0.00    -0.317 NA
ATOM      4  C   UNL     1      33.122 -12.606 -23.100  0.00  0.00    +0.197 C 
ATOM      5  C   UNL     1      33.968 -14.695 -22.268  0.00  0.00    +0.068 C 
ATOM      6  C   UNL     1      33.731 -15.264 -23.524  0.00  0.00    +0.142 C 
ATOM      7  C   UNL     1      34.035 -16.606 -23.768  0.00  0.00    +0.155 C 
ATOM      8  C   UNL     1      34.521 -15.481 -21.253  0.00  0.00    +0.053 C 
ATOM      9  C   UNL     1      33.145 -14.402 -24.583  0.00  0.00    +0.210 C 
ATOM     10  C   UNL     1      34.825 -16.822 -21.494  0.00  0.00    +0.143 C 
ATOM     11  C   UNL     1      34.583 -17.383 -22.748  0.00  0.00    +0.075 C 
ATOM     12  H   UNL     1      33.820 -12.928 -21.190  0.00  0.00    +0.155 HD
ENDROOT
BRANCH   4  13
ATOM     13  C   UNL     1      32.798 -11.165 -22.855  0.00  0.00    +0.045 C 
ATOM     14  C   UNL     1      31.442  -9.476 -21.784  0.00  0.00    +0.012 C 
ATOM     15  C   UNL     1      33.253  -8.824 -23.243  0.00  0.00    +0.012 C 
ATOM     16  C   UNL     1      32.197  -8.478 -22.400  0.00  0.00    +0.131 C 
ATOM     17  C   UNL     1      31.742 -10.819 -22.011  0.00  0.00    +0.003 C 
ATOM     18  C   UNL     1      33.554 -10.167 -23.471  0.00  0.00    +0.003 C 
ATOM     19  C   UNL     1      30.307  -9.127 -20.878  0.00  0.00    +0.034 C 
ATOM     20  C   UNL     1      34.072  -7.770 -23.912  0.00  0.00    +0.034 C 
BRANCH  16  21
ATOM     21  O   UNL     1      31.903  -7.165 -22.178  0.00  0.00    -0.473 OA
BRANCH  21  22
ATOM     22  C   UNL     1      30.931  -6.566 -23.031  0.00  0.00    +0.237 C 
BRANCH  22  23
ATOM     23  C   UNL     1      30.183  -5.499 -22.256  0.00  0.00    +0.185 C 
BRANCH  23  24
ATOM     24  O   UNL     1      30.079  -4.329 -23.059  0.00  0.00    -0.378 OA
ATOM     25  H   UNL     1      29.551  -4.525 -23.849  0.00  0.00    +0.211 HD
ENDBRANCH  23  24
ENDBRANCH  22  23
ENDBRANCH  21  22
ENDBRANCH  16  21
ENDBRANCH   4  13
BRANCH   7  26
ATOM     26  O   UNL     1      33.822 -17.205 -24.973  0.00  0.00    -0.471 OA
ATOM     27  C   UNL     1      32.901 -18.294 -25.002  0.00  0.00    +0.253 C 
ENDBRANCH   7  26
BRANCH  10  28
ATOM     28  O   UNL     1      35.362 -17.585 -20.501  0.00  0.00    -0.471 OA
ATOM     29  C   UNL     1      36.360 -18.532 -20.877  0.00  0.00    +0.252 C 
ENDBRANCH  10  28
TORSDOF 7
ENDMDL
MODEL 3
REMARK VINA RESULT:     -10.1      5.843      9.548
REMARK  Name = 24871506
REMARK  7 active torsions:
REMARK  status: ('A' for Active; 'I' for Inactive)
REMARK    1  A    between atoms: C_4  and  C_13
REMARK    2  A    between atoms: C_7  and  O_26
REMARK    3  A    between atoms: C_10  and  O_28
REMARK    4  A    between atoms: C_16  and  O_21
REMARK    5  A    between atoms: O_21  and  C_22
REMARK    6  A    between atoms: C_22  and  C_23
REMARK    7  A    between atoms: C_23  and  O_24
REMARK                            x       y       z     vdW  Elec       q    Type
REMARK                         _______ _______ _______ _____ _____    ______ ____
ROOT
ATOM      1  O   UNL     1      31.982 -22.184 -18.135  0.00  0.00    -0.209 OA
ATOM      2  N   UNL     1      35.435 -20.383 -19.068  0.00  0.00    -0.287 N 
ATOM      3  N   UNL     1      33.134 -20.767 -19.518  0.00  0.00    -0.317 NA
ATOM      4  C   UNL     1      34.276 -20.199 -19.796  0.00  0.00    +0.197 C 
ATOM      5  C   UNL     1      35.427 -21.231 -17.956  0.00  0.00    +0.068 C 
ATOM      6  C   UNL     1      34.237 -21.880 -17.607  0.00  0.00    +0.142 C 
ATOM      7  C   UNL     1      34.190 -22.741 -16.508  0.00  0.00    +0.155 C 
ATOM      8  C   UNL     1      36.577 -21.455 -17.196  0.00  0.00    +0.053 C 
ATOM      9  C   UNL     1      33.031 -21.623 -18.437  0.00  0.00    +0.210 C 
ATOM     10  C   UNL     1      36.534 -22.314 -16.096  0.00  0.00    +0.143 C 
ATOM     11  C   UNL     1      35.344 -22.955 -15.753  0.00  0.00    +0.075 C 
ATOM     12  H   UNL     1      36.263 -19.920 -19.331  0.00  0.00    +0.155 HD
ENDROOT
BRANCH   4  13
ATOM     13  C   UNL     1      34.314 -19.285 -20.982  0.00  0.00    +0.045 C 
ATOM     14  C   UNL     1      34.270 -18.960 -23.375  0.00  0.00    +0.012 C 
ATOM     15  C   UNL     1      34.461 -17.056 -21.901  0.00  0.00    +0.012 C 
ATOM     16  C   UNL     1      34.383 -17.582 -23.191  0.00  0.00    +0.131 C 
ATOM     17  C   UNL     1      34.235 -19.812 -22.272  0.00  0.00    +0.003 C 
ATOM     18  C   UNL     1      34.427 -17.907 -20.797  0.00  0.00    +0.003 C 
ATOM     19  C   UNL     1      34.184 -19.542 -24.748  0.00  0.00    +0.034 C 
ATOM     20  C   UNL     1      34.584 -15.584 -21.683  0.00  0.00    +0.034 C 
BRANCH  16  21
ATOM     21  O   UNL     1      34.417 -16.749 -24.270  0.00  0.00    -0.473 OA
BRANCH  21  22
ATOM     22  C   UNL     1      33.168 -16.260 -24.750  0.00  0.00    +0.237 C 
BRANCH  22  23
ATOM     23  C   UNL     1      33.216 -14.746 -24.803  0.00  0.00    +0.185 C 
BRANCH  23  24
ATOM     24  O   UNL     1      33.095 -14.324 -26.157  0.00  0.00    -0.378 OA
ATOM     25  H   UNL     1      32.505 -14.930 -26.631  0.00  0.00    +0.211 HD
ENDBRANCH  23  24
ENDBRANCH  22  23
ENDBRANCH  21  22
ENDBRANCH  16  21
ENDBRANCH   4  13
BRANCH   7  26
ATOM     26  O   UNL     1      33.057 -23.394 -16.128  0.00  0.00    -0.471 OA
ATOM     27  C   UNL     1      32.559 -23.122 -14.819  0.00  0.00    +0.253 C 
ENDBRANCH   7  26
BRANCH  10  28
ATOM     28  O   UNL     1      37.657 -22.528 -15.357  0.00  0.00    -0.471 OA
ATOM     29  C   UNL     1      37.714 -23.733 -14.596  0.00  0.00    +0.252 C 
ENDBRANCH  10  28
TORSDOF 7
ENDMDL
MODEL 4
REMARK VINA RESULT:     -10.0      7.100     11.751
REMARK  Name = 24871506
REMARK  7 active torsions:
REMARK  status: ('A' for Active; 'I' for Inactive)
REMARK    1  A    between atoms: C_4  and  C_13
REMARK    2  A    between atoms: C_7  and  O_26
REMARK    3  A    between atoms: C_10  and  O_28
REMARK    4  A    between atoms: C_16  and  O_21
REMARK    5  A    between atoms: O_21  and  C_22
REMARK    6  A    between atoms: C_22  and  C_23
REMARK    7  A    between atoms: C_23  and  O_24
REMARK                            x       y       z     vdW  Elec       q    Type
REMARK                         _______ _______ _______ _____ _____    ______ ____
ROOT
ATOM      1  O   UNL     1      38.298 -22.441 -15.748  0.00  0.00    -0.209 OA
ATOM      2  N   UNL     1      34.432 -22.020 -16.703  0.00  0.00    -0.287 N 
ATOM      3  N   UNL     1      36.723 -21.642 -17.207  0.00  0.00    -0.317 NA
ATOM      4  C   UNL     1      35.453 -21.521 -17.487  0.00  0.00    +0.197 C 
ATOM      5  C   UNL     1      34.737 -22.704 -15.522  0.00  0.00    +0.068 C 
ATOM      6  C   UNL     1      36.078 -22.863 -15.158  0.00  0.00    +0.142 C 
ATOM      7  C   UNL     1      36.423 -23.533 -13.981  0.00  0.00    +0.155 C 
ATOM      8  C   UNL     1      33.736 -23.219 -14.694  0.00  0.00    +0.053 C 
ATOM      9  C   UNL     1      37.119 -22.302 -16.058  0.00  0.00    +0.210 C 
ATOM     10  C   UNL     1      34.077 -23.890 -13.518  0.00  0.00    +0.143 C 
ATOM     11  C   UNL     1      35.416 -24.047 -13.162  0.00  0.00    +0.075 C 
ATOM     12  H   UNL     1      33.494 -21.897 -16.976  0.00  0.00    +0.155 HD
ENDROOT
BRANCH   4  13
ATOM     13  C   UNL     1      35.099 -20.793 -18.746  0.00  0.00    +0.045 C 
ATOM     14  C   UNL     1      33.448 -20.095 -20.367  0.00  0.00    +0.012 C 
ATOM     15  C   UNL     1      35.760 -19.456 -20.646  0.00  0.00    +0.012 C 
ATOM     16  C   UNL     1      34.439 -19.437 -21.094  0.00  0.00    +0.131 C 
ATOM     17  C   UNL     1      33.777 -20.773 -19.193  0.00  0.00    +0.003 C 
ATOM     18  C   UNL     1      36.090 -20.134 -19.473  0.00  0.00    +0.003 C 
ATOM     19  C   UNL     1      32.028 -20.085 -20.829  0.00  0.00    +0.034 C 
ATOM     20  C   UNL     1      36.836 -18.759 -21.412  0.00  0.00    +0.034 C 
BRANCH  16  21
ATOM     21  O   UNL     1      34.118 -18.774 -22.241  0.00  0.00    -0.473 OA
BRANCH  21  22
ATOM     22  C   UNL     1      34.232 -17.354 -22.222  0.00  0.00    +0.237 C 
BRANCH  22  23
ATOM     23  C   UNL     1      34.226 -16.837 -23.648  0.00  0.00    +0.185 C 
BRANCH  23  24
ATOM     24  O   UNL     1      34.976 -15.629 -23.707  0.00  0.00    -0.378 OA
ATOM     25  H   UNL     1      35.261 -15.470 -24.620  0.00  0.00    +0.211 HD
ENDBRANCH  23  24
ENDBRANCH  22  23
ENDBRANCH  21  22
ENDBRANCH  16  21
ENDBRANCH   4  13
BRANCH   7  26
ATOM     26  O   UNL     1      37.713 -23.714 -13.584  0.00  0.00    -0.471 OA
ATOM     27  C   UNL     1      38.122 -25.049 -13.293  0.00  0.00    +0.253 C 
ENDBRANCH   7  26
BRANCH  10  28
ATOM     28  O   UNL     1      33.098 -24.392 -12.714  0.00  0.00    -0.471 OA
ATOM     29  C   UNL     1      31.787 -24.481 -13.267  0.00  0.00    +0.252 C 
ENDBRANCH  10  28
TORSDOF 7
ENDMDL
MODEL 5
REMARK VINA RESULT:      -9.8      5.819      9.669
REMARK  Name = 24871506
REMARK  7 active torsions:
REMARK  status: ('A' for Active; 'I' for Inactive)
REMARK    1  A    between atoms: C_4  and  C_13
REMARK    2  A    between atoms: C_7  and  O_26
REMARK    3  A    between atoms: C_10  and  O_28
REMARK    4  A    between atoms: C_16  and  O_21
REMARK    5  A    between atoms: O_21  and  C_22
REMARK    6  A    between atoms: C_22  and  C_23
REMARK    7  A    between atoms: C_23  and  O_24
REMARK                            x       y       z     vdW  Elec       q    Type
REMARK                         _______ _______ _______ _____ _____    ______ ____
ROOT
ATOM      1  O   UNL     1      36.745 -21.555 -17.645  0.00  0.00    -0.209 OA
ATOM      2  N   UNL     1      33.220 -20.675 -19.331  0.00  0.00    -0.287 N 
ATOM      3  N   UNL     1      35.583 -20.439 -19.275  0.00  0.00    -0.317 NA
ATOM      4  C   UNL     1      34.418 -20.171 -19.797  0.00  0.00    +0.197 C 
ATOM      5  C   UNL     1      33.213 -21.529 -18.223  0.00  0.00    +0.068 C 
ATOM      6  C   UNL     1      34.428 -21.851 -17.608  0.00  0.00    +0.142 C 
ATOM      7  C   UNL     1      34.462 -22.695 -16.495  0.00  0.00    +0.155 C 
ATOM      8  C   UNL     1      32.025 -22.055 -17.710  0.00  0.00    +0.053 C 
ATOM      9  C   UNL     1      35.674 -21.273 -18.175  0.00  0.00    +0.210 C 
ATOM     10  C   UNL     1      32.055 -22.899 -16.599  0.00  0.00    +0.143 C 
ATOM     11  C   UNL     1      33.270 -23.218 -15.992  0.00  0.00    +0.075 C 
ATOM     12  H   UNL     1      32.376 -20.434 -19.775  0.00  0.00    +0.155 HD
ENDROOT
BRANCH   4  13
ATOM     13  C   UNL     1      34.396 -19.259 -20.985  0.00  0.00    +0.045 C 
ATOM     14  C   UNL     1      34.251 -18.937 -23.375  0.00  0.00    +0.012 C 
ATOM     15  C   UNL     1      34.478 -17.029 -21.912  0.00  0.00    +0.012 C 
ATOM     16  C   UNL     1      34.355 -17.558 -23.197  0.00  0.00    +0.131 C 
ATOM     17  C   UNL     1      34.271 -19.788 -22.270  0.00  0.00    +0.003 C 
ATOM     18  C   UNL     1      34.499 -17.879 -20.806  0.00  0.00    +0.003 C 
ATOM     19  C   UNL     1      34.117 -19.523 -24.743  0.00  0.00    +0.034 C 
ATOM     20  C   UNL     1      34.593 -15.556 -21.700  0.00  0.00    +0.034 C 
BRANCH  16  21
ATOM     21  O   UNL     1      34.336 -16.727 -24.277  0.00  0.00    -0.473 OA
BRANCH  21  22
ATOM     22  C   UNL     1      33.069 -16.206 -24.671  0.00  0.00    +0.237 C 
BRANCH  22  23
ATOM     23  C   UNL     1      33.167 -14.698 -24.786  0.00  0.00    +0.185 C 
BRANCH  23  24
ATOM     24  O   UNL     1      33.116 -14.333 -26.161  0.00  0.00    -0.378 OA
ATOM     25  H   UNL     1      32.289 -13.859 -26.338  0.00  0.00    +0.211 HD
ENDBRANCH  23  24
ENDBRANCH  22  23
ENDBRANCH  21  22
ENDBRANCH  16  21
ENDBRANCH   4  13
BRANCH   7  26
ATOM     26  O   UNL     1      35.619 -23.038 -15.863  0.00  0.00    -0.471 OA
ATOM     27  C   UNL     1      35.716 -22.729 -14.474  0.00  0.00    +0.253 C 
ENDBRANCH   7  26
BRANCH  10  28
ATOM     28  O   UNL     1      30.895 -23.412 -16.103  0.00  0.00    -0.471 OA
ATOM     29  C   UNL     1      29.763 -22.546 -16.075  0.00  0.00    +0.252 C 
ENDBRANCH  10  28
TORSDOF 7
ENDMDL
MODEL 6
REMARK VINA RESULT:      -9.7      8.271     11.984
REMARK  Name = 24871506
REMARK  7 active torsions:
REMARK  status: ('A' for Active; 'I' for Inactive)
REMARK    1  A    between atoms: C_4  and  C_13
REMARK    2  A    between atoms: C_7  and  O_26
REMARK    3  A    between atoms: C_10  and  O_28
REMARK    4  A    between atoms: C_16  and  O_21
REMARK    5  A    between atoms: O_21  and  C_22
REMARK    6  A    between atoms: C_22  and  C_23
REMARK    7  A    between atoms: C_23  and  O_24
REMARK                            x       y       z     vdW  Elec       q    Type
REMARK                         _______ _______ _______ _____ _____    ______ ____
ROOT
ATOM      1  O   UNL     1      33.483 -23.475 -14.940  0.00  0.00    -0.209 OA
ATOM      2  N   UNL     1      36.525 -22.003 -17.089  0.00  0.00    -0.287 N 
ATOM      3  N   UNL     1      34.188 -22.245 -16.739  0.00  0.00    -0.317 NA
ATOM      4  C   UNL     1      35.202 -21.783 -17.418  0.00  0.00    +0.197 C 
ATOM      5  C   UNL     1      36.839 -22.770 -15.962  0.00  0.00    +0.068 C 
ATOM      6  C   UNL     1      35.799 -23.304 -15.194  0.00  0.00    +0.142 C 
ATOM      7  C   UNL     1      36.072 -24.082 -14.066  0.00  0.00    +0.155 C 
ATOM      8  C   UNL     1      38.163 -23.026 -15.595  0.00  0.00    +0.053 C 
ATOM      9  C   UNL     1      34.402 -23.016 -15.611  0.00  0.00    +0.210 C 
ATOM     10  C   UNL     1      38.439 -23.803 -14.469  0.00  0.00    +0.143 C 
ATOM     11  C   UNL     1      37.397 -24.330 -13.706  0.00  0.00    +0.075 C 
ATOM     12  H   UNL     1      37.243 -21.621 -17.643  0.00  0.00    +0.155 HD
ENDROOT
BRANCH   4  13
ATOM     13  C   UNL     1      34.894 -20.958 -18.629  0.00  0.00    +0.045 C 
ATOM     14  C   UNL     1      35.624 -19.482 -20.398  0.00  0.00    +0.012 C 
ATOM     15  C   UNL     1      33.302 -20.128 -20.245  0.00  0.00    +0.012 C 
ATOM     16  C   UNL     1      34.319 -19.420 -20.885  0.00  0.00    +0.131 C 
ATOM     17  C   UNL     1      35.912 -20.250 -19.270  0.00  0.00    +0.003 C 
ATOM     18  C   UNL     1      33.589 -20.896 -19.117  0.00  0.00    +0.003 C 
ATOM     19  C   UNL     1      36.727 -18.732 -21.069  0.00  0.00    +0.034 C 
ATOM     20  C   UNL     1      31.898 -20.073 -20.752  0.00  0.00    +0.034 C 
BRANCH  16  21
ATOM     21  O   UNL     1      34.038 -18.669 -21.988  0.00  0.00    -0.473 OA
BRANCH  21  22
ATOM     22  C   UNL     1      34.293 -19.262 -23.258  0.00  0.00    +0.237 C 
BRANCH  22  23
ATOM     23  C   UNL     1      33.336 -18.678 -24.279  0.00  0.00    +0.185 C 
BRANCH  23  24
ATOM     24  O   UNL     1      33.757 -17.359 -24.609  0.00  0.00    -0.378 OA
ATOM     25  H   UNL     1      33.151 -16.982 -25.266  0.00  0.00    +0.211 HD
ENDBRANCH  23  24
ENDBRANCH  22  23
ENDBRANCH  21  22
ENDBRANCH  16  21
ENDBRANCH   4  13
BRANCH   7  26
ATOM     26  O   UNL     1      35.094 -24.622 -13.286  0.00  0.00    -0.471 OA
ATOM     27  C   UNL     1      35.094 -24.264 -11.906  0.00  0.00    +0.253 C 
ENDBRANCH   7  26
BRANCH  10  28
ATOM     28  O   UNL     1      39.731 -24.049 -14.114  0.00  0.00    -0.471 OA
ATOM     29  C   UNL     1      40.200 -25.388 -14.256  0.00  0.00    +0.252 C 
ENDBRANCH  10  28
TORSDOF 7
ENDMDL
MODEL 7
REMARK VINA RESULT:      -9.6      7.192     11.970
REMARK  Name = 24871506
REMARK  7 active torsions:
REMARK  status: ('A' for Active; 'I' for Inactive)
REMARK    1  A    between atoms: C_4  and  C_13
REMARK    2  A    between atoms: C_7  and  O_26
REMARK    3  A    between atoms: C_10  and  O_28
REMARK    4  A    between atoms: C_16  and  O_21
REMARK    5  A    between atoms: O_21  and  C_22
REMARK    6  A    between atoms: C_22  and  C_23
REMARK    7  A    between atoms: C_23  and  O_24
REMARK                            x       y       z     vdW  Elec       q    Type
REMARK                         _______ _______ _______ _____ _____    ______ ____
ROOT
ATOM      1  O   UNL     1      33.426 -23.512 -14.745  0.00  0.00    -0.209 OA
ATOM      2  N   UNL     1      36.501 -22.129 -16.908  0.00  0.00    -0.287 N 
ATOM      3  N   UNL     1      34.158 -22.339 -16.573  0.00  0.00    -0.317 NA
ATOM      4  C   UNL     1      35.183 -21.906 -17.255  0.00  0.00    +0.197 C 
ATOM      5  C   UNL     1      36.798 -22.867 -15.758  0.00  0.00    +0.068 C 
ATOM      6  C   UNL     1      35.746 -23.369 -14.984  0.00  0.00    +0.142 C 
ATOM      7  C   UNL     1      36.002 -24.118 -13.832  0.00  0.00    +0.155 C 
ATOM      8  C   UNL     1      38.116 -23.125 -15.372  0.00  0.00    +0.053 C 
ATOM      9  C   UNL     1      34.355 -23.080 -15.422  0.00  0.00    +0.210 C 
ATOM     10  C   UNL     1      38.375 -23.872 -14.222  0.00  0.00    +0.143 C 
ATOM     11  C   UNL     1      37.321 -24.367 -13.454  0.00  0.00    +0.075 C 
ATOM     12  H   UNL     1      37.227 -21.770 -17.467  0.00  0.00    +0.155 HD
ENDROOT
BRANCH   4  13
ATOM     13  C   UNL     1      34.893 -21.113 -18.492  0.00  0.00    +0.045 C 
ATOM     14  C   UNL     1      33.318 -20.281 -20.124  0.00  0.00    +0.012 C 
ATOM     15  C   UNL     1      35.661 -19.725 -20.314  0.00  0.00    +0.012 C 
ATOM     16  C   UNL     1      34.355 -19.634 -20.796  0.00  0.00    +0.131 C 
ATOM     17  C   UNL     1      33.587 -21.021 -18.973  0.00  0.00    +0.003 C 
ATOM     18  C   UNL     1      35.930 -20.465 -19.163  0.00  0.00    +0.003 C 
ATOM     19  C   UNL     1      31.913 -20.194 -20.623  0.00  0.00    +0.034 C 
ATOM     20  C   UNL     1      36.784 -19.041 -21.020  0.00  0.00    +0.034 C 
BRANCH  16  21
ATOM     21  O   UNL     1      34.092 -18.911 -21.922  0.00  0.00    -0.473 OA
BRANCH  21  22
ATOM     22  C   UNL     1      34.280 -17.501 -21.844  0.00  0.00    +0.237 C 
BRANCH  22  23
ATOM     23  C   UNL     1      34.522 -16.955 -23.238  0.00  0.00    +0.185 C 
BRANCH  23  24
ATOM     24  O   UNL     1      34.901 -15.587 -23.142  0.00  0.00    -0.378 OA
ATOM     25  H   UNL     1      35.306 -15.305 -23.976  0.00  0.00    +0.211 HD
ENDBRANCH  23  24
ENDBRANCH  22  23
ENDBRANCH  21  22
ENDBRANCH  16  21
ENDBRANCH   4  13
BRANCH   7  26
ATOM     26  O   UNL     1      35.013 -24.626 -13.046  0.00  0.00    -0.471 OA
ATOM     27  C   UNL     1      35.023 -24.254 -11.669  0.00  0.00    +0.253 C 
ENDBRANCH   7  26
BRANCH  10  28
ATOM     28  O   UNL     1      39.661 -24.120 -13.849  0.00  0.00    -0.471 OA
ATOM     29  C   UNL     1      40.198 -25.399 -14.177  0.00  0.00    +0.252 C 
ENDBRANCH  10  28
TORSDOF 7
ENDMDL
MODEL 8
REMARK VINA RESULT:      -8.9      6.734     10.724
REMARK  Name = 24871506
REMARK  7 active torsions:
REMARK  status: ('A' for Active; 'I' for Inactive)
REMARK    1  A    between atoms: C_4  and  C_13
REMARK    2  A    between atoms: C_7  and  O_26
REMARK    3  A    between atoms: C_10  and  O_28
REMARK    4  A    between atoms: C_16  and  O_21
REMARK    5  A    between atoms: O_21  and  C_22
REMARK    6  A    between atoms: C_22  and  C_23
REMARK    7  A    between atoms: C_23  and  O_24
REMARK                            x       y       z     vdW  Elec       q    Type
REMARK                         _______ _______ _______ _____ _____    ______ ____
ROOT
ATOM      1  O   UNL     1      32.352 -22.944 -17.051  0.00  0.00    -0.209 OA
ATOM      2  N   UNL     1      35.844 -21.209 -17.966  0.00  0.00    -0.287 N 
ATOM      3  N   UNL     1      33.553 -21.596 -18.461  0.00  0.00    -0.317 NA
ATOM      4  C   UNL     1      34.707 -21.049 -18.732  0.00  0.00    +0.197 C 
ATOM      5  C   UNL     1      35.798 -22.008 -16.819  0.00  0.00    +0.068 C 
ATOM      6  C   UNL     1      34.594 -22.633 -16.475  0.00  0.00    +0.142 C 
ATOM      7  C   UNL     1      34.511 -23.445 -15.340  0.00  0.00    +0.155 C 
ATOM      8  C   UNL     1      36.926 -22.207 -16.018  0.00  0.00    +0.053 C 
ATOM      9  C   UNL     1      33.413 -22.404 -17.348  0.00  0.00    +0.210 C 
ATOM     10  C   UNL     1      36.846 -23.017 -14.884  0.00  0.00    +0.143 C 
ATOM     11  C   UNL     1      35.641 -23.634 -14.546  0.00  0.00    +0.075 C 
ATOM     12  H   UNL     1      36.682 -20.764 -18.225  0.00  0.00    +0.155 HD
ENDROOT
BRANCH   4  13
ATOM     13  C   UNL     1      34.784 -20.188 -19.955  0.00  0.00    +0.045 C 
ATOM     14  C   UNL     1      36.036 -18.712 -21.400  0.00  0.00    +0.012 C 
ATOM     15  C   UNL     1      33.744 -19.260 -21.928  0.00  0.00    +0.012 C 
ATOM     16  C   UNL     1      34.925 -18.584 -22.234  0.00  0.00    +0.131 C 
ATOM     17  C   UNL     1      35.966 -19.513 -20.261  0.00  0.00    +0.003 C 
ATOM     18  C   UNL     1      33.673 -20.061 -20.789  0.00  0.00    +0.003 C 
ATOM     19  C   UNL     1      37.310 -17.997 -21.711  0.00  0.00    +0.034 C 
ATOM     20  C   UNL     1      32.544 -19.135 -22.808  0.00  0.00    +0.034 C 
BRANCH  16  21
ATOM     21  O   UNL     1      34.994 -17.801 -23.348  0.00  0.00    -0.473 OA
BRANCH  21  22
ATOM     22  C   UNL     1      34.437 -16.493 -23.255  0.00  0.00    +0.237 C 
BRANCH  22  23
ATOM     23  C   UNL     1      34.185 -15.961 -24.652  0.00  0.00    +0.185 C 
BRANCH  23  24
ATOM     24  O   UNL     1      32.840 -16.245 -25.021  0.00  0.00    -0.378 OA
ATOM     25  H   UNL     1      32.805 -16.477 -25.962  0.00  0.00    +0.211 HD
ENDBRANCH  23  24
ENDBRANCH  22  23
ENDBRANCH  21  22
ENDBRANCH  16  21
ENDBRANCH   4  13
BRANCH   7  26
ATOM     26  O   UNL     1      33.362 -24.072 -14.965  0.00  0.00    -0.471 OA
ATOM     27  C   UNL     1      32.949 -23.912 -13.609  0.00  0.00    +0.253 C 
ENDBRANCH   7  26
BRANCH  10  28
ATOM     28  O   UNL     1      37.947 -23.206 -14.105  0.00  0.00    -0.471 OA
ATOM     29  C   UNL     1      37.736 -23.746 -12.803  0.00  0.00    +0.252 C 
ENDBRANCH  10  28
TORSDOF 7
ENDMDL
MODEL 9
REMARK VINA RESULT:      -8.8      1.882      8.927
REMARK  Name = 24871506
REMARK  7 active torsions:
REMARK  status: ('A' for Active; 'I' for Inactive)
REMARK    1  A    between atoms: C_4  and  C_13
REMARK    2  A    between atoms: C_7  and  O_26
REMARK    3  A    between atoms: C_10  and  O_28
REMARK    4  A    between atoms: C_16  and  O_21
REMARK    5  A    between atoms: O_21  and  C_22
REMARK    6  A    between atoms: C_22  and  C_23
REMARK    7  A    between atoms: C_23  and  O_24
REMARK                            x       y       z     vdW  Elec       q    Type
REMARK                         _______ _______ _______ _____ _____    ______ ____
ROOT
ATOM      1  O   UNL     1      31.141  -8.041 -19.830  0.00  0.00    -0.209 OA
ATOM      2  N   UNL     1      32.044  -9.402 -23.486  0.00  0.00    -0.287 N 
ATOM      3  N   UNL     1      31.791  -9.792 -21.157  0.00  0.00    -0.317 NA
ATOM      4  C   UNL     1      32.081 -10.202 -22.362  0.00  0.00    +0.197 C 
ATOM      5  C   UNL     1      31.679  -8.057 -23.367  0.00  0.00    +0.068 C 
ATOM      6  C   UNL     1      31.364  -7.550 -22.102  0.00  0.00    +0.142 C 
ATOM      7  C   UNL     1      31.002  -6.209 -21.941  0.00  0.00    +0.155 C 
ATOM      8  C   UNL     1      31.636  -7.208 -24.476  0.00  0.00    +0.053 C 
ATOM      9  C   UNL     1      31.421  -8.477 -20.942  0.00  0.00    +0.210 C 
ATOM     10  C   UNL     1      31.275  -5.869 -24.319  0.00  0.00    +0.143 C 
ATOM     11  C   UNL     1      30.959  -5.370 -23.055  0.00  0.00    +0.075 C 
ATOM     12  H   UNL     1      32.272  -9.777 -24.367  0.00  0.00    +0.155 HD
ENDROOT
BRANCH   4  13
ATOM     13  C   UNL     1      32.475 -11.638 -22.518  0.00  0.00    +0.045 C 
ATOM     14  C   UNL     1      32.971 -13.530 -23.936  0.00  0.00    +0.012 C 
ATOM     15  C   UNL     1      33.079 -13.760 -21.534  0.00  0.00    +0.012 C 
ATOM     16  C   UNL     1      33.208 -14.315 -22.807  0.00  0.00    +0.131 C 
ATOM     17  C   UNL     1      32.605 -12.192 -23.792  0.00  0.00    +0.003 C 
ATOM     18  C   UNL     1      32.712 -12.422 -21.389  0.00  0.00    +0.003 C 
ATOM     19  C   UNL     1      33.105 -14.105 -25.307  0.00  0.00    +0.034 C 
ATOM     20  C   UNL     1      33.326 -14.584 -20.314  0.00  0.00    +0.034 C 
BRANCH  16  21
ATOM     21  O   UNL     1      33.566 -15.623 -22.948  0.00  0.00    -0.473 OA
BRANCH  21  22
ATOM     22  C   UNL     1      34.929 -15.951 -22.697  0.00  0.00    +0.237 C 
BRANCH  22  23
ATOM     23  C   UNL     1      35.001 -17.341 -22.094  0.00  0.00    +0.185 C 
BRANCH  23  24
ATOM     24  O   UNL     1      35.393 -17.235 -20.730  0.00  0.00    -0.378 OA
ATOM     25  H   UNL     1      36.356 -17.139 -20.677  0.00  0.00    +0.211 HD
ENDBRANCH  23  24
ENDBRANCH  22  23
ENDBRANCH  21  22
ENDBRANCH  16  21
ENDBRANCH   4  13
BRANCH   7  26
ATOM     26  O   UNL     1      30.686  -5.670 -20.732  0.00  0.00    -0.471 OA
ATOM     27  C   UNL     1      30.125  -4.358 -20.733  0.00  0.00    +0.253 C 
ENDBRANCH   7  26
BRANCH  10  28
ATOM     28  O   UNL     1      31.232  -5.045 -25.403  0.00  0.00    -0.471 OA
ATOM     29  C   UNL     1      32.340  -5.095 -26.300  0.00  0.00    +0.252 C 
ENDBRANCH  10  28
TORSDOF 7
ENDMDL
