MODEL 1
REMARK VINA RESULT:     -11.3      0.000      0.000
REMARK  Name = 445958
REMARK  8 active torsions:
REMARK  status: ('A' for Active; 'I' for Inactive)
REMARK    1  A    between atoms: N_2  and  C_15
REMARK    2  A    between atoms: N_3  and  C_28
REMARK    3  A    between atoms: C_12  and  O_18
REMARK    4  A    between atoms: O_18  and  C_19
REMARK    5  A    between atoms: C_19  and  C_20
REMARK    6  A    between atoms: C_20  and  O_21
REMARK    7  A    between atoms: C_20  and  C_23
REMARK    8  A    between atoms: C_23  and  N_24
REMARK                            x       y       z     vdW  Elec       q    Type
REMARK                         _______ _______ _______ _____ _____    ______ ____
ROOT
ATOM      1 BR   UNL     1      31.006 -24.301 -12.765  0.00  0.00    -0.043 Br
ATOM      2  N   UNL     1      31.627 -21.797 -18.161  0.00  0.00    -0.247 N 
ATOM      3  N   UNL     1      33.600 -23.125 -14.097  0.00  0.00    -0.287 N 
ATOM      4  N   UNL     1      32.616 -22.457 -16.138  0.00  0.00    -0.321 NA
ATOM      5  N   UNL     1      30.267 -22.817 -16.544  0.00  0.00    -0.169 NA
ATOM      6  C   UNL     1      31.497 -22.384 -16.888  0.00  0.00    +0.150 C 
ATOM      7  C   UNL     1      32.454 -23.025 -14.925  0.00  0.00    +0.204 C 
ATOM      8  C   UNL     1      31.248 -23.505 -14.457  0.00  0.00    +0.099 C 
ATOM      9  C   UNL     1      30.178 -23.373 -15.318  0.00  0.00    +0.122 C 
ATOM     10  H   UNL     1      30.786 -21.765 -18.671  0.00  0.00    +0.165 HD
ATOM     11  H   UNL     1      33.397 -23.091 -13.134  0.00  0.00    +0.155 HD
ENDROOT
BRANCH   2  15
ATOM     12  C   UNL     1      34.897 -20.154 -20.207  0.00  0.00    +0.139 C 
ATOM     13  C   UNL     1      33.607 -19.737 -20.521  0.00  0.00    +0.038 C 
ATOM     14  C   UNL     1      35.111 -21.110 -19.221  0.00  0.00    +0.038 C 
ATOM     15  C   UNL     1      32.728 -21.244 -18.850  0.00  0.00    +0.058 C 
ATOM     16  C   UNL     1      32.520 -20.284 -19.840  0.00  0.00    +0.018 C 
ATOM     17  C   UNL     1      34.024 -21.657 -18.540  0.00  0.00    +0.018 C 
BRANCH  12  18
ATOM     18  O   UNL     1      35.965 -19.618 -20.876  0.00  0.00    -0.473 OA
BRANCH  18  19
ATOM     19  C   UNL     1      36.112 -18.202 -20.817  0.00  0.00    +0.232 C 
BRANCH  19  20
ATOM     20  C   UNL     1      35.794 -17.617 -22.191  0.00  0.00    +0.133 C 
BRANCH  20  21
ATOM     21  O   UNL     1      35.473 -18.688 -23.083  0.00  0.00    -0.383 OA
ATOM     22  H   UNL     1      36.226 -18.853 -23.673  0.00  0.00    +0.210 HD
ENDBRANCH  20  21
BRANCH  20  23
ATOM     23  C   UNL     1      34.616 -16.639 -22.175  0.00  0.00    -0.044 C 
BRANCH  23  24
ATOM     24  N   UNL     1      34.728 -15.630 -23.219  0.00  0.00    +0.386 N 
ATOM     25  C   UNL     1      34.157 -14.358 -22.771  0.00  0.00    -0.101 C 
ATOM     26  C   UNL     1      34.063 -16.079 -24.444  0.00  0.00    -0.101 C 
ATOM     27  H   UNL     1      35.718 -15.490 -23.419  0.00  0.00    -0.080 HD
ENDBRANCH  23  24
ENDBRANCH  20  23
ENDBRANCH  19  20
ENDBRANCH  18  19
ENDBRANCH  12  18
ENDBRANCH   2  15
BRANCH   3  28
ATOM     28  C   UNL     1      34.967 -23.263 -14.385  0.00  0.00    +0.050 C 
ATOM     29  C   UNL     1      35.657 -22.234 -15.031  0.00  0.00    +0.015 C 
ATOM     30  C   UNL     1      35.648 -24.430 -14.026  0.00  0.00    +0.015 C 
ATOM     31  C   UNL     1      37.015 -22.370 -15.318  0.00  0.00    +0.001 C 
ATOM     32  C   UNL     1      37.005 -24.567 -14.312  0.00  0.00    +0.001 C 
ATOM     33  C   UNL     1      37.690 -23.537 -14.958  0.00  0.00    +0.000 C 
ENDBRANCH   3  28
TORSDOF 8
ENDMDL
MODEL 2
REMARK VINA RESULT:     -10.5      1.865      4.060
REMARK  Name = 445958
REMARK  8 active torsions:
REMARK  status: ('A' for Active; 'I' for Inactive)
REMARK    1  A    between atoms: N_2  and  C_15
REMARK    2  A    between atoms: N_3  and  C_28
REMARK    3  A    between atoms: C_12  and  O_18
REMARK    4  A    between atoms: O_18  and  C_19
REMARK    5  A    between atoms: C_19  and  C_20
REMARK    6  A    between atoms: C_20  and  O_21
REMARK    7  A    between atoms: C_20  and  C_23
REMARK    8  A    between atoms: C_23  and  N_24
REMARK                            x       y       z     vdW  Elec       q    Type
REMARK                         _______ _______ _______ _____ _____    ______ ____
ROOT
ATOM      1 BR   UNL     1      35.682 -24.737 -12.386  0.00  0.00    -0.043 Br
ATOM      2  N   UNL     1      36.749 -21.451 -17.269  0.00  0.00    -0.247 N 
ATOM      3  N   UNL     1      33.659 -23.799 -14.603  0.00  0.00    -0.287 N 
ATOM      4  N   UNL     1      35.205 -22.620 -15.944  0.00  0.00    -0.321 NA
ATOM      5  N   UNL     1      37.530 -22.496 -15.318  0.00  0.00    -0.169 NA
ATOM      6  C   UNL     1      36.483 -22.225 -16.123  0.00  0.00    +0.150 C 
ATOM      7  C   UNL     1      34.986 -23.359 -14.837  0.00  0.00    +0.204 C 
ATOM      8  C   UNL     1      35.973 -23.704 -13.937  0.00  0.00    +0.099 C 
ATOM      9  C   UNL     1      37.238 -23.240 -14.231  0.00  0.00    +0.122 C 
ATOM     10  H   UNL     1      37.694 -21.188 -17.358  0.00  0.00    +0.165 HD
ATOM     11  H   UNL     1      33.605 -24.654 -14.118  0.00  0.00    +0.155 HD
ENDROOT
BRANCH   2  15
ATOM     12  C   UNL     1      34.312 -20.045 -20.376  0.00  0.00    +0.139 C 
ATOM     13  C   UNL     1      33.811 -20.981 -19.477  0.00  0.00    +0.038 C 
ATOM     14  C   UNL     1      35.613 -19.572 -20.254  0.00  0.00    +0.038 C 
ATOM     15  C   UNL     1      35.929 -20.978 -18.315  0.00  0.00    +0.058 C 
ATOM     16  C   UNL     1      34.622 -21.448 -18.443  0.00  0.00    +0.018 C 
ATOM     17  C   UNL     1      36.425 -20.039 -19.220  0.00  0.00    +0.018 C 
BRANCH  12  18
ATOM     18  O   UNL     1      33.515 -19.586 -21.392  0.00  0.00    -0.473 OA
BRANCH  18  19
ATOM     19  C   UNL     1      34.167 -19.238 -22.609  0.00  0.00    +0.232 C 
BRANCH  19  20
ATOM     20  C   UNL     1      34.615 -17.780 -22.528  0.00  0.00    +0.133 C 
BRANCH  20  21
ATOM     21  O   UNL     1      36.045 -17.739 -22.534  0.00  0.00    -0.383 OA
ATOM     22  H   UNL     1      36.371 -17.698 -21.621  0.00  0.00    +0.210 HD
ENDBRANCH  20  21
BRANCH  20  23
ATOM     23  C   UNL     1      34.106 -16.924 -23.690  0.00  0.00    -0.044 C 
BRANCH  23  24
ATOM     24  N   UNL     1      34.367 -15.507 -23.482  0.00  0.00    +0.386 N 
ATOM     25  C   UNL     1      34.194 -15.151 -22.072  0.00  0.00    -0.101 C 
ATOM     26  C   UNL     1      33.488 -14.690 -24.321  0.00  0.00    -0.101 C 
ATOM     27  H   UNL     1      35.334 -15.321 -23.748  0.00  0.00    -0.080 HD
ENDBRANCH  23  24
ENDBRANCH  20  23
ENDBRANCH  19  20
ENDBRANCH  18  19
ENDBRANCH  12  18
ENDBRANCH   2  15
BRANCH   3  28
ATOM     28  C   UNL     1      32.408 -23.252 -14.930  0.00  0.00    +0.050 C 
ATOM     29  C   UNL     1      31.474 -22.984 -13.925  0.00  0.00    +0.015 C 
ATOM     30  C   UNL     1      32.088 -22.970 -16.261  0.00  0.00    +0.015 C 
ATOM     31  C   UNL     1      30.231 -22.441 -14.248  0.00  0.00    +0.001 C 
ATOM     32  C   UNL     1      30.846 -22.427 -16.584  0.00  0.00    +0.001 C 
ATOM     33  C   UNL     1      29.917 -22.162 -15.578  0.00  0.00    +0.000 C 
ENDBRANCH   3  28
TORSDOF 8
ENDMDL
MODEL 3
REMARK VINA RESULT:      -9.9      3.791      7.933
REMARK  Name = 445958
REMARK  8 active torsions:
REMARK  status: ('A' for Active; 'I' for Inactive)
REMARK    1  A    between atoms: N_2  and  C_15
REMARK    2  A    between atoms: N_3  and  C_28
REMARK    3  A    between atoms: C_12  and  O_18
REMARK    4  A    between atoms: O_18  and  C_19
REMARK    5  A    between atoms: C_19  and  C_20
REMARK    6  A    between atoms: C_20  and  O_21
REMARK    7  A    between atoms: C_20  and  C_23
REMARK    8  A    between atoms: C_23  and  N_24
REMARK                            x       y       z     vdW  Elec       q    Type
REMARK                         _______ _______ _______ _____ _____    ______ ____
ROOT
ATOM      1 BR   UNL     1      28.326 -22.412 -16.506  0.00  0.00    -0.043 Br
ATOM      2  N   UNL     1      33.356 -23.039 -13.331  0.00  0.00    -0.247 N 
ATOM      3  N   UNL     1      31.304 -22.343 -17.511  0.00  0.00    -0.287 N 
ATOM      4  N   UNL     1      32.339 -22.692 -15.417  0.00  0.00    -0.321 NA
ATOM      5  N   UNL     1      31.013 -22.958 -13.421  0.00  0.00    -0.169 NA
ATOM      6  C   UNL     1      32.180 -22.890 -14.092  0.00  0.00    +0.150 C 
ATOM      7  C   UNL     1      31.192 -22.553 -16.114  0.00  0.00    +0.204 C 
ATOM      8  C   UNL     1      29.936 -22.605 -15.545  0.00  0.00    +0.099 C 
ATOM      9  C   UNL     1      29.907 -22.812 -14.181  0.00  0.00    +0.122 C 
ATOM     10  H   UNL     1      33.191 -23.182 -12.371  0.00  0.00    +0.165 HD
ATOM     11  H   UNL     1      30.544 -22.698 -18.027  0.00  0.00    +0.155 HD
ENDROOT
BRANCH   2  15
ATOM     12  C   UNL     1      37.421 -22.995 -14.350  0.00  0.00    +0.139 C 
ATOM     13  C   UNL     1      36.462 -23.120 -15.350  0.00  0.00    +0.038 C 
ATOM     14  C   UNL     1      37.045 -22.885 -13.017  0.00  0.00    +0.038 C 
ATOM     15  C   UNL     1      34.724 -23.025 -13.674  0.00  0.00    +0.058 C 
ATOM     16  C   UNL     1      35.109 -23.135 -15.010  0.00  0.00    +0.018 C 
ATOM     17  C   UNL     1      35.692 -22.900 -12.677  0.00  0.00    +0.018 C 
BRANCH  12  18
ATOM     18  O   UNL     1      38.750 -22.982 -14.684  0.00  0.00    -0.473 OA
BRANCH  18  19
ATOM     19  C   UNL     1      39.547 -24.050 -14.181  0.00  0.00    +0.232 C 
BRANCH  19  20
ATOM     20  C   UNL     1      39.134 -25.343 -14.881  0.00  0.00    +0.133 C 
BRANCH  20  21
ATOM     21  O   UNL     1      40.175 -25.728 -15.783  0.00  0.00    -0.383 OA
ATOM     22  H   UNL     1      40.390 -24.982 -16.366  0.00  0.00    +0.210 HD
ENDBRANCH  20  21
BRANCH  20  23
ATOM     23  C   UNL     1      38.886 -26.503 -13.913  0.00  0.00    -0.044 C 
BRANCH  23  24
ATOM     24  N   UNL     1      37.476 -26.861 -13.838  0.00  0.00    +0.386 N 
ATOM     25  C   UNL     1      36.781 -26.485 -15.070  0.00  0.00    -0.101 C 
ATOM     26  C   UNL     1      36.842 -26.221 -12.684  0.00  0.00    -0.101 C 
ATOM     27  H   UNL     1      37.413 -27.872 -13.724  0.00  0.00    -0.080 HD
ENDBRANCH  23  24
ENDBRANCH  20  23
ENDBRANCH  19  20
ENDBRANCH  18  19
ENDBRANCH  12  18
ENDBRANCH   2  15
BRANCH   3  28
ATOM     28  C   UNL     1      32.288 -21.727 -18.301  0.00  0.00    +0.050 C 
ATOM     29  C   UNL     1      31.934 -20.734 -19.218  0.00  0.00    +0.015 C 
ATOM     30  C   UNL     1      33.629 -22.103 -18.175  0.00  0.00    +0.015 C 
ATOM     31  C   UNL     1      32.910 -20.122 -20.003  0.00  0.00    +0.001 C 
ATOM     32  C   UNL     1      34.605 -21.492 -18.960  0.00  0.00    +0.001 C 
ATOM     33  C   UNL     1      34.247 -20.500 -19.874  0.00  0.00    +0.000 C 
ENDBRANCH   3  28
TORSDOF 8
ENDMDL
MODEL 4
REMARK VINA RESULT:      -9.5      4.025      8.003
REMARK  Name = 445958
REMARK  8 active torsions:
REMARK  status: ('A' for Active; 'I' for Inactive)
REMARK    1  A    between atoms: N_2  and  C_15
REMARK    2  A    between atoms: N_3  and  C_28
REMARK    3  A    between atoms: C_12  and  O_18
REMARK    4  A    between atoms: O_18  and  C_19
REMARK    5  A    between atoms: C_19  and  C_20
REMARK    6  A    between atoms: C_20  and  O_21
REMARK    7  A    between atoms: C_20  and  C_23
REMARK    8  A    between atoms: C_23  and  N_24
REMARK                            x       y       z     vdW  Elec       q    Type
REMARK                         _______ _______ _______ _____ _____    ______ ____
ROOT
ATOM      1 BR   UNL     1      28.226 -22.489 -16.702  0.00  0.00    -0.043 Br
ATOM      2  N   UNL     1      32.866 -23.041 -12.968  0.00  0.00    -0.247 N 
ATOM      3  N   UNL     1      31.298 -22.490 -17.373  0.00  0.00    -0.287 N 
ATOM      4  N   UNL     1      32.090 -22.767 -15.165  0.00  0.00    -0.321 NA
ATOM      5  N   UNL     1      30.548 -22.940 -13.320  0.00  0.00    -0.169 NA
ATOM      6  C   UNL     1      31.784 -22.910 -13.859  0.00  0.00    +0.150 C 
ATOM      7  C   UNL     1      31.029 -22.643 -15.990  0.00  0.00    +0.204 C 
ATOM      8  C   UNL     1      29.718 -22.660 -15.562  0.00  0.00    +0.099 C 
ATOM      9  C   UNL     1      29.536 -22.812 -14.203  0.00  0.00    +0.122 C 
ATOM     10  H   UNL     1      32.594 -23.145 -12.027  0.00  0.00    +0.165 HD
ATOM     11  H   UNL     1      30.595 -22.858 -17.956  0.00  0.00    +0.155 HD
ENDROOT
BRANCH   2  15
ATOM     12  C   UNL     1      37.019 -23.083 -13.532  0.00  0.00    +0.139 C 
ATOM     13  C   UNL     1      36.496 -23.268 -12.257  0.00  0.00    +0.038 C 
ATOM     14  C   UNL     1      36.178 -22.885 -14.621  0.00  0.00    +0.038 C 
ATOM     15  C   UNL     1      34.264 -23.055 -13.157  0.00  0.00    +0.058 C 
ATOM     16  C   UNL     1      35.114 -23.254 -12.069  0.00  0.00    +0.018 C 
ATOM     17  C   UNL     1      34.796 -22.871 -14.434  0.00  0.00    +0.018 C 
BRANCH  12  18
ATOM     18  O   UNL     1      38.377 -23.096 -13.716  0.00  0.00    -0.473 OA
BRANCH  18  19
ATOM     19  C   UNL     1      39.062 -24.287 -13.344  0.00  0.00    +0.232 C 
BRANCH  19  20
ATOM     20  C   UNL     1      39.306 -25.127 -14.596  0.00  0.00    +0.133 C 
BRANCH  20  21
ATOM     21  O   UNL     1      40.676 -25.536 -14.614  0.00  0.00    -0.383 OA
ATOM     22  H   UNL     1      41.047 -25.461 -13.720  0.00  0.00    +0.210 HD
ENDBRANCH  20  21
BRANCH  20  23
ATOM     23  C   UNL     1      38.431 -26.381 -14.664  0.00  0.00    -0.044 C 
BRANCH  23  24
ATOM     24  N   UNL     1      37.034 -26.091 -14.369  0.00  0.00    +0.386 N 
ATOM     25  C   UNL     1      36.653 -26.651 -13.071  0.00  0.00    -0.101 C 
ATOM     26  C   UNL     1      36.164 -26.618 -15.422  0.00  0.00    -0.101 C 
ATOM     27  H   UNL     1      36.923 -25.078 -14.332  0.00  0.00    -0.080 HD
ENDBRANCH  23  24
ENDBRANCH  20  23
ENDBRANCH  19  20
ENDBRANCH  18  19
ENDBRANCH  12  18
ENDBRANCH   2  15
BRANCH   3  28
ATOM     28  C   UNL     1      32.372 -21.916 -18.072  0.00  0.00    +0.050 C 
ATOM     29  C   UNL     1      33.684 -22.310 -17.793  0.00  0.00    +0.015 C 
ATOM     30  C   UNL     1      32.137 -20.948 -19.052  0.00  0.00    +0.015 C 
ATOM     31  C   UNL     1      34.752 -21.741 -18.486  0.00  0.00    +0.001 C 
ATOM     32  C   UNL     1      33.204 -20.378 -19.746  0.00  0.00    +0.001 C 
ATOM     33  C   UNL     1      34.511 -20.774 -19.463  0.00  0.00    +0.000 C 
ENDBRANCH   3  28
TORSDOF 8
ENDMDL
MODEL 5
REMARK VINA RESULT:      -9.4      9.003     15.940
REMARK  Name = 445958
REMARK  8 active torsions:
REMARK  status: ('A' for Active; 'I' for Inactive)
REMARK    1  A    between atoms: N_2  and  C_15
REMARK    2  A    between atoms: N_3  and  C_28
REMARK    3  A    between atoms: C_12  and  O_18
REMARK    4  A    between atoms: O_18  and  C_19
REMARK    5  A    between atoms: C_19  and  C_20
REMARK    6  A    between atoms: C_20  and  O_21
REMARK    7  A    between atoms: C_20  and  C_23
REMARK    8  A    between atoms: C_23  and  N_24
REMARK                            x       y       z     vdW  Elec       q    Type
REMARK                         _______ _______ _______ _____ _____    ______ ____
ROOT
ATOM      1 BR   UNL     1      30.383  -1.860 -22.708  0.00  0.00    -0.043 Br
ATOM      2  N   UNL     1      31.273  -7.598 -21.272  0.00  0.00    -0.247 N 
ATOM      3  N   UNL     1      31.682  -4.139 -24.441  0.00  0.00    -0.287 N 
ATOM      4  N   UNL     1      31.479  -5.878 -22.855  0.00  0.00    -0.321 NA
ATOM      5  N   UNL     1      30.487  -5.463 -20.697  0.00  0.00    -0.169 NA
ATOM      6  C   UNL     1      31.070  -6.250 -21.624  0.00  0.00    +0.150 C 
ATOM      7  C   UNL     1      31.269  -4.580 -23.159  0.00  0.00    +0.204 C 
ATOM      8  C   UNL     1      30.683  -3.676 -22.298  0.00  0.00    +0.099 C 
ATOM      9  C   UNL     1      30.308  -4.178 -21.069  0.00  0.00    +0.122 C 
ATOM     10  H   UNL     1      30.957  -7.822 -20.367  0.00  0.00    +0.165 HD
ATOM     11  H   UNL     1      31.139  -3.400 -24.799  0.00  0.00    +0.155 HD
ENDROOT
BRANCH   2  15
ATOM     12  C   UNL     1      32.952 -10.845 -23.323  0.00  0.00    +0.139 C 
ATOM     13  C   UNL     1      31.868 -11.052 -22.476  0.00  0.00    +0.038 C 
ATOM     14  C   UNL     1      33.483  -9.572 -23.496  0.00  0.00    +0.038 C 
ATOM     15  C   UNL     1      31.838  -8.691 -21.962  0.00  0.00    +0.058 C 
ATOM     16  C   UNL     1      31.310  -9.971 -21.794  0.00  0.00    +0.018 C 
ATOM     17  C   UNL     1      32.925  -8.491 -22.814  0.00  0.00    +0.018 C 
BRANCH  12  18
ATOM     18  O   UNL     1      33.501 -11.907 -23.993  0.00  0.00    -0.473 OA
BRANCH  18  19
ATOM     19  C   UNL     1      32.598 -12.765 -24.683  0.00  0.00    +0.232 C 
BRANCH  19  20
ATOM     20  C   UNL     1      32.938 -14.214 -24.341  0.00  0.00    +0.133 C 
BRANCH  20  21
ATOM     21  O   UNL     1      33.244 -14.910 -25.553  0.00  0.00    -0.383 OA
ATOM     22  H   UNL     1      32.908 -15.819 -25.496  0.00  0.00    +0.210 HD
ENDBRANCH  20  21
BRANCH  20  23
ATOM     23  C   UNL     1      34.134 -14.349 -23.396  0.00  0.00    -0.044 C 
BRANCH  23  24
ATOM     24  N   UNL     1      33.763 -14.957 -22.126  0.00  0.00    +0.386 N 
ATOM     25  C   UNL     1      33.836 -13.975 -21.042  0.00  0.00    -0.101 C 
ATOM     26  C   UNL     1      34.625 -16.103 -21.830  0.00  0.00    -0.101 C 
ATOM     27  H   UNL     1      32.800 -15.286 -22.202  0.00  0.00    -0.080 HD
ENDBRANCH  23  24
ENDBRANCH  20  23
ENDBRANCH  19  20
ENDBRANCH  18  19
ENDBRANCH  12  18
ENDBRANCH   2  15
BRANCH   3  28
ATOM     28  C   UNL     1      32.715  -4.552 -25.298  0.00  0.00    +0.050 C 
ATOM     29  C   UNL     1      32.414  -5.122 -26.538  0.00  0.00    +0.015 C 
ATOM     30  C   UNL     1      34.051  -4.395 -24.917  0.00  0.00    +0.015 C 
ATOM     31  C   UNL     1      33.438  -5.533 -27.390  0.00  0.00    +0.001 C 
ATOM     32  C   UNL     1      35.076  -4.805 -25.769  0.00  0.00    +0.001 C 
ATOM     33  C   UNL     1      34.770  -5.373 -27.006  0.00  0.00    +0.000 C 
ENDBRANCH   3  28
TORSDOF 8
ENDMDL
MODEL 6
REMARK VINA RESULT:      -9.4      4.311      7.839
REMARK  Name = 445958
REMARK  8 active torsions:
REMARK  status: ('A' for Active; 'I' for Inactive)
REMARK    1  A    between atoms: N_2  and  C_15
REMARK    2  A    between atoms: N_3  and  C_28
REMARK    3  A    between atoms: C_12  and  O_18
REMARK    4  A    between atoms: O_18  and  C_19
REMARK    5  A    between atoms: C_19  and  C_20
REMARK    6  A    between atoms: C_20  and  O_21
REMARK    7  A    between atoms: C_20  and  C_23
REMARK    8  A    between atoms: C_23  and  N_24
REMARK                            x       y       z     vdW  Elec       q    Type
REMARK                         _______ _______ _______ _____ _____    ______ ____
ROOT
ATOM      1 BR   UNL     1      29.066 -22.657 -16.323  0.00  0.00    -0.043 Br
ATOM      2  N   UNL     1      33.418 -23.391 -12.287  0.00  0.00    -0.247 N 
ATOM      3  N   UNL     1      32.171 -22.813 -16.790  0.00  0.00    -0.287 N 
ATOM      4  N   UNL     1      32.802 -23.103 -14.533  0.00  0.00    -0.321 NA
ATOM      5  N   UNL     1      31.137 -23.182 -12.792  0.00  0.00    -0.169 NA
ATOM      6  C   UNL     1      32.404 -23.217 -13.249  0.00  0.00    +0.150 C 
ATOM      7  C   UNL     1      31.805 -22.938 -15.427  0.00  0.00    +0.204 C 
ATOM      8  C   UNL     1      30.470 -22.887 -15.086  0.00  0.00    +0.099 C 
ATOM      9  C   UNL     1      30.191 -23.016 -13.741  0.00  0.00    +0.122 C 
ATOM     10  H   UNL     1      33.081 -23.471 -11.366  0.00  0.00    +0.165 HD
ATOM     11  H   UNL     1      31.490 -23.153 -17.416  0.00  0.00    +0.155 HD
ENDROOT
BRANCH   2  15
ATOM     12  C   UNL     1      37.593 -23.635 -12.574  0.00  0.00    +0.139 C 
ATOM     13  C   UNL     1      36.894 -22.779 -13.419  0.00  0.00    +0.038 C 
ATOM     14  C   UNL     1      36.921 -24.409 -11.635  0.00  0.00    +0.038 C 
ATOM     15  C   UNL     1      34.824 -23.473 -12.384  0.00  0.00    +0.058 C 
ATOM     16  C   UNL     1      35.504 -22.699 -13.323  0.00  0.00    +0.018 C 
ATOM     17  C   UNL     1      35.532 -24.328 -11.539  0.00  0.00    +0.018 C 
BRANCH  12  18
ATOM     18  O   UNL     1      38.958 -23.715 -12.668  0.00  0.00    -0.473 OA
BRANCH  18  19
ATOM     19  C   UNL     1      39.489 -24.887 -13.279  0.00  0.00    +0.232 C 
BRANCH  19  20
ATOM     20  C   UNL     1      38.763 -25.126 -14.600  0.00  0.00    +0.133 C 
BRANCH  20  21
ATOM     21  O   UNL     1      39.732 -25.428 -15.608  0.00  0.00    -0.383 OA
ATOM     22  H   UNL     1      40.624 -25.339 -15.235  0.00  0.00    +0.210 HD
ENDBRANCH  20  21
BRANCH  20  23
ATOM     23  C   UNL     1      37.760 -26.281 -14.540  0.00  0.00    -0.044 C 
BRANCH  23  24
ATOM     24  N   UNL     1      36.705 -26.143 -15.535  0.00  0.00    +0.386 N 
ATOM     25  C   UNL     1      35.453 -25.718 -14.905  0.00  0.00    -0.101 C 
ATOM     26  C   UNL     1      36.507 -27.402 -16.256  0.00  0.00    -0.101 C 
ATOM     27  H   UNL     1      36.992 -25.428 -16.203  0.00  0.00    -0.080 HD
ENDBRANCH  23  24
ENDBRANCH  20  23
ENDBRANCH  19  20
ENDBRANCH  18  19
ENDBRANCH  12  18
ENDBRANCH   2  15
BRANCH   3  28
ATOM     28  C   UNL     1      33.315 -22.299 -17.421  0.00  0.00    +0.050 C 
ATOM     29  C   UNL     1      33.239 -21.816 -18.730  0.00  0.00    +0.015 C 
ATOM     30  C   UNL     1      34.538 -22.266 -16.744  0.00  0.00    +0.015 C 
ATOM     31  C   UNL     1      34.374 -21.306 -19.359  0.00  0.00    +0.001 C 
ATOM     32  C   UNL     1      35.673 -21.755 -17.371  0.00  0.00    +0.001 C 
ATOM     33  C   UNL     1      35.592 -21.275 -18.679  0.00  0.00    +0.000 C 
ENDBRANCH   3  28
TORSDOF 8
ENDMDL
MODEL 7
REMARK VINA RESULT:      -8.9      4.795      8.039
REMARK  Name = 445958
REMARK  8 active torsions:
REMARK  status: ('A' for Active; 'I' for Inactive)
REMARK    1  A    between atoms: N_2  and  C_15
REMARK    2  A    between atoms: N_3  and  C_28
REMARK    3  A    between atoms: C_12  and  O_18
REMARK    4  A    between atoms: O_18  and  C_19
REMARK    5  A    between atoms: C_19  and  C_20
REMARK    6  A    between atoms: C_20  and  O_21
REMARK    7  A    between atoms: C_20  and  C_23
REMARK    8  A    between atoms: C_23  and  N_24
REMARK                            x       y       z     vdW  Elec       q    Type
REMARK                         _______ _______ _______ _____ _____    ______ ____
ROOT
ATOM      1 BR   UNL     1      39.241 -23.466 -15.154  0.00  0.00    -0.043 Br
ATOM      2  N   UNL     1      33.787 -24.675 -13.016  0.00  0.00    -0.247 N 
ATOM      3  N   UNL     1      36.462 -22.356 -16.120  0.00  0.00    -0.287 N 
ATOM      4  N   UNL     1      35.116 -23.517 -14.565  0.00  0.00    -0.321 NA
ATOM      5  N   UNL     1      36.111 -24.991 -12.938  0.00  0.00    -0.169 NA
ATOM      6  C   UNL     1      35.065 -24.381 -13.530  0.00  0.00    +0.150 C 
ATOM      7  C   UNL     1      36.355 -23.258 -15.032  0.00  0.00    +0.204 C 
ATOM      8  C   UNL     1      37.503 -23.818 -14.512  0.00  0.00    +0.099 C 
ATOM      9  C   UNL     1      37.319 -24.685 -13.456  0.00  0.00    +0.122 C 
ATOM     10  H   UNL     1      33.800 -25.308 -12.263  0.00  0.00    +0.165 HD
ATOM     11  H   UNL     1      37.306 -21.848 -16.131  0.00  0.00    +0.155 HD
ENDROOT
BRANCH   2  15
ATOM     12  C   UNL     1      29.939 -23.384 -14.062  0.00  0.00    +0.139 C 
ATOM     13  C   UNL     1      30.103 -24.598 -13.403  0.00  0.00    +0.038 C 
ATOM     14  C   UNL     1      31.040 -22.595 -14.377  0.00  0.00    +0.038 C 
ATOM     15  C   UNL     1      32.492 -24.241 -13.369  0.00  0.00    +0.058 C 
ATOM     16  C   UNL     1      31.383 -25.027 -13.055  0.00  0.00    +0.018 C 
ATOM     17  C   UNL     1      32.320 -23.025 -14.030  0.00  0.00    +0.018 C 
BRANCH  12  18
ATOM     18  O   UNL     1      28.681 -22.962 -14.405  0.00  0.00    -0.473 OA
BRANCH  18  19
ATOM     19  C   UNL     1      27.900 -23.855 -15.193  0.00  0.00    +0.232 C 
BRANCH  19  20
ATOM     20  C   UNL     1      27.889 -23.356 -16.636  0.00  0.00    +0.133 C 
BRANCH  20  21
ATOM     21  O   UNL     1      26.976 -24.158 -17.391  0.00  0.00    -0.383 OA
ATOM     22  H   UNL     1      26.452 -23.588 -17.976  0.00  0.00    +0.210 HD
ENDBRANCH  20  21
BRANCH  20  23
ATOM     23  C   UNL     1      27.462 -21.893 -16.768  0.00  0.00    -0.044 C 
BRANCH  23  24
ATOM     24  N   UNL     1      26.013 -21.740 -16.739  0.00  0.00    +0.386 N 
ATOM     25  C   UNL     1      25.570 -20.818 -17.786  0.00  0.00    -0.101 C 
ATOM     26  C   UNL     1      25.570 -21.265 -15.427  0.00  0.00    -0.101 C 
ATOM     27  H   UNL     1      25.595 -22.654 -16.911  0.00  0.00    -0.080 HD
ENDBRANCH  23  24
ENDBRANCH  20  23
ENDBRANCH  19  20
ENDBRANCH  18  19
ENDBRANCH  12  18
ENDBRANCH   2  15
BRANCH   3  28
ATOM     28  C   UNL     1      35.600 -22.047 -17.184  0.00  0.00    +0.050 C 
ATOM     29  C   UNL     1      36.060 -21.289 -18.265  0.00  0.00    +0.015 C 
ATOM     30  C   UNL     1      34.276 -22.496 -17.170  0.00  0.00    +0.015 C 
ATOM     31  C   UNL     1      35.204 -20.981 -19.322  0.00  0.00    +0.001 C 
ATOM     32  C   UNL     1      33.420 -22.189 -18.227  0.00  0.00    +0.001 C 
ATOM     33  C   UNL     1      33.883 -21.432 -19.303  0.00  0.00    +0.000 C 
ENDBRANCH   3  28
TORSDOF 8
ENDMDL
MODEL 8
REMARK VINA RESULT:      -8.8      1.914      3.053
REMARK  Name = 445958
REMARK  8 active torsions:
REMARK  status: ('A' for Active; 'I' for Inactive)
REMARK    1  A    between atoms: N_2  and  C_15
REMARK    2  A    between atoms: N_3  and  C_28
REMARK    3  A    between atoms: C_12  and  O_18
REMARK    4  A    between atoms: O_18  and  C_19
REMARK    5  A    between atoms: C_19  and  C_20
REMARK    6  A    between atoms: C_20  and  O_21
REMARK    7  A    between atoms: C_20  and  C_23
REMARK    8  A    between atoms: C_23  and  N_24
REMARK                            x       y       z     vdW  Elec       q    Type
REMARK                         _______ _______ _______ _____ _____    ______ ____
ROOT
ATOM      1 BR   UNL     1      34.937 -24.628 -10.227  0.00  0.00    -0.043 Br
ATOM      2  N   UNL     1      33.016 -22.701 -15.554  0.00  0.00    -0.247 N 
ATOM      3  N   UNL     1      36.631 -23.679 -12.700  0.00  0.00    -0.287 N 
ATOM      4  N   UNL     1      34.821 -23.187 -14.136  0.00  0.00    -0.321 NA
ATOM      5  N   UNL     1      32.548 -23.507 -13.400  0.00  0.00    -0.169 NA
ATOM      6  C   UNL     1      33.483 -23.153 -14.305  0.00  0.00    +0.150 C 
ATOM      7  C   UNL     1      35.233 -23.624 -12.928  0.00  0.00    +0.204 C 
ATOM      8  C   UNL     1      34.376 -24.014 -11.920  0.00  0.00    +0.099 C 
ATOM      9  C   UNL     1      33.031 -23.934 -12.215  0.00  0.00    +0.122 C 
ATOM     10  H   UNL     1      32.035 -22.692 -15.630  0.00  0.00    +0.165 HD
ATOM     11  H   UNL     1      36.885 -23.542 -11.759  0.00  0.00    +0.155 HD
ENDROOT
BRANCH   2  15
ATOM     12  C   UNL     1      34.982 -21.385 -19.014  0.00  0.00    +0.139 C 
ATOM     13  C   UNL     1      35.694 -21.520 -17.826  0.00  0.00    +0.038 C 
ATOM     14  C   UNL     1      33.625 -21.681 -19.064  0.00  0.00    +0.038 C 
ATOM     15  C   UNL     1      33.678 -22.257 -16.718  0.00  0.00    +0.058 C 
ATOM     16  C   UNL     1      35.039 -21.958 -16.675  0.00  0.00    +0.018 C 
ATOM     17  C   UNL     1      32.970 -22.119 -17.913  0.00  0.00    +0.018 C 
BRANCH  12  18
ATOM     18  O   UNL     1      35.625 -20.954 -20.144  0.00  0.00    -0.473 OA
BRANCH  18  19
ATOM     19  C   UNL     1      34.898 -20.077 -20.999  0.00  0.00    +0.232 C 
BRANCH  19  20
ATOM     20  C   UNL     1      35.523 -18.685 -20.923  0.00  0.00    +0.133 C 
BRANCH  20  21
ATOM     21  O   UNL     1      36.726 -18.765 -20.153  0.00  0.00    -0.383 OA
ATOM     22  H   UNL     1      36.558 -19.274 -19.344  0.00  0.00    +0.210 HD
ENDBRANCH  20  21
BRANCH  20  23
ATOM     23  C   UNL     1      35.870 -18.101 -22.294  0.00  0.00    -0.044 C 
BRANCH  23  24
ATOM     24  N   UNL     1      35.245 -16.804 -22.511  0.00  0.00    +0.386 N 
ATOM     25  C   UNL     1      34.550 -16.356 -21.302  0.00  0.00    -0.101 C 
ATOM     26  C   UNL     1      34.311 -16.861 -23.637  0.00  0.00    -0.101 C 
ATOM     27  H   UNL     1      35.979 -16.131 -22.732  0.00  0.00    -0.080 HD
ENDBRANCH  23  24
ENDBRANCH  20  23
ENDBRANCH  19  20
ENDBRANCH  18  19
ENDBRANCH  12  18
ENDBRANCH   2  15
BRANCH   3  28
ATOM     28  C   UNL     1      37.723 -23.891 -13.557  0.00  0.00    +0.050 C 
ATOM     29  C   UNL     1      38.767 -24.736 -13.170  0.00  0.00    +0.015 C 
ATOM     30  C   UNL     1      37.774 -23.259 -14.803  0.00  0.00    +0.015 C 
ATOM     31  C   UNL     1      39.853 -24.946 -14.019  0.00  0.00    +0.001 C 
ATOM     32  C   UNL     1      38.858 -23.469 -15.653  0.00  0.00    +0.001 C 
ATOM     33  C   UNL     1      39.898 -24.313 -15.262  0.00  0.00    +0.000 C 
ENDBRANCH   3  28
TORSDOF 8
ENDMDL
