MODEL 1
REMARK VINA RESULT:     -12.2      0.000      0.000
REMARK  Name = 444394
REMARK  9 active torsions:
REMARK  status: ('A' for Active; 'I' for Inactive)
REMARK    1  A    between atoms: C_1  and  C_7
REMARK    2  A    between atoms: C_6  and  C_23
REMARK    3  A    between atoms: C_8  and  C_13
REMARK    4  A    between atoms: C_9  and  O_19
REMARK    5  A    between atoms: N_22  and  C_25
REMARK    6  A    between atoms: C_25  and  C_26
REMARK    7  A    between atoms: C_26  and  C_27
REMARK    8  A    between atoms: C_27  and  C_29
REMARK    9  A    between atoms: C_29  and  O_30
REMARK                            x       y       z     vdW  Elec       q    Type
REMARK                         _______ _______ _______ _____ _____    ______ ____
ROOT
ATOM      1  C   UNL     1      35.163 -20.523 -19.503  0.00  0.00    -0.020 C 
ATOM      2  C   UNL     1      36.185 -19.743 -20.036  0.00  0.00    -0.004 C 
ATOM      3  C   UNL     1      33.871 -20.439 -20.015  0.00  0.00    -0.004 C 
ATOM      4  C   UNL     1      35.913 -18.872 -21.090  0.00  0.00    +0.004 C 
ATOM      5  C   UNL     1      33.599 -19.568 -21.070  0.00  0.00    +0.004 C 
ATOM      6  C   UNL     1      34.620 -18.784 -21.608  0.00  0.00    +0.053 C 
ENDROOT
BRANCH   1   7
ATOM      7  C   UNL     1      35.460 -21.475 -18.354  0.00  0.00    +0.049 C 
ATOM      8  C   UNL     1      35.490 -22.208 -15.471  0.00  0.00    +0.025 C 
ATOM      9  C   UNL     1      34.179 -21.942 -17.632  0.00  0.00    +0.115 C 
ATOM     10  C   UNL     1      34.504 -22.862 -16.450  0.00  0.00    +0.034 C 
ATOM     11  C   UNL     1      36.458 -20.842 -17.368  0.00  0.00    +0.007 C 
ATOM     12  C   UNL     1      36.773 -21.776 -16.200  0.00  0.00    +0.005 C 
BRANCH   8  13
ATOM     13  C   UNL     1      35.792 -23.108 -14.287  0.00  0.00    -0.022 C 
ATOM     14  C   UNL     1      37.057 -23.677 -14.151  0.00  0.00    -0.004 C 
ATOM     15  C   UNL     1      34.802 -23.364 -13.340  0.00  0.00    -0.004 C 
ATOM     16  C   UNL     1      37.334 -24.505 -13.064  0.00  0.00    -0.000 C 
ATOM     17  C   UNL     1      35.079 -24.192 -12.252  0.00  0.00    -0.000 C 
ATOM     18  C   UNL     1      36.344 -24.763 -12.114  0.00  0.00    -0.000 C 
ENDBRANCH   8  13
BRANCH   9  19
ATOM     19  O   UNL     1      33.365 -22.667 -18.555  0.00  0.00    -0.384 OA
ATOM     20  H   UNL     1      33.532 -23.617 -18.456  0.00  0.00    +0.210 HD
ENDBRANCH   9  19
ENDBRANCH   1   7
BRANCH   6  23
ATOM     21  O   UNL     1      33.638 -18.243 -23.667  0.00  0.00    -0.270 OA
ATOM     22  N   UNL     1      34.862 -16.581 -22.611  0.00  0.00    -0.301 N 
ATOM     23  C   UNL     1      34.336 -17.874 -22.706  0.00  0.00    +0.246 C 
ATOM     24  H   UNL     1      35.407 -16.356 -21.822  0.00  0.00    +0.150 HD
BRANCH  22  25
ATOM     25  C   UNL     1      34.648 -15.557 -23.609  0.00  0.00    +0.090 C 
BRANCH  25  26
ATOM     26  C   UNL     1      33.484 -14.628 -23.265  0.00  0.00    +0.033 C 
BRANCH  26  27
ATOM     27  C   UNL     1      33.792 -13.627 -22.149  0.00  0.00    +0.111 C 
BRANCH  27  29
ATOM     28  O   UNL     1      32.163 -13.651 -20.337  0.00  0.00    -0.250 OA
ATOM     29  C   UNL     1      33.224 -14.036 -20.807  0.00  0.00    +0.314 C 
BRANCH  29  30
ATOM     30  O   UNL     1      34.036 -14.923 -20.173  0.00  0.00    -0.480 OA
ATOM     31  H   UNL     1      33.981 -15.028 -19.244  0.00  0.00    +0.295 HD
ENDBRANCH  29  30
ENDBRANCH  27  29
ENDBRANCH  26  27
ENDBRANCH  25  26
ENDBRANCH  22  25
ENDBRANCH   6  23
TORSDOF 9
ENDMDL
MODEL 2
REMARK VINA RESULT:     -11.6      4.271     12.568
REMARK  Name = 444394
REMARK  9 active torsions:
REMARK  status: ('A' for Active; 'I' for Inactive)
REMARK    1  A    between atoms: C_1  and  C_7
REMARK    2  A    between atoms: C_6  and  C_23
REMARK    3  A    between atoms: C_8  and  C_13
REMARK    4  A    between atoms: C_9  and  O_19
REMARK    5  A    between atoms: N_22  and  C_25
REMARK    6  A    between atoms: C_25  and  C_26
REMARK    7  A    between atoms: C_26  and  C_27
REMARK    8  A    between atoms: C_27  and  C_29
REMARK    9  A    between atoms: C_29  and  O_30
REMARK                            x       y       z     vdW  Elec       q    Type
REMARK                         _______ _______ _______ _____ _____    ______ ____
ROOT
ATOM      1  C   UNL     1      33.436 -12.970 -22.104  0.00  0.00    -0.020 C 
ATOM      2  C   UNL     1      33.571 -13.639 -23.317  0.00  0.00    -0.004 C 
ATOM      3  C   UNL     1      33.699 -13.624 -20.904  0.00  0.00    -0.004 C 
ATOM      4  C   UNL     1      33.974 -14.974 -23.330  0.00  0.00    +0.004 C 
ATOM      5  C   UNL     1      34.102 -14.959 -20.917  0.00  0.00    +0.004 C 
ATOM      6  C   UNL     1      34.240 -15.634 -22.130  0.00  0.00    +0.053 C 
ENDROOT
BRANCH   1   7
ATOM      7  C   UNL     1      32.997 -11.513 -22.090  0.00  0.00    +0.049 C 
ATOM      8  C   UNL     1      31.602  -9.162 -23.263  0.00  0.00    +0.025 C 
ATOM      9  C   UNL     1      31.466 -11.361 -21.996  0.00  0.00    +0.115 C 
ATOM     10  C   UNL     1      31.043  -9.888 -22.031  0.00  0.00    +0.034 C 
ATOM     11  C   UNL     1      33.560 -10.765 -23.312  0.00  0.00    +0.007 C 
ATOM     12  C   UNL     1      33.132  -9.298 -23.325  0.00  0.00    +0.005 C 
BRANCH   8  13
ATOM     13  C   UNL     1      31.162  -7.710 -23.312  0.00  0.00    -0.022 C 
ATOM     14  C   UNL     1      31.070  -7.053 -24.537  0.00  0.00    -0.004 C 
ATOM     15  C   UNL     1      30.855  -7.038 -22.130  0.00  0.00    -0.004 C 
ATOM     16  C   UNL     1      30.668  -5.718 -24.582  0.00  0.00    -0.000 C 
ATOM     17  C   UNL     1      30.452  -5.704 -22.174  0.00  0.00    -0.000 C 
ATOM     18  C   UNL     1      30.359  -5.044 -23.400  0.00  0.00    -0.000 C 
ENDBRANCH   8  13
BRANCH   9  19
ATOM     19  O   UNL     1      31.017 -11.928 -20.764  0.00  0.00    -0.384 OA
ATOM     20  H   UNL     1      30.464 -11.284 -20.294  0.00  0.00    +0.210 HD
ENDBRANCH   9  19
ENDBRANCH   1   7
BRANCH   6  23
ATOM     21  O   UNL     1      34.776 -17.641 -23.219  0.00  0.00    -0.270 OA
ATOM     22  N   UNL     1      34.937 -17.618 -20.905  0.00  0.00    -0.301 N 
ATOM     23  C   UNL     1      34.658 -17.027 -22.143  0.00  0.00    +0.246 C 
ATOM     24  H   UNL     1      34.822 -17.074 -20.093  0.00  0.00    +0.150 HD
BRANCH  22  25
ATOM     25  C   UNL     1      35.385 -18.984 -20.756  0.00  0.00    +0.090 C 
BRANCH  25  26
ATOM     26  C   UNL     1      34.235 -19.961 -20.511  0.00  0.00    +0.033 C 
BRANCH  26  27
ATOM     27  C   UNL     1      34.521 -21.004 -19.428  0.00  0.00    +0.111 C 
BRANCH  27  29
ATOM     28  O   UNL     1      33.430 -23.094 -18.813  0.00  0.00    -0.250 OA
ATOM     29  C   UNL     1      33.350 -21.925 -19.161  0.00  0.00    +0.314 C 
BRANCH  29  30
ATOM     30  O   UNL     1      32.165 -21.283 -19.335  0.00  0.00    -0.480 OA
ATOM     31  H   UNL     1      31.601 -21.522 -20.044  0.00  0.00    +0.295 HD
ENDBRANCH  29  30
ENDBRANCH  27  29
ENDBRANCH  26  27
ENDBRANCH  25  26
ENDBRANCH  22  25
ENDBRANCH   6  23
TORSDOF 9
ENDMDL
MODEL 3
REMARK VINA RESULT:     -11.5      1.110      1.738
REMARK  Name = 444394
REMARK  9 active torsions:
REMARK  status: ('A' for Active; 'I' for Inactive)
REMARK    1  A    between atoms: C_1  and  C_7
REMARK    2  A    between atoms: C_6  and  C_23
REMARK    3  A    between atoms: C_8  and  C_13
REMARK    4  A    between atoms: C_9  and  O_19
REMARK    5  A    between atoms: N_22  and  C_25
REMARK    6  A    between atoms: C_25  and  C_26
REMARK    7  A    between atoms: C_26  and  C_27
REMARK    8  A    between atoms: C_27  and  C_29
REMARK    9  A    between atoms: C_29  and  O_30
REMARK                            x       y       z     vdW  Elec       q    Type
REMARK                         _______ _______ _______ _____ _____    ______ ____
ROOT
ATOM      1  C   UNL     1      35.190 -20.561 -19.455  0.00  0.00    -0.020 C 
ATOM      2  C   UNL     1      33.894 -20.426 -19.943  0.00  0.00    -0.004 C 
ATOM      3  C   UNL     1      36.225 -19.792 -19.978  0.00  0.00    -0.004 C 
ATOM      4  C   UNL     1      33.630 -19.513 -20.963  0.00  0.00    +0.004 C 
ATOM      5  C   UNL     1      35.961 -18.878 -20.998  0.00  0.00    +0.004 C 
ATOM      6  C   UNL     1      34.664 -18.738 -21.491  0.00  0.00    +0.053 C 
ENDROOT
BRANCH   1   7
ATOM      7  C   UNL     1      35.477 -21.556 -18.340  0.00  0.00    +0.049 C 
ATOM      8  C   UNL     1      35.490 -22.396 -15.486  0.00  0.00    +0.025 C 
ATOM      9  C   UNL     1      34.191 -22.042 -17.641  0.00  0.00    +0.115 C 
ATOM     10  C   UNL     1      34.504 -23.007 -16.492  0.00  0.00    +0.034 C 
ATOM     11  C   UNL     1      36.474 -20.966 -17.328  0.00  0.00    +0.007 C 
ATOM     12  C   UNL     1      36.779 -21.945 -16.194  0.00  0.00    +0.005 C 
BRANCH   8  13
ATOM     13  C   UNL     1      35.782 -23.341 -14.335  0.00  0.00    -0.022 C 
ATOM     14  C   UNL     1      35.748 -22.871 -13.024  0.00  0.00    -0.004 C 
ATOM     15  C   UNL     1      36.085 -24.677 -14.594  0.00  0.00    -0.004 C 
ATOM     16  C   UNL     1      36.017 -23.739 -11.966  0.00  0.00    -0.000 C 
ATOM     17  C   UNL     1      36.354 -25.546 -13.536  0.00  0.00    -0.000 C 
ATOM     18  C   UNL     1      36.320 -25.077 -12.222  0.00  0.00    -0.000 C 
ENDBRANCH   8  13
BRANCH   9  19
ATOM     19  O   UNL     1      33.375 -22.727 -18.593  0.00  0.00    -0.384 OA
ATOM     20  H   UNL     1      32.461 -22.763 -18.270  0.00  0.00    +0.210 HD
ENDBRANCH   9  19
ENDBRANCH   1   7
BRANCH   6  23
ATOM     21  O   UNL     1      33.918 -18.173 -23.641  0.00  0.00    -0.270 OA
ATOM     22  N   UNL     1      34.658 -16.440 -22.290  0.00  0.00    -0.301 N 
ATOM     23  C   UNL     1      34.390 -17.788 -22.557  0.00  0.00    +0.246 C 
ATOM     24  H   UNL     1      35.031 -16.205 -21.410  0.00  0.00    +0.150 HD
BRANCH  22  25
ATOM     25  C   UNL     1      34.417 -15.375 -23.237  0.00  0.00    +0.090 C 
BRANCH  25  26
ATOM     26  C   UNL     1      33.881 -14.105 -22.578  0.00  0.00    +0.033 C 
BRANCH  26  27
ATOM     27  C   UNL     1      32.772 -13.410 -23.371  0.00  0.00    +0.111 C 
BRANCH  27  29
ATOM     28  O   UNL     1      32.765 -11.015 -22.924  0.00  0.00    -0.250 OA
ATOM     29  C   UNL     1      32.294 -12.125 -22.728  0.00  0.00    +0.314 C 
BRANCH  29  30
ATOM     30  O   UNL     1      31.237 -12.347 -21.903  0.00  0.00    -0.480 OA
ATOM     31  H   UNL     1      31.379 -12.502 -20.991  0.00  0.00    +0.295 HD
ENDBRANCH  29  30
ENDBRANCH  27  29
ENDBRANCH  26  27
ENDBRANCH  25  26
ENDBRANCH  22  25
ENDBRANCH   6  23
TORSDOF 9
ENDMDL
MODEL 4
REMARK VINA RESULT:     -11.5      4.580     12.609
REMARK  Name = 444394
REMARK  9 active torsions:
REMARK  status: ('A' for Active; 'I' for Inactive)
REMARK    1  A    between atoms: C_1  and  C_7
REMARK    2  A    between atoms: C_6  and  C_23
REMARK    3  A    between atoms: C_8  and  C_13
REMARK    4  A    between atoms: C_9  and  O_19
REMARK    5  A    between atoms: N_22  and  C_25
REMARK    6  A    between atoms: C_25  and  C_26
REMARK    7  A    between atoms: C_26  and  C_27
REMARK    8  A    between atoms: C_27  and  C_29
REMARK    9  A    between atoms: C_29  and  O_30
REMARK                            x       y       z     vdW  Elec       q    Type
REMARK                         _______ _______ _______ _____ _____    ______ ____
ROOT
ATOM      1  C   UNL     1      32.932 -12.737 -22.688  0.00  0.00    -0.020 C 
ATOM      2  C   UNL     1      33.401 -13.202 -21.463  0.00  0.00    -0.004 C 
ATOM      3  C   UNL     1      33.008 -13.539 -23.823  0.00  0.00    -0.004 C 
ATOM      4  C   UNL     1      33.951 -14.480 -21.372  0.00  0.00    +0.004 C 
ATOM      5  C   UNL     1      33.558 -14.817 -23.732  0.00  0.00    +0.004 C 
ATOM      6  C   UNL     1      34.030 -15.288 -22.507  0.00  0.00    +0.053 C 
ENDROOT
BRANCH   1   7
ATOM      7  C   UNL     1      32.330 -11.343 -22.787  0.00  0.00    +0.049 C 
ATOM      8  C   UNL     1      31.856  -8.592 -21.761  0.00  0.00    +0.025 C 
ATOM      9  C   UNL     1      33.407 -10.246 -22.907  0.00  0.00    +0.115 C 
ATOM     10  C   UNL     1      32.782  -8.847 -22.958  0.00  0.00    +0.034 C 
ATOM     11  C   UNL     1      31.387 -11.073 -21.601  0.00  0.00    +0.007 C 
ATOM     12  C   UNL     1      30.770  -9.677 -21.673  0.00  0.00    +0.005 C 
BRANCH   8  13
ATOM     13  C   UNL     1      31.256  -7.198 -21.797  0.00  0.00    -0.022 C 
ATOM     14  C   UNL     1      31.393  -6.354 -20.696  0.00  0.00    -0.004 C 
ATOM     15  C   UNL     1      30.570  -6.766 -22.931  0.00  0.00    -0.004 C 
ATOM     16  C   UNL     1      30.841  -5.074 -20.728  0.00  0.00    -0.000 C 
ATOM     17  C   UNL     1      30.019  -5.485 -22.964  0.00  0.00    -0.000 C 
ATOM     18  C   UNL     1      30.154  -4.639 -21.863  0.00  0.00    -0.000 C 
ENDBRANCH   8  13
BRANCH   9  19
ATOM     19  O   UNL     1      34.147 -10.451 -24.112  0.00  0.00    -0.384 OA
ATOM     20  H   UNL     1      34.419 -11.380 -24.170  0.00  0.00    +0.210 HD
ENDBRANCH   9  19
ENDBRANCH   1   7
BRANCH   6  23
ATOM     21  O   UNL     1      34.716 -17.334 -23.426  0.00  0.00    -0.270 OA
ATOM     22  N   UNL     1      35.040 -17.037 -21.149  0.00  0.00    -0.301 N 
ATOM     23  C   UNL     1      34.605 -16.620 -22.413  0.00  0.00    +0.246 C 
ATOM     24  H   UNL     1      34.921 -16.421 -20.390  0.00  0.00    +0.150 HD
BRANCH  22  25
ATOM     25  C   UNL     1      35.653 -18.321 -20.899  0.00  0.00    +0.090 C 
BRANCH  25  26
ATOM     26  C   UNL     1      34.629 -19.432 -20.668  0.00  0.00    +0.033 C 
BRANCH  26  27
ATOM     27  C   UNL     1      35.152 -20.599 -19.827  0.00  0.00    +0.111 C 
BRANCH  27  29
ATOM     28  O   UNL     1      34.206 -22.406 -18.495  0.00  0.00    -0.250 OA
ATOM     29  C   UNL     1      34.053 -21.376 -19.136  0.00  0.00    +0.314 C 
BRANCH  29  30
ATOM     30  O   UNL     1      32.845 -20.772 -19.290  0.00  0.00    -0.480 OA
ATOM     31  H   UNL     1      32.633 -20.348 -20.098  0.00  0.00    +0.295 HD
ENDBRANCH  29  30
ENDBRANCH  27  29
ENDBRANCH  26  27
ENDBRANCH  25  26
ENDBRANCH  22  25
ENDBRANCH   6  23
TORSDOF 9
ENDMDL
MODEL 5
REMARK VINA RESULT:     -11.3      4.951     12.873
REMARK  Name = 444394
REMARK  9 active torsions:
REMARK  status: ('A' for Active; 'I' for Inactive)
REMARK    1  A    between atoms: C_1  and  C_7
REMARK    2  A    between atoms: C_6  and  C_23
REMARK    3  A    between atoms: C_8  and  C_13
REMARK    4  A    between atoms: C_9  and  O_19
REMARK    5  A    between atoms: N_22  and  C_25
REMARK    6  A    between atoms: C_25  and  C_26
REMARK    7  A    between atoms: C_26  and  C_27
REMARK    8  A    between atoms: C_27  and  C_29
REMARK    9  A    between atoms: C_29  and  O_30
REMARK                            x       y       z     vdW  Elec       q    Type
REMARK                         _______ _______ _______ _____ _____    ______ ____
ROOT
ATOM      1  C   UNL     1      33.007 -12.142 -22.845  0.00  0.00    -0.020 C 
ATOM      2  C   UNL     1      32.685 -12.584 -24.125  0.00  0.00    -0.004 C 
ATOM      3  C   UNL     1      33.651 -12.988 -21.948  0.00  0.00    -0.004 C 
ATOM      4  C   UNL     1      33.012 -13.883 -24.512  0.00  0.00    +0.004 C 
ATOM      5  C   UNL     1      33.978 -14.287 -22.334  0.00  0.00    +0.004 C 
ATOM      6  C   UNL     1      33.659 -14.735 -23.616  0.00  0.00    +0.053 C 
ENDROOT
BRANCH   1   7
ATOM      7  C   UNL     1      32.651 -10.724 -22.425  0.00  0.00    +0.049 C 
ATOM      8  C   UNL     1      31.403  -8.064 -22.890  0.00  0.00    +0.025 C 
ATOM      9  C   UNL     1      31.129 -10.516 -22.284  0.00  0.00    +0.115 C 
ATOM     10  C   UNL     1      30.791  -9.070 -21.906  0.00  0.00    +0.034 C 
ATOM     11  C   UNL     1      33.268  -9.699 -23.392  0.00  0.00    +0.007 C 
ATOM     12  C   UNL     1      32.924  -8.264 -22.995  0.00  0.00    +0.005 C 
BRANCH   8  13
ATOM     13  C   UNL     1      31.047  -6.633 -22.531  0.00  0.00    -0.022 C 
ATOM     14  C   UNL     1      30.685  -5.734 -23.533  0.00  0.00    -0.004 C 
ATOM     15  C   UNL     1      31.085  -6.222 -21.200  0.00  0.00    -0.004 C 
ATOM     16  C   UNL     1      30.359  -4.419 -23.203  0.00  0.00    -0.000 C 
ATOM     17  C   UNL     1      30.759  -4.907 -20.869  0.00  0.00    -0.000 C 
ATOM     18  C   UNL     1      30.396  -4.005 -21.871  0.00  0.00    -0.000 C 
ENDBRANCH   8  13
BRANCH   9  19
ATOM     19  O   UNL     1      30.636 -11.377 -21.257  0.00  0.00    -0.384 OA
ATOM     20  H   UNL     1      30.452 -12.253 -21.629  0.00  0.00    +0.210 HD
ENDBRANCH   9  19
ENDBRANCH   1   7
BRANCH   6  23
ATOM     21  O   UNL     1      33.940 -16.429 -25.214  0.00  0.00    -0.270 OA
ATOM     22  N   UNL     1      34.408 -16.970 -23.008  0.00  0.00    -0.301 N 
ATOM     23  C   UNL     1      33.998 -16.091 -24.018  0.00  0.00    +0.246 C 
ATOM     24  H   UNL     1      34.430 -16.636 -22.081  0.00  0.00    +0.150 HD
BRANCH  22  25
ATOM     25  C   UNL     1      34.799 -18.339 -23.251  0.00  0.00    +0.090 C 
BRANCH  25  26
ATOM     26  C   UNL     1      34.190 -19.317 -22.246  0.00  0.00    +0.033 C 
BRANCH  26  27
ATOM     27  C   UNL     1      34.422 -18.934 -20.783  0.00  0.00    +0.111 C 
BRANCH  27  29
ATOM     28  O   UNL     1      35.930 -20.576 -19.800  0.00  0.00    -0.250 OA
ATOM     29  C   UNL     1      35.734 -19.449 -20.231  0.00  0.00    +0.314 C 
BRANCH  29  30
ATOM     30  O   UNL     1      36.705 -18.500 -20.292  0.00  0.00    -0.480 OA
ATOM     31  H   UNL     1      36.544 -17.642 -19.954  0.00  0.00    +0.295 HD
ENDBRANCH  29  30
ENDBRANCH  27  29
ENDBRANCH  26  27
ENDBRANCH  25  26
ENDBRANCH  22  25
ENDBRANCH   6  23
TORSDOF 9
ENDMDL
MODEL 6
REMARK VINA RESULT:     -11.3      1.711      2.645
REMARK  Name = 444394
REMARK  9 active torsions:
REMARK  status: ('A' for Active; 'I' for Inactive)
REMARK    1  A    between atoms: C_1  and  C_7
REMARK    2  A    between atoms: C_6  and  C_23
REMARK    3  A    between atoms: C_8  and  C_13
REMARK    4  A    between atoms: C_9  and  O_19
REMARK    5  A    between atoms: N_22  and  C_25
REMARK    6  A    between atoms: C_25  and  C_26
REMARK    7  A    between atoms: C_26  and  C_27
REMARK    8  A    between atoms: C_27  and  C_29
REMARK    9  A    between atoms: C_29  and  O_30
REMARK                            x       y       z     vdW  Elec       q    Type
REMARK                         _______ _______ _______ _____ _____    ______ ____
ROOT
ATOM      1  C   UNL     1      34.456 -19.065 -21.379  0.00  0.00    -0.020 C 
ATOM      2  C   UNL     1      34.760 -17.761 -20.999  0.00  0.00    -0.004 C 
ATOM      3  C   UNL     1      34.001 -19.338 -22.665  0.00  0.00    -0.004 C 
ATOM      4  C   UNL     1      34.609 -16.720 -21.914  0.00  0.00    +0.004 C 
ATOM      5  C   UNL     1      33.850 -18.297 -23.581  0.00  0.00    +0.004 C 
ATOM      6  C   UNL     1      34.153 -16.988 -23.206  0.00  0.00    +0.053 C 
ENDROOT
BRANCH   1   7
ATOM      7  C   UNL     1      34.623 -20.201 -20.380  0.00  0.00    +0.049 C 
ATOM      8  C   UNL     1      34.861 -21.276 -17.616  0.00  0.00    +0.025 C 
ATOM      9  C   UNL     1      33.384 -20.378 -19.479  0.00  0.00    +0.115 C 
ATOM     10  C   UNL     1      33.591 -21.495 -18.451  0.00  0.00    +0.034 C 
ATOM     11  C   UNL     1      35.899 -20.005 -19.542  0.00  0.00    +0.007 C 
ATOM     12  C   UNL     1      36.091 -21.131 -18.528  0.00  0.00    +0.005 C 
BRANCH   8  13
ATOM     13  C   UNL     1      35.053 -22.368 -16.580  0.00  0.00    -0.022 C 
ATOM     14  C   UNL     1      36.299 -22.548 -15.984  0.00  0.00    -0.004 C 
ATOM     15  C   UNL     1      33.982 -23.188 -16.230  0.00  0.00    -0.004 C 
ATOM     16  C   UNL     1      36.476 -23.553 -15.033  0.00  0.00    -0.000 C 
ATOM     17  C   UNL     1      34.158 -24.193 -15.279  0.00  0.00    -0.000 C 
ATOM     18  C   UNL     1      35.405 -24.376 -14.680  0.00  0.00    -0.000 C 
ENDBRANCH   8  13
BRANCH   9  19
ATOM     19  O   UNL     1      32.262 -20.721 -20.295  0.00  0.00    -0.384 OA
ATOM     20  H   UNL     1      32.543 -20.786 -21.221  0.00  0.00    +0.210 HD
ENDBRANCH   9  19
ENDBRANCH   1   7
BRANCH   6  23
ATOM     21  O   UNL     1      34.481 -15.987 -25.301  0.00  0.00    -0.270 OA
ATOM     22  N   UNL     1      33.255 -14.790 -23.739  0.00  0.00    -0.301 N 
ATOM     23  C   UNL     1      33.993 -15.902 -24.160  0.00  0.00    +0.246 C 
ATOM     24  H   UNL     1      32.898 -14.788 -22.821  0.00  0.00    +0.150 HD
BRANCH  22  25
ATOM     25  C   UNL     1      32.990 -13.643 -24.578  0.00  0.00    +0.090 C 
BRANCH  25  26
ATOM     26  C   UNL     1      32.913 -12.337 -23.789  0.00  0.00    +0.033 C 
BRANCH  26  27
ATOM     27  C   UNL     1      33.260 -12.481 -22.306  0.00  0.00    +0.111 C 
BRANCH  27  29
ATOM     28  O   UNL     1      32.094 -12.333 -20.172  0.00  0.00    -0.250 OA
ATOM     29  C   UNL     1      32.065 -12.311 -21.393  0.00  0.00    +0.314 C 
BRANCH  29  30
ATOM     30  O   UNL     1      30.925 -12.101 -22.103  0.00  0.00    -0.480 OA
ATOM     31  H   UNL     1      30.972 -11.779 -22.981  0.00  0.00    +0.295 HD
ENDBRANCH  29  30
ENDBRANCH  27  29
ENDBRANCH  26  27
ENDBRANCH  25  26
ENDBRANCH  22  25
ENDBRANCH   6  23
TORSDOF 9
ENDMDL
MODEL 7
REMARK VINA RESULT:     -11.1      3.586     10.327
REMARK  Name = 444394
REMARK  9 active torsions:
REMARK  status: ('A' for Active; 'I' for Inactive)
REMARK    1  A    between atoms: C_1  and  C_7
REMARK    2  A    between atoms: C_6  and  C_23
REMARK    3  A    between atoms: C_8  and  C_13
REMARK    4  A    between atoms: C_9  and  O_19
REMARK    5  A    between atoms: N_22  and  C_25
REMARK    6  A    between atoms: C_25  and  C_26
REMARK    7  A    between atoms: C_26  and  C_27
REMARK    8  A    between atoms: C_27  and  C_29
REMARK    9  A    between atoms: C_29  and  O_30
REMARK                            x       y       z     vdW  Elec       q    Type
REMARK                         _______ _______ _______ _____ _____    ______ ____
ROOT
ATOM      1  C   UNL     1      34.881 -21.550 -17.682  0.00  0.00    -0.020 C 
ATOM      2  C   UNL     1      36.134 -21.615 -17.079  0.00  0.00    -0.004 C 
ATOM      3  C   UNL     1      33.882 -22.453 -17.334  0.00  0.00    -0.004 C 
ATOM      4  C   UNL     1      36.389 -22.592 -16.117  0.00  0.00    +0.004 C 
ATOM      5  C   UNL     1      34.137 -23.431 -16.373  0.00  0.00    +0.004 C 
ATOM      6  C   UNL     1      35.390 -23.500 -15.764  0.00  0.00    +0.053 C 
ENDROOT
BRANCH   1   7
ATOM      7  C   UNL     1      34.603 -20.482 -18.730  0.00  0.00    +0.049 C 
ATOM      8  C   UNL     1      34.422 -19.521 -21.539  0.00  0.00    +0.025 C 
ATOM      9  C   UNL     1      33.395 -20.835 -19.622  0.00  0.00    +0.115 C 
ATOM     10  C   UNL     1      33.161 -19.770 -20.699  0.00  0.00    +0.034 C 
ATOM     11  C   UNL     1      35.860 -20.208 -19.575  0.00  0.00    +0.007 C 
ATOM     12  C   UNL     1      35.608 -19.140 -20.638  0.00  0.00    +0.005 C 
BRANCH   8  13
ATOM     13  C   UNL     1      34.183 -18.485 -22.623  0.00  0.00    -0.022 C 
ATOM     14  C   UNL     1      34.686 -17.194 -22.473  0.00  0.00    -0.004 C 
ATOM     15  C   UNL     1      33.460 -18.828 -23.764  0.00  0.00    -0.004 C 
ATOM     16  C   UNL     1      34.465 -16.242 -23.468  0.00  0.00    -0.000 C 
ATOM     17  C   UNL     1      33.241 -17.876 -24.760  0.00  0.00    -0.000 C 
ATOM     18  C   UNL     1      33.742 -16.583 -24.611  0.00  0.00    -0.000 C 
ENDBRANCH   8  13
BRANCH   9  19
ATOM     19  O   UNL     1      32.224 -20.915 -18.808  0.00  0.00    -0.384 OA
ATOM     20  H   UNL     1      32.461 -20.742 -17.883  0.00  0.00    +0.210 HD
ENDBRANCH   9  19
ENDBRANCH   1   7
BRANCH   6  23
ATOM     21  O   UNL     1      35.356 -25.709 -14.977  0.00  0.00    -0.270 OA
ATOM     22  N   UNL     1      36.278 -24.104 -13.580  0.00  0.00    -0.301 N 
ATOM     23  C   UNL     1      35.657 -24.521 -14.763  0.00  0.00    +0.246 C 
ATOM     24  H   UNL     1      36.488 -23.147 -13.477  0.00  0.00    +0.150 HD
BRANCH  22  25
ATOM     25  C   UNL     1      36.628 -25.001 -12.503  0.00  0.00    +0.090 C 
BRANCH  25  26
ATOM     26  C   UNL     1      38.001 -25.646 -12.691  0.00  0.00    +0.033 C 
BRANCH  26  27
ATOM     27  C   UNL     1      38.983 -24.798 -13.503  0.00  0.00    +0.111 C 
BRANCH  27  29
ATOM     28  O   UNL     1      40.826 -26.373 -13.755  0.00  0.00    -0.250 OA
ATOM     29  C   UNL     1      40.001 -25.625 -14.260  0.00  0.00    +0.314 C 
BRANCH  29  30
ATOM     30  O   UNL     1      39.878 -25.455 -15.603  0.00  0.00    -0.480 OA
ATOM     31  H   UNL     1      40.588 -25.682 -16.170  0.00  0.00    +0.295 HD
ENDBRANCH  29  30
ENDBRANCH  27  29
ENDBRANCH  26  27
ENDBRANCH  25  26
ENDBRANCH  22  25
ENDBRANCH   6  23
TORSDOF 9
ENDMDL
MODEL 8
REMARK VINA RESULT:     -10.8      6.045     10.253
REMARK  Name = 444394
REMARK  9 active torsions:
REMARK  status: ('A' for Active; 'I' for Inactive)
REMARK    1  A    between atoms: C_1  and  C_7
REMARK    2  A    between atoms: C_6  and  C_23
REMARK    3  A    between atoms: C_8  and  C_13
REMARK    4  A    between atoms: C_9  and  O_19
REMARK    5  A    between atoms: N_22  and  C_25
REMARK    6  A    between atoms: C_25  and  C_26
REMARK    7  A    between atoms: C_26  and  C_27
REMARK    8  A    between atoms: C_27  and  C_29
REMARK    9  A    between atoms: C_29  and  O_30
REMARK                            x       y       z     vdW  Elec       q    Type
REMARK                         _______ _______ _______ _____ _____    ______ ____
ROOT
ATOM      1  C   UNL     1      32.329 -11.432 -22.665  0.00  0.00    -0.020 C 
ATOM      2  C   UNL     1      31.187 -10.856 -22.118  0.00  0.00    -0.004 C 
ATOM      3  C   UNL     1      33.257 -10.649 -23.347  0.00  0.00    -0.004 C 
ATOM      4  C   UNL     1      30.970  -9.485 -22.253  0.00  0.00    +0.004 C 
ATOM      5  C   UNL     1      33.040  -9.279 -23.482  0.00  0.00    +0.004 C 
ATOM      6  C   UNL     1      31.897  -8.696 -22.935  0.00  0.00    +0.053 C 
ENDROOT
BRANCH   1   7
ATOM      7  C   UNL     1      32.566 -12.927 -22.516  0.00  0.00    +0.049 C 
ATOM      8  C   UNL     1      34.320 -15.328 -22.423  0.00  0.00    +0.025 C 
ATOM      9  C   UNL     1      33.392 -13.269 -21.259  0.00  0.00    +0.115 C 
ATOM     10  C   UNL     1      33.659 -14.774 -21.153  0.00  0.00    +0.034 C 
ATOM     11  C   UNL     1      33.216 -13.504 -23.786  0.00  0.00    +0.007 C 
ATOM     12  C   UNL     1      33.468 -15.006 -23.663  0.00  0.00    +0.005 C 
BRANCH   8  13
ATOM     13  C   UNL     1      34.607 -16.814 -22.309  0.00  0.00    -0.022 C 
ATOM     14  C   UNL     1      35.317 -17.302 -21.213  0.00  0.00    -0.004 C 
ATOM     15  C   UNL     1      34.162 -17.686 -23.301  0.00  0.00    -0.004 C 
ATOM     16  C   UNL     1      35.583 -18.667 -21.108  0.00  0.00    -0.000 C 
ATOM     17  C   UNL     1      34.427 -19.051 -23.196  0.00  0.00    -0.000 C 
ATOM     18  C   UNL     1      35.138 -19.542 -22.101  0.00  0.00    -0.000 C 
ENDBRANCH   8  13
BRANCH   9  19
ATOM     19  O   UNL     1      32.666 -12.859 -20.100  0.00  0.00    -0.384 OA
ATOM     20  H   UNL     1      33.283 -12.516 -19.435  0.00  0.00    +0.210 HD
ENDBRANCH   9  19
ENDBRANCH   1   7
BRANCH   6  23
ATOM     21  O   UNL     1      32.442  -6.569 -23.761  0.00  0.00    -0.270 OA
ATOM     22  N   UNL     1      30.545  -6.734 -22.437  0.00  0.00    -0.301 N 
ATOM     23  C   UNL     1      31.670  -7.266 -23.078  0.00  0.00    +0.246 C 
ATOM     24  H   UNL     1      29.977  -7.344 -21.913  0.00  0.00    +0.150 HD
BRANCH  22  25
ATOM     25  C   UNL     1      30.173  -5.340 -22.504  0.00  0.00    +0.090 C 
BRANCH  25  26
ATOM     26  C   UNL     1      30.363  -4.611 -21.174  0.00  0.00    +0.033 C 
BRANCH  26  27
ATOM     27  C   UNL     1      31.754  -4.786 -20.559  0.00  0.00    +0.111 C 
BRANCH  27  29
ATOM     28  O   UNL     1      31.004  -6.869 -19.543  0.00  0.00    -0.250 OA
ATOM     29  C   UNL     1      31.877  -6.029 -19.705  0.00  0.00    +0.314 C 
BRANCH  29  30
ATOM     30  O   UNL     1      33.109  -6.122 -19.138  0.00  0.00    -0.480 OA
ATOM     31  H   UNL     1      33.427  -6.951 -18.842  0.00  0.00    +0.295 HD
ENDBRANCH  29  30
ENDBRANCH  27  29
ENDBRANCH  26  27
ENDBRANCH  25  26
ENDBRANCH  22  25
ENDBRANCH   6  23
TORSDOF 9
ENDMDL
MODEL 9
REMARK VINA RESULT:     -10.7      3.635     10.300
REMARK  Name = 444394
REMARK  9 active torsions:
REMARK  status: ('A' for Active; 'I' for Inactive)
REMARK    1  A    between atoms: C_1  and  C_7
REMARK    2  A    between atoms: C_6  and  C_23
REMARK    3  A    between atoms: C_8  and  C_13
REMARK    4  A    between atoms: C_9  and  O_19
REMARK    5  A    between atoms: N_22  and  C_25
REMARK    6  A    between atoms: C_25  and  C_26
REMARK    7  A    between atoms: C_26  and  C_27
REMARK    8  A    between atoms: C_27  and  C_29
REMARK    9  A    between atoms: C_29  and  O_30
REMARK                            x       y       z     vdW  Elec       q    Type
REMARK                         _______ _______ _______ _____ _____    ______ ____
ROOT
ATOM      1  C   UNL     1      34.065 -22.006 -17.733  0.00  0.00    -0.020 C 
ATOM      2  C   UNL     1      32.917 -22.626 -17.250  0.00  0.00    -0.004 C 
ATOM      3  C   UNL     1      35.228 -21.979 -16.969  0.00  0.00    -0.004 C 
ATOM      4  C   UNL     1      32.932 -23.226 -15.992  0.00  0.00    +0.004 C 
ATOM      5  C   UNL     1      35.243 -22.579 -15.711  0.00  0.00    +0.004 C 
ATOM      6  C   UNL     1      34.095 -23.203 -15.221  0.00  0.00    +0.053 C 
ENDROOT
BRANCH   1   7
ATOM      7  C   UNL     1      34.048 -21.353 -19.108  0.00  0.00    +0.049 C 
ATOM      8  C   UNL     1      34.000 -18.985 -20.908  0.00  0.00    +0.025 C 
ATOM      9  C   UNL     1      35.322 -20.528 -19.382  0.00  0.00    +0.115 C 
ATOM     10  C   UNL     1      35.265 -19.841 -20.751  0.00  0.00    +0.034 C 
ATOM     11  C   UNL     1      32.780 -20.500 -19.289  0.00  0.00    +0.007 C 
ATOM     12  C   UNL     1      32.739 -19.829 -20.662  0.00  0.00    +0.005 C 
BRANCH   8  13
ATOM     13  C   UNL     1      33.955 -18.284 -22.253  0.00  0.00    -0.022 C 
ATOM     14  C   UNL     1      33.413 -18.937 -23.358  0.00  0.00    -0.004 C 
ATOM     15  C   UNL     1      34.459 -16.991 -22.380  0.00  0.00    -0.004 C 
ATOM     16  C   UNL     1      33.373 -18.294 -24.596  0.00  0.00    -0.000 C 
ATOM     17  C   UNL     1      34.418 -16.348 -23.617  0.00  0.00    -0.000 C 
ATOM     18  C   UNL     1      33.876 -16.999 -24.725  0.00  0.00    -0.000 C 
ENDBRANCH   8  13
BRANCH   9  19
ATOM     19  O   UNL     1      36.453 -21.400 -19.364  0.00  0.00    -0.384 OA
ATOM     20  H   UNL     1      36.190 -22.278 -19.682  0.00  0.00    +0.210 HD
ENDBRANCH   9  19
ENDBRANCH   1   7
BRANCH   6  23
ATOM     21  O   UNL     1      33.054 -24.226 -13.386  0.00  0.00    -0.270 OA
ATOM     22  N   UNL     1      35.357 -23.970 -13.287  0.00  0.00    -0.301 N 
ATOM     23  C   UNL     1      34.110 -23.826 -13.908  0.00  0.00    +0.246 C 
ATOM     24  H   UNL     1      36.153 -23.631 -13.757  0.00  0.00    +0.150 HD
BRANCH  22  25
ATOM     25  C   UNL     1      35.538 -24.589 -11.994  0.00  0.00    +0.090 C 
BRANCH  25  26
ATOM     26  C   UNL     1      37.010 -24.761 -11.621  0.00  0.00    +0.033 C 
BRANCH  26  27
ATOM     27  C   UNL     1      37.986 -24.137 -12.621  0.00  0.00    +0.111 C 
BRANCH  27  29
ATOM     28  O   UNL     1      39.421 -25.942 -13.407  0.00  0.00    -0.250 OA
ATOM     29  C   UNL     1      38.532 -25.131 -13.623  0.00  0.00    +0.314 C 
BRANCH  29  30
ATOM     30  O   UNL     1      37.890 -25.035 -14.817  0.00  0.00    -0.480 OA
ATOM     31  H   UNL     1      38.263 -25.428 -15.582  0.00  0.00    +0.295 HD
ENDBRANCH  29  30
ENDBRANCH  27  29
ENDBRANCH  26  27
ENDBRANCH  25  26
ENDBRANCH  22  25
ENDBRANCH   6  23
TORSDOF 9
ENDMDL
