MODEL 1
REMARK VINA RESULT:     -13.7      0.000      0.000
REMARK  Name = 42628060
REMARK  6 active torsions:
REMARK  status: ('A' for Active; 'I' for Inactive)
REMARK    1  A    between atoms: N_2  and  C_6
REMARK    2  A    between atoms: C_3  and  C_19
REMARK    3  A    between atoms: C_9  and  N_13
REMARK    4  A    between atoms: C_19  and  N_20
REMARK    5  A    between atoms: C_21  and  N_27
REMARK    6  A    between atoms: C_28  and  C_32
REMARK                            x       y       z     vdW  Elec       q    Type
REMARK                         _______ _______ _______ _____ _____    ______ ____
ROOT
ATOM      1  O   UNL     1      36.066 -19.785 -19.783  0.00  0.00    -0.277 OA
ATOM      2  N   UNL     1      34.269 -21.076 -18.995  0.00  0.00    -0.284 N 
ATOM      3  C   UNL     1      34.917 -20.207 -19.871  0.00  0.00    +0.205 C 
ATOM      4  H   UNL     1      33.339 -21.306 -19.220  0.00  0.00    +0.155 HD
ENDROOT
BRANCH   2   6
ATOM      5  F   UNL     1      32.676 -22.609 -17.300  0.00  0.00    -0.203 F 
ATOM      6  C   UNL     1      34.792 -21.664 -17.820  0.00  0.00    +0.078 C 
ATOM      7  C   UNL     1      33.968 -22.427 -16.992  0.00  0.00    +0.155 C 
ATOM      8  C   UNL     1      36.134 -21.480 -17.488  0.00  0.00    +0.018 C 
ATOM      9  C   UNL     1      35.828 -22.821 -15.502  0.00  0.00    +0.061 C 
ATOM     10  C   UNL     1      34.486 -23.006 -15.833  0.00  0.00    +0.046 C 
ATOM     11  C   UNL     1      36.653 -22.059 -16.329  0.00  0.00    +0.017 C 
BRANCH   9  13
ATOM     12  O   UNL     1      36.477 -25.621 -15.176  0.00  0.00    -0.269 OA
ATOM     13  N   UNL     1      36.367 -23.422 -14.297  0.00  0.00    -0.233 N 
ATOM     14  C   UNL     1      36.606 -24.820 -14.251  0.00  0.00    +0.257 C 
ATOM     15  C   UNL     1      36.674 -22.631 -13.187  0.00  0.00    +0.072 C 
ATOM     16  C   UNL     1      37.119 -25.365 -12.955  0.00  0.00    +0.059 C 
ATOM     17  C   UNL     1      37.163 -23.139 -12.051  0.00  0.00    +0.017 C 
ATOM     18  C   UNL     1      37.385 -24.548 -11.932  0.00  0.00    +0.006 C 
ENDBRANCH   9  13
ENDBRANCH   2   6
BRANCH   3  19
ATOM     19  C   UNL     1      33.986 -19.815 -21.006  0.00  0.00    +0.010 C 
BRANCH  19  20
ATOM     20  N   UNL     1      34.603 -18.758 -21.794  0.00  0.00    +0.394 N 
ATOM     21  C   UNL     1      34.755 -16.510 -22.393  0.00  0.00    +0.049 C 
ATOM     22  C   UNL     1      34.539 -17.342 -23.659  0.00  0.00    -0.005 C 
ATOM     23  C   UNL     1      34.338 -17.426 -21.247  0.00  0.00    -0.057 C 
ATOM     24  C   UNL     1      34.088 -18.711 -23.163  0.00  0.00    -0.075 C 
ATOM     25  H   UNL     1      35.598 -18.982 -21.773  0.00  0.00    -0.079 HD
BRANCH  21  27
ATOM     26  O   UNL     1      34.127 -14.873 -20.120  0.00  0.00    -0.270 OA
ATOM     27  N   UNL     1      34.018 -15.277 -22.401  0.00  0.00    -0.304 N 
ATOM     28  C   UNL     1      33.760 -14.548 -21.247  0.00  0.00    +0.252 C 
ATOM     29  H   UNL     1      33.681 -14.934 -23.261  0.00  0.00    +0.150 HD
BRANCH  28  32
ATOM     30 CL   UNL     1      31.769  -9.776 -23.210  0.00  0.00    -0.075 Cl
ATOM     31  S   UNL     1      33.296 -12.279 -22.748  0.00  0.00    -0.071 S 
ATOM     32  C   UNL     1      32.961 -13.307 -21.420  0.00  0.00    +0.084 C 
ATOM     33  C   UNL     1      31.933 -12.826 -20.639  0.00  0.00    +0.012 C 
ATOM     34  C   UNL     1      31.415 -11.596 -21.138  0.00  0.00    +0.019 C 
ATOM     35  C   UNL     1      32.065 -11.185 -22.280  0.00  0.00    +0.087 C 
ENDBRANCH  28  32
ENDBRANCH  21  27
ENDBRANCH  19  20
ENDBRANCH   3  19
TORSDOF 6
ENDMDL
MODEL 2
REMARK VINA RESULT:     -13.3      5.204     12.051
REMARK  Name = 42628060
REMARK  6 active torsions:
REMARK  status: ('A' for Active; 'I' for Inactive)
REMARK    1  A    between atoms: N_2  and  C_6
REMARK    2  A    between atoms: C_3  and  C_19
REMARK    3  A    between atoms: C_9  and  N_13
REMARK    4  A    between atoms: C_19  and  N_20
REMARK    5  A    between atoms: C_21  and  N_27
REMARK    6  A    between atoms: C_28  and  C_32
REMARK                            x       y       z     vdW  Elec       q    Type
REMARK                         _______ _______ _______ _____ _____    ______ ____
ROOT
ATOM      1  O   UNL     1      33.078 -19.928 -20.483  0.00  0.00    -0.277 OA
ATOM      2  N   UNL     1      35.127 -18.966 -21.106  0.00  0.00    -0.284 N 
ATOM      3  C   UNL     1      34.303 -19.937 -20.540  0.00  0.00    +0.205 C 
ATOM      4  H   UNL     1      36.096 -19.136 -21.057  0.00  0.00    +0.155 HD
ENDROOT
BRANCH   2   6
ATOM      5  F   UNL     1      34.445 -18.904 -23.806  0.00  0.00    -0.203 F 
ATOM      6  C   UNL     1      34.734 -17.765 -21.742  0.00  0.00    +0.078 C 
ATOM      7  C   UNL     1      34.399 -17.768 -23.096  0.00  0.00    +0.155 C 
ATOM      8  C   UNL     1      34.685 -16.577 -21.014  0.00  0.00    +0.018 C 
ATOM      9  C   UNL     1      33.963 -15.394 -22.992  0.00  0.00    +0.061 C 
ATOM     10  C   UNL     1      34.013 -16.582 -23.721  0.00  0.00    +0.046 C 
ATOM     11  C   UNL     1      34.298 -15.390 -21.639  0.00  0.00    +0.017 C 
BRANCH   9  13
ATOM     12  O   UNL     1      32.999 -15.173 -25.710  0.00  0.00    -0.269 OA
ATOM     13  N   UNL     1      33.562 -14.161 -23.642  0.00  0.00    -0.233 N 
ATOM     14  C   UNL     1      33.144 -14.180 -24.997  0.00  0.00    +0.257 C 
ATOM     15  C   UNL     1      33.565 -12.955 -22.937  0.00  0.00    +0.072 C 
ATOM     16  C   UNL     1      32.792 -12.858 -25.604  0.00  0.00    +0.059 C 
ATOM     17  C   UNL     1      33.214 -11.791 -23.494  0.00  0.00    +0.017 C 
ATOM     18  C   UNL     1      32.822 -11.744 -24.870  0.00  0.00    +0.006 C 
ENDBRANCH   9  13
ENDBRANCH   2   6
BRANCH   3  19
ATOM     19  C   UNL     1      35.141 -21.066 -19.963  0.00  0.00    +0.010 C 
BRANCH  19  20
ATOM     20  N   UNL     1      34.849 -21.209 -18.545  0.00  0.00    +0.394 N 
ATOM     21  C   UNL     1      35.472 -21.928 -16.416  0.00  0.00    +0.049 C 
ATOM     22  C   UNL     1      34.116 -22.548 -16.768  0.00  0.00    -0.005 C 
ATOM     23  C   UNL     1      36.051 -21.473 -17.752  0.00  0.00    -0.057 C 
ATOM     24  C   UNL     1      33.962 -22.339 -18.269  0.00  0.00    -0.075 C 
ATOM     25  H   UNL     1      34.418 -20.321 -18.290  0.00  0.00    -0.079 HD
BRANCH  21  27
ATOM     26  O   UNL     1      35.389 -22.599 -13.626  0.00  0.00    -0.270 OA
ATOM     27  N   UNL     1      36.342 -22.841 -15.727  0.00  0.00    -0.304 N 
ATOM     28  C   UNL     1      36.228 -23.105 -14.368  0.00  0.00    +0.252 C 
ATOM     29  H   UNL     1      37.048 -23.297 -16.239  0.00  0.00    +0.150 HD
BRANCH  28  32
ATOM     30 CL   UNL     1      40.683 -26.311 -13.682  0.00  0.00    -0.075 Cl
ATOM     31  S   UNL     1      38.621 -24.438 -14.708  0.00  0.00    -0.071 S 
ATOM     32  C   UNL     1      37.221 -24.054 -13.800  0.00  0.00    +0.084 C 
ATOM     33  C   UNL     1      37.194 -24.710 -12.589  0.00  0.00    +0.012 C 
ATOM     34  C   UNL     1      38.338 -25.538 -12.404  0.00  0.00    +0.019 C 
ATOM     35  C   UNL     1      39.195 -25.484 -13.480  0.00  0.00    +0.087 C 
ENDBRANCH  28  32
ENDBRANCH  21  27
ENDBRANCH  19  20
ENDBRANCH   3  19
TORSDOF 6
ENDMDL
MODEL 3
REMARK VINA RESULT:     -13.0      5.017     11.912
REMARK  Name = 42628060
REMARK  6 active torsions:
REMARK  status: ('A' for Active; 'I' for Inactive)
REMARK    1  A    between atoms: N_2  and  C_6
REMARK    2  A    between atoms: C_3  and  C_19
REMARK    3  A    between atoms: C_9  and  N_13
REMARK    4  A    between atoms: C_19  and  N_20
REMARK    5  A    between atoms: C_21  and  N_27
REMARK    6  A    between atoms: C_28  and  C_32
REMARK                            x       y       z     vdW  Elec       q    Type
REMARK                         _______ _______ _______ _____ _____    ______ ____
ROOT
ATOM      1  O   UNL     1      33.558 -19.319 -21.762  0.00  0.00    -0.277 OA
ATOM      2  N   UNL     1      35.117 -17.827 -20.835  0.00  0.00    -0.284 N 
ATOM      3  C   UNL     1      34.583 -19.080 -21.132  0.00  0.00    +0.205 C 
ATOM      4  H   UNL     1      35.950 -17.823 -20.312  0.00  0.00    +0.155 HD
ENDROOT
BRANCH   2   6
ATOM      5  F   UNL     1      34.995 -17.014 -23.497  0.00  0.00    -0.203 F 
ATOM      6  C   UNL     1      34.601 -16.562 -21.199  0.00  0.00    +0.078 C 
ATOM      7  C   UNL     1      34.554 -16.185 -22.541  0.00  0.00    +0.155 C 
ATOM      8  C   UNL     1      34.140 -15.689 -20.213  0.00  0.00    +0.018 C 
ATOM      9  C   UNL     1      33.584 -14.063 -21.911  0.00  0.00    +0.061 C 
ATOM     10  C   UNL     1      34.045 -14.935 -22.897  0.00  0.00    +0.046 C 
ATOM     11  C   UNL     1      33.631 -14.439 -20.569  0.00  0.00    +0.017 C 
BRANCH   9  13
ATOM     12  O   UNL     1      31.608 -12.574 -20.413  0.00  0.00    -0.269 OA
ATOM     13  N   UNL     1      33.056 -12.764 -22.281  0.00  0.00    -0.233 N 
ATOM     14  C   UNL     1      32.056 -12.154 -21.480  0.00  0.00    +0.257 C 
ATOM     15  C   UNL     1      33.539 -12.098 -23.410  0.00  0.00    +0.072 C 
ATOM     16  C   UNL     1      31.534 -10.835 -21.957  0.00  0.00    +0.059 C 
ATOM     17  C   UNL     1      33.077 -10.904 -23.797  0.00  0.00    +0.017 C 
ATOM     18  C   UNL     1      32.039 -10.260 -23.050  0.00  0.00    +0.006 C 
ENDBRANCH   9  13
ENDBRANCH   2   6
BRANCH   3  19
ATOM     19  C   UNL     1      35.459 -20.175 -20.548  0.00  0.00    +0.010 C 
BRANCH  19  20
ATOM     20  N   UNL     1      34.971 -20.530 -19.223  0.00  0.00    +0.394 N 
ATOM     21  C   UNL     1      35.299 -21.562 -17.159  0.00  0.00    +0.049 C 
ATOM     22  C   UNL     1      34.019 -22.119 -17.789  0.00  0.00    -0.005 C 
ATOM     23  C   UNL     1      36.054 -20.913 -18.314  0.00  0.00    -0.057 C 
ATOM     24  C   UNL     1      34.076 -21.687 -19.250  0.00  0.00    -0.075 C 
ATOM     25  H   UNL     1      34.491 -19.689 -18.903  0.00  0.00    -0.079 HD
BRANCH  21  27
ATOM     26  O   UNL     1      34.989 -22.465 -14.451  0.00  0.00    -0.270 OA
ATOM     27  N   UNL     1      36.079 -22.570 -16.496  0.00  0.00    -0.304 N 
ATOM     28  C   UNL     1      35.858 -22.944 -15.176  0.00  0.00    +0.252 C 
ATOM     29  H   UNL     1      36.802 -23.013 -16.998  0.00  0.00    +0.150 HD
BRANCH  28  32
ATOM     30 CL   UNL     1      40.370 -25.885 -13.915  0.00  0.00    -0.075 Cl
ATOM     31  S   UNL     1      38.445 -23.878 -14.957  0.00  0.00    -0.071 S 
ATOM     32  C   UNL     1      36.769 -23.983 -14.628  0.00  0.00    +0.084 C 
ATOM     33  C   UNL     1      36.461 -25.079 -13.852  0.00  0.00    +0.012 C 
ATOM     34  C   UNL     1      37.618 -25.842 -13.523  0.00  0.00    +0.019 C 
ATOM     35  C   UNL     1      38.765 -25.301 -14.060  0.00  0.00    +0.087 C 
ENDBRANCH  28  32
ENDBRANCH  21  27
ENDBRANCH  19  20
ENDBRANCH   3  19
TORSDOF 6
ENDMDL
MODEL 4
REMARK VINA RESULT:     -12.2      5.540     11.240
REMARK  Name = 42628060
REMARK  6 active torsions:
REMARK  status: ('A' for Active; 'I' for Inactive)
REMARK    1  A    between atoms: N_2  and  C_6
REMARK    2  A    between atoms: C_3  and  C_19
REMARK    3  A    between atoms: C_9  and  N_13
REMARK    4  A    between atoms: C_19  and  N_20
REMARK    5  A    between atoms: C_21  and  N_27
REMARK    6  A    between atoms: C_28  and  C_32
REMARK                            x       y       z     vdW  Elec       q    Type
REMARK                         _______ _______ _______ _____ _____    ______ ____
ROOT
ATOM      1  O   UNL     1      30.700 -21.682 -17.231  0.00  0.00    -0.277 OA
ATOM      2  N   UNL     1      32.869 -22.263 -17.919  0.00  0.00    -0.284 N 
ATOM      3  C   UNL     1      31.703 -22.386 -17.166  0.00  0.00    +0.205 C 
ATOM      4  H   UNL     1      33.580 -22.916 -17.729  0.00  0.00    +0.155 HD
ENDROOT
BRANCH   2   6
ATOM      5  F   UNL     1      35.480 -21.725 -18.729  0.00  0.00    -0.203 F 
ATOM      6  C   UNL     1      33.150 -21.308 -18.924  0.00  0.00    +0.078 C 
ATOM      7  C   UNL     1      34.468 -21.061 -19.307  0.00  0.00    +0.155 C 
ATOM      8  C   UNL     1      32.106 -20.610 -19.531  0.00  0.00    +0.018 C 
ATOM      9  C   UNL     1      33.698 -19.421 -20.905  0.00  0.00    +0.061 C 
ATOM     10  C   UNL     1      34.742 -20.118 -20.298  0.00  0.00    +0.046 C 
ATOM     11  C   UNL     1      32.380 -19.666 -20.522  0.00  0.00    +0.017 C 
BRANCH   9  13
ATOM     12  O   UNL     1      35.041 -16.895 -20.480  0.00  0.00    -0.269 OA
ATOM     13  N   UNL     1      33.982 -18.440 -21.934  0.00  0.00    -0.233 N 
ATOM     14  C   UNL     1      34.614 -17.217 -21.589  0.00  0.00    +0.257 C 
ATOM     15  C   UNL     1      33.659 -18.698 -23.268  0.00  0.00    +0.072 C 
ATOM     16  C   UNL     1      34.829 -16.242 -22.703  0.00  0.00    +0.059 C 
ATOM     17  C   UNL     1      33.892 -17.822 -24.251  0.00  0.00    +0.017 C 
ATOM     18  C   UNL     1      34.489 -16.555 -23.955  0.00  0.00    +0.006 C 
ENDBRANCH   9  13
ENDBRANCH   2   6
BRANCH   3  19
ATOM     19  C   UNL     1      31.824 -23.550 -16.197  0.00  0.00    +0.010 C 
BRANCH  19  20
ATOM     20  N   UNL     1      32.572 -23.126 -15.023  0.00  0.00    +0.394 N 
ATOM     21  C   UNL     1      34.606 -22.809 -13.929  0.00  0.00    +0.049 C 
ATOM     22  C   UNL     1      33.708 -23.685 -13.052  0.00  0.00    -0.005 C 
ATOM     23  C   UNL     1      33.985 -22.881 -15.320  0.00  0.00    -0.057 C 
ATOM     24  C   UNL     1      32.581 -24.142 -13.970  0.00  0.00    -0.075 C 
ATOM     25  H   UNL     1      32.098 -22.275 -14.721  0.00  0.00    -0.079 HD
BRANCH  21  27
ATOM     26  O   UNL     1      35.698 -25.102 -15.266  0.00  0.00    -0.270 OA
ATOM     27  N   UNL     1      35.979 -23.233 -13.922  0.00  0.00    -0.304 N 
ATOM     28  C   UNL     1      36.419 -24.362 -14.602  0.00  0.00    +0.252 C 
ATOM     29  H   UNL     1      36.635 -22.701 -13.415  0.00  0.00    +0.150 HD
BRANCH  28  32
ATOM     30 CL   UNL     1      41.187 -26.905 -13.419  0.00  0.00    -0.075 Cl
ATOM     31  S   UNL     1      38.332 -26.149 -13.728  0.00  0.00    -0.071 S 
ATOM     32  C   UNL     1      37.865 -24.680 -14.474  0.00  0.00    +0.084 C 
ATOM     33  C   UNL     1      38.952 -23.940 -14.885  0.00  0.00    +0.012 C 
ATOM     34  C   UNL     1      40.184 -24.588 -14.583  0.00  0.00    +0.019 C 
ATOM     35  C   UNL     1      39.993 -25.798 -13.954  0.00  0.00    +0.087 C 
ENDBRANCH  28  32
ENDBRANCH  21  27
ENDBRANCH  19  20
ENDBRANCH   3  19
TORSDOF 6
ENDMDL
MODEL 5
REMARK VINA RESULT:     -12.2      5.468     11.444
REMARK  Name = 42628060
REMARK  6 active torsions:
REMARK  status: ('A' for Active; 'I' for Inactive)
REMARK    1  A    between atoms: N_2  and  C_6
REMARK    2  A    between atoms: C_3  and  C_19
REMARK    3  A    between atoms: C_9  and  N_13
REMARK    4  A    between atoms: C_19  and  N_20
REMARK    5  A    between atoms: C_21  and  N_27
REMARK    6  A    between atoms: C_28  and  C_32
REMARK                            x       y       z     vdW  Elec       q    Type
REMARK                         _______ _______ _______ _____ _____    ______ ____
ROOT
ATOM      1  O   UNL     1      33.840 -18.148 -22.320  0.00  0.00    -0.277 OA
ATOM      2  N   UNL     1      34.766 -16.651 -20.765  0.00  0.00    -0.284 N 
ATOM      3  C   UNL     1      34.591 -17.886 -21.386  0.00  0.00    +0.205 C 
ATOM      4  H   UNL     1      35.411 -16.624 -20.023  0.00  0.00    +0.155 HD
ENDROOT
BRANCH   2   6
ATOM      5  F   UNL     1      35.041 -15.459 -23.269  0.00  0.00    -0.203 F 
ATOM      6  C   UNL     1      34.123 -15.430 -21.078  0.00  0.00    +0.078 C 
ATOM      7  C   UNL     1      34.281 -14.860 -22.341  0.00  0.00    +0.155 C 
ATOM      8  C   UNL     1      33.331 -14.795 -20.121  0.00  0.00    +0.018 C 
ATOM      9  C   UNL     1      32.855 -13.021 -21.689  0.00  0.00    +0.061 C 
ATOM     10  C   UNL     1      33.647 -13.655 -22.647  0.00  0.00    +0.046 C 
ATOM     11  C   UNL     1      32.697 -13.591 -20.427  0.00  0.00    +0.017 C 
BRANCH   9  13
ATOM     12  O   UNL     1      33.617 -11.226 -23.826  0.00  0.00    -0.269 OA
ATOM     13  N   UNL     1      32.196 -11.769 -22.007  0.00  0.00    -0.233 N 
ATOM     14  C   UNL     1      32.693 -10.956 -23.058  0.00  0.00    +0.257 C 
ATOM     15  C   UNL     1      31.062 -11.365 -21.298  0.00  0.00    +0.072 C 
ATOM     16  C   UNL     1      31.983  -9.659 -23.289  0.00  0.00    +0.059 C 
ATOM     17  C   UNL     1      30.426 -10.216 -21.547  0.00  0.00    +0.017 C 
ATOM     18  C   UNL     1      30.907  -9.336 -22.568  0.00  0.00    +0.006 C 
ENDBRANCH   9  13
ENDBRANCH   2   6
BRANCH   3  19
ATOM     19  C   UNL     1      35.480 -18.931 -20.733  0.00  0.00    +0.010 C 
BRANCH  19  20
ATOM     20  N   UNL     1      34.756 -20.190 -20.635  0.00  0.00    +0.394 N 
ATOM     21  C   UNL     1      33.089 -21.490 -19.654  0.00  0.00    +0.049 C 
ATOM     22  C   UNL     1      34.420 -22.238 -19.549  0.00  0.00    -0.005 C 
ATOM     23  C   UNL     1      33.474 -20.043 -19.943  0.00  0.00    -0.057 C 
ATOM     24  C   UNL     1      35.486 -21.195 -19.863  0.00  0.00    -0.075 C 
ATOM     25  H   UNL     1      34.629 -20.478 -21.605  0.00  0.00    -0.079 HD
BRANCH  21  27
ATOM     26  O   UNL     1      33.353 -23.479 -17.601  0.00  0.00    -0.270 OA
ATOM     27  N   UNL     1      32.283 -21.614 -18.471  0.00  0.00    -0.304 N 
ATOM     28  C   UNL     1      32.484 -22.613 -17.527  0.00  0.00    +0.252 C 
ATOM     29  H   UNL     1      31.558 -20.963 -18.323  0.00  0.00    +0.150 HD
BRANCH  28  32
ATOM     30 CL   UNL     1      30.372 -23.117 -12.439  0.00  0.00    -0.075 Cl
ATOM     31  S   UNL     1      32.135 -23.070 -14.827  0.00  0.00    -0.071 S 
ATOM     32  C   UNL     1      31.549 -22.620 -16.372  0.00  0.00    +0.084 C 
ATOM     33  C   UNL     1      30.208 -22.303 -16.344  0.00  0.00    +0.012 C 
ATOM     34  C   UNL     1      29.656 -22.431 -15.037  0.00  0.00    +0.019 C 
ATOM     35  C   UNL     1      30.595 -22.841 -14.116  0.00  0.00    +0.087 C 
ENDBRANCH  28  32
ENDBRANCH  21  27
ENDBRANCH  19  20
ENDBRANCH   3  19
TORSDOF 6
ENDMDL
MODEL 6
REMARK VINA RESULT:     -12.2      1.764      2.137
REMARK  Name = 42628060
REMARK  6 active torsions:
REMARK  status: ('A' for Active; 'I' for Inactive)
REMARK    1  A    between atoms: N_2  and  C_6
REMARK    2  A    between atoms: C_3  and  C_19
REMARK    3  A    between atoms: C_9  and  N_13
REMARK    4  A    between atoms: C_19  and  N_20
REMARK    5  A    between atoms: C_21  and  N_27
REMARK    6  A    between atoms: C_28  and  C_32
REMARK                            x       y       z     vdW  Elec       q    Type
REMARK                         _______ _______ _______ _____ _____    ______ ____
ROOT
ATOM      1  O   UNL     1      35.447 -18.426 -20.496  0.00  0.00    -0.277 OA
ATOM      2  N   UNL     1      34.193 -20.411 -20.458  0.00  0.00    -0.284 N 
ATOM      3  C   UNL     1      34.649 -19.210 -20.999  0.00  0.00    +0.205 C 
ATOM      4  H   UNL     1      33.545 -20.914 -21.002  0.00  0.00    +0.155 HD
ENDROOT
BRANCH   2   6
ATOM      5  F   UNL     1      32.328 -21.743 -18.875  0.00  0.00    -0.203 F 
ATOM      6  C   UNL     1      34.555 -20.991 -19.220  0.00  0.00    +0.078 C 
ATOM      7  C   UNL     1      33.596 -21.652 -18.451  0.00  0.00    +0.155 C 
ATOM      8  C   UNL     1      35.871 -20.901 -18.767  0.00  0.00    +0.018 C 
ATOM      9  C   UNL     1      35.272 -22.132 -16.777  0.00  0.00    +0.061 C 
ATOM     10  C   UNL     1      33.955 -22.222 -17.229  0.00  0.00    +0.046 C 
ATOM     11  C   UNL     1      36.230 -21.472 -17.546  0.00  0.00    +0.017 C 
BRANCH   9  13
ATOM     12  O   UNL     1      37.979 -22.437 -15.806  0.00  0.00    -0.269 OA
ATOM     13  N   UNL     1      35.645 -22.724 -15.507  0.00  0.00    -0.233 N 
ATOM     14  C   UNL     1      37.015 -22.853 -15.163  0.00  0.00    +0.257 C 
ATOM     15  C   UNL     1      34.664 -23.151 -14.609  0.00  0.00    +0.072 C 
ATOM     16  C   UNL     1      37.314 -23.516 -13.855  0.00  0.00    +0.059 C 
ATOM     17  C   UNL     1      34.957 -23.711 -13.431  0.00  0.00    +0.017 C 
ATOM     18  C   UNL     1      36.324 -23.904 -13.049  0.00  0.00    +0.006 C 
ENDBRANCH   9  13
ENDBRANCH   2   6
BRANCH   3  19
ATOM     19  C   UNL     1      34.003 -18.964 -22.352  0.00  0.00    +0.010 C 
BRANCH  19  20
ATOM     20  N   UNL     1      34.530 -17.734 -22.923  0.00  0.00    +0.394 N 
ATOM     21  C   UNL     1      34.653 -15.406 -22.944  0.00  0.00    +0.049 C 
ATOM     22  C   UNL     1      34.242 -15.889 -24.338  0.00  0.00    -0.005 C 
ATOM     23  C   UNL     1      34.376 -16.590 -22.023  0.00  0.00    -0.057 C 
ATOM     24  C   UNL     1      33.831 -17.344 -24.148  0.00  0.00    -0.075 C 
ATOM     25  H   UNL     1      35.512 -17.944 -23.101  0.00  0.00    -0.079 HD
BRANCH  21  27
ATOM     26  O   UNL     1      33.125 -13.650 -24.625  0.00  0.00    -0.270 OA
ATOM     27  N   UNL     1      33.953 -14.221 -22.534  0.00  0.00    -0.304 N 
ATOM     28  C   UNL     1      33.235 -13.427 -23.421  0.00  0.00    +0.252 C 
ATOM     29  H   UNL     1      33.983 -13.959 -21.585  0.00  0.00    +0.150 HD
BRANCH  28  32
ATOM     30 CL   UNL     1      30.635  -9.953 -19.991  0.00  0.00    -0.075 Cl
ATOM     31  S   UNL     1      31.945 -12.296 -21.260  0.00  0.00    -0.071 S 
ATOM     32  C   UNL     1      32.589 -12.220 -22.844  0.00  0.00    +0.084 C 
ATOM     33  C   UNL     1      32.416 -10.978 -23.414  0.00  0.00    +0.012 C 
ATOM     34  C   UNL     1      31.746 -10.076 -22.537  0.00  0.00    +0.019 C 
ATOM     35  C   UNL     1      31.433 -10.664 -21.331  0.00  0.00    +0.087 C 
ENDBRANCH  28  32
ENDBRANCH  21  27
ENDBRANCH  19  20
ENDBRANCH   3  19
TORSDOF 6
ENDMDL
MODEL 7
REMARK VINA RESULT:     -12.0      4.944     12.147
REMARK  Name = 42628060
REMARK  6 active torsions:
REMARK  status: ('A' for Active; 'I' for Inactive)
REMARK    1  A    between atoms: N_2  and  C_6
REMARK    2  A    between atoms: C_3  and  C_19
REMARK    3  A    between atoms: C_9  and  N_13
REMARK    4  A    between atoms: C_19  and  N_20
REMARK    5  A    between atoms: C_21  and  N_27
REMARK    6  A    between atoms: C_28  and  C_32
REMARK                            x       y       z     vdW  Elec       q    Type
REMARK                         _______ _______ _______ _____ _____    ______ ____
ROOT
ATOM      1  O   UNL     1      34.502 -15.649 -25.372  0.00  0.00    -0.277 OA
ATOM      2  N   UNL     1      33.174 -15.286 -23.469  0.00  0.00    -0.284 N 
ATOM      3  C   UNL     1      33.842 -16.055 -24.421  0.00  0.00    +0.205 C 
ATOM      4  H   UNL     1      32.687 -15.782 -22.773  0.00  0.00    +0.155 HD
ENDROOT
BRANCH   2   6
ATOM      5  F   UNL     1      33.828 -13.934 -21.122  0.00  0.00    -0.203 F 
ATOM      6  C   UNL     1      33.116 -13.875 -23.387  0.00  0.00    +0.078 C 
ATOM      7  C   UNL     1      33.449 -13.228 -22.197  0.00  0.00    +0.155 C 
ATOM      8  C   UNL     1      32.721 -13.129 -24.499  0.00  0.00    +0.018 C 
ATOM      9  C   UNL     1      32.996 -11.092 -23.230  0.00  0.00    +0.061 C 
ATOM     10  C   UNL     1      33.390 -11.836 -22.119  0.00  0.00    +0.046 C 
ATOM     11  C   UNL     1      32.662 -11.737 -24.420  0.00  0.00    +0.017 C 
BRANCH   9  13
ATOM     12  O   UNL     1      30.730  -9.569 -22.276  0.00  0.00    -0.269 OA
ATOM     13  N   UNL     1      32.933  -9.646 -23.149  0.00  0.00    -0.233 N 
ATOM     14  C   UNL     1      31.744  -9.014 -22.699  0.00  0.00    +0.257 C 
ATOM     15  C   UNL     1      34.041  -8.867 -23.490  0.00  0.00    +0.072 C 
ATOM     16  C   UNL     1      31.748  -7.518 -22.689  0.00  0.00    +0.059 C 
ATOM     17  C   UNL     1      34.030  -7.532 -23.441  0.00  0.00    +0.017 C 
ATOM     18  C   UNL     1      32.844  -6.839 -23.035  0.00  0.00    +0.006 C 
ENDBRANCH   9  13
ENDBRANCH   2   6
BRANCH   3  19
ATOM     19  C   UNL     1      33.643 -17.533 -24.135  0.00  0.00    +0.010 C 
BRANCH  19  20
ATOM     20  N   UNL     1      34.572 -17.955 -23.097  0.00  0.00    +0.394 N 
ATOM     21  C   UNL     1      35.055 -19.259 -21.226  0.00  0.00    +0.049 C 
ATOM     22  C   UNL     1      35.325 -17.791 -20.885  0.00  0.00    -0.005 C 
ATOM     23  C   UNL     1      34.172 -19.216 -22.468  0.00  0.00    -0.057 C 
ATOM     24  C   UNL     1      34.650 -16.995 -21.995  0.00  0.00    -0.075 C 
ATOM     25  H   UNL     1      35.463 -18.043 -23.584  0.00  0.00    -0.079 HD
BRANCH  21  27
ATOM     26  O   UNL     1      36.276 -21.293 -19.610  0.00  0.00    -0.270 OA
ATOM     27  N   UNL     1      34.441 -19.980 -20.145  0.00  0.00    -0.304 N 
ATOM     28  C   UNL     1      35.112 -20.953 -19.415  0.00  0.00    +0.252 C 
ATOM     29  H   UNL     1      33.506 -19.776 -19.913  0.00  0.00    +0.150 HD
BRANCH  28  32
ATOM     30 CL   UNL     1      33.635 -23.328 -14.642  0.00  0.00    -0.075 Cl
ATOM     31  S   UNL     1      35.091 -21.992 -16.858  0.00  0.00    -0.071 S 
ATOM     32  C   UNL     1      34.328 -21.626 -18.346  0.00  0.00    +0.084 C 
ATOM     33  C   UNL     1      33.009 -22.024 -18.363  0.00  0.00    +0.012 C 
ATOM     34  C   UNL     1      32.621 -22.637 -17.137  0.00  0.00    +0.019 C 
ATOM     35  C   UNL     1      33.656 -22.685 -16.231  0.00  0.00    +0.087 C 
ENDBRANCH  28  32
ENDBRANCH  21  27
ENDBRANCH  19  20
ENDBRANCH   3  19
TORSDOF 6
ENDMDL
MODEL 8
REMARK VINA RESULT:     -11.8      2.942      3.586
REMARK  Name = 42628060
REMARK  6 active torsions:
REMARK  status: ('A' for Active; 'I' for Inactive)
REMARK    1  A    between atoms: N_2  and  C_6
REMARK    2  A    between atoms: C_3  and  C_19
REMARK    3  A    between atoms: C_9  and  N_13
REMARK    4  A    between atoms: C_19  and  N_20
REMARK    5  A    between atoms: C_21  and  N_27
REMARK    6  A    between atoms: C_28  and  C_32
REMARK                            x       y       z     vdW  Elec       q    Type
REMARK                         _______ _______ _______ _____ _____    ______ ____
ROOT
ATOM      1  O   UNL     1      34.585 -17.856 -20.589  0.00  0.00    -0.277 OA
ATOM      2  N   UNL     1      35.008 -20.143 -20.915  0.00  0.00    -0.284 N 
ATOM      3  C   UNL     1      35.073 -18.785 -21.224  0.00  0.00    +0.205 C 
ATOM      4  H   UNL     1      35.455 -20.753 -21.544  0.00  0.00    +0.155 HD
ENDROOT
BRANCH   2   6
ATOM      5  F   UNL     1      32.235 -20.152 -20.647  0.00  0.00    -0.203 F 
ATOM      6  C   UNL     1      34.374 -20.745 -19.803  0.00  0.00    +0.078 C 
ATOM      7  C   UNL     1      32.984 -20.732 -19.698  0.00  0.00    +0.155 C 
ATOM      8  C   UNL     1      35.143 -21.350 -18.808  0.00  0.00    +0.018 C 
ATOM      9  C   UNL     1      33.130 -21.930 -17.605  0.00  0.00    +0.061 C 
ATOM     10  C   UNL     1      32.361 -21.326 -18.600  0.00  0.00    +0.046 C 
ATOM     11  C   UNL     1      34.520 -21.943 -17.709  0.00  0.00    +0.017 C 
BRANCH   9  13
ATOM     12  O   UNL     1      30.277 -21.998 -17.135  0.00  0.00    -0.269 OA
ATOM     13  N   UNL     1      32.483 -22.547 -16.463  0.00  0.00    -0.233 N 
ATOM     14  C   UNL     1      31.073 -22.477 -16.327  0.00  0.00    +0.257 C 
ATOM     15  C   UNL     1      33.237 -23.228 -15.504  0.00  0.00    +0.072 C 
ATOM     16  C   UNL     1      30.491 -23.098 -15.096  0.00  0.00    +0.059 C 
ATOM     17  C   UNL     1      32.689 -23.804 -14.429  0.00  0.00    +0.017 C 
ATOM     18  C   UNL     1      31.274 -23.729 -14.218  0.00  0.00    +0.006 C 
ENDBRANCH   9  13
ENDBRANCH   2   6
BRANCH   3  19
ATOM     19  C   UNL     1      35.852 -18.576 -22.511  0.00  0.00    +0.010 C 
BRANCH  19  20
ATOM     20  N   UNL     1      35.175 -17.584 -23.332  0.00  0.00    +0.394 N 
ATOM     21  C   UNL     1      34.150 -15.501 -23.549  0.00  0.00    +0.049 C 
ATOM     22  C   UNL     1      33.178 -16.580 -24.035  0.00  0.00    -0.005 C 
ATOM     23  C   UNL     1      35.187 -16.253 -22.721  0.00  0.00    -0.057 C 
ATOM     24  C   UNL     1      33.758 -17.894 -23.526  0.00  0.00    -0.075 C 
ATOM     25  H   UNL     1      35.688 -17.599 -24.212  0.00  0.00    -0.079 HD
BRANCH  21  27
ATOM     26  O   UNL     1      32.844 -13.176 -24.614  0.00  0.00    -0.270 OA
ATOM     27  N   UNL     1      33.502 -14.462 -22.798  0.00  0.00    -0.304 N 
ATOM     28  C   UNL     1      32.893 -13.368 -23.400  0.00  0.00    +0.252 C 
ATOM     29  H   UNL     1      33.489 -14.527 -21.815  0.00  0.00    +0.150 HD
BRANCH  28  32
ATOM     30 CL   UNL     1      30.990  -8.640 -21.250  0.00  0.00    -0.075 Cl
ATOM     31  S   UNL     1      32.180 -10.734 -22.987  0.00  0.00    -0.071 S 
ATOM     32  C   UNL     1      32.290 -12.367 -22.483  0.00  0.00    +0.084 C 
ATOM     33  C   UNL     1      31.774 -12.554 -21.219  0.00  0.00    +0.012 C 
ATOM     34  C   UNL     1      31.282 -11.340 -20.657  0.00  0.00    +0.019 C 
ATOM     35  C   UNL     1      31.440 -10.273 -21.513  0.00  0.00    +0.087 C 
ENDBRANCH  28  32
ENDBRANCH  21  27
ENDBRANCH  19  20
ENDBRANCH   3  19
TORSDOF 6
ENDMDL
MODEL 9
REMARK VINA RESULT:     -11.8      5.173     11.933
REMARK  Name = 42628060
REMARK  6 active torsions:
REMARK  status: ('A' for Active; 'I' for Inactive)
REMARK    1  A    between atoms: N_2  and  C_6
REMARK    2  A    between atoms: C_3  and  C_19
REMARK    3  A    between atoms: C_9  and  N_13
REMARK    4  A    between atoms: C_19  and  N_20
REMARK    5  A    between atoms: C_21  and  N_27
REMARK    6  A    between atoms: C_28  and  C_32
REMARK                            x       y       z     vdW  Elec       q    Type
REMARK                         _______ _______ _______ _____ _____    ______ ____
ROOT
ATOM      1  O   UNL     1      36.759 -18.524 -20.234  0.00  0.00    -0.277 OA
ATOM      2  N   UNL     1      34.859 -19.084 -21.496  0.00  0.00    -0.284 N 
ATOM      3  C   UNL     1      35.924 -19.331 -20.632  0.00  0.00    +0.205 C 
ATOM      4  H   UNL     1      34.287 -19.855 -21.712  0.00  0.00    +0.155 HD
ENDROOT
BRANCH   2   6
ATOM      5  F   UNL     1      33.908 -18.962 -24.112  0.00  0.00    -0.203 F 
ATOM      6  C   UNL     1      34.504 -17.853 -22.097  0.00  0.00    +0.078 C 
ATOM      7  C   UNL     1      34.031 -17.827 -23.409  0.00  0.00    +0.155 C 
ATOM      8  C   UNL     1      34.629 -16.665 -21.377  0.00  0.00    +0.018 C 
ATOM      9  C   UNL     1      33.808 -15.425 -23.280  0.00  0.00    +0.061 C 
ATOM     10  C   UNL     1      33.683 -16.612 -24.001  0.00  0.00    +0.046 C 
ATOM     11  C   UNL     1      34.281 -15.450 -21.969  0.00  0.00    +0.017 C 
BRANCH   9  13
ATOM     12  O   UNL     1      33.948 -12.839 -21.992  0.00  0.00    -0.269 OA
ATOM     13  N   UNL     1      33.447 -14.162 -23.895  0.00  0.00    -0.233 N 
ATOM     14  C   UNL     1      33.522 -12.962 -23.141  0.00  0.00    +0.257 C 
ATOM     15  C   UNL     1      33.046 -14.113 -25.232  0.00  0.00    +0.072 C 
ATOM     16  C   UNL     1      33.088 -11.710 -23.837  0.00  0.00    +0.059 C 
ATOM     17  C   UNL     1      32.694 -12.976 -25.840  0.00  0.00    +0.017 C 
ATOM     18  C   UNL     1      32.710 -11.741 -25.117  0.00  0.00    +0.006 C 
ENDBRANCH   9  13
ENDBRANCH   2   6
BRANCH   3  19
ATOM     19  C   UNL     1      35.938 -20.793 -20.221  0.00  0.00    +0.010 C 
BRANCH  19  20
ATOM     20  N   UNL     1      35.188 -20.956 -18.985  0.00  0.00    +0.394 N 
ATOM     21  C   UNL     1      35.047 -21.741 -16.794  0.00  0.00    +0.049 C 
ATOM     22  C   UNL     1      33.870 -22.305 -17.595  0.00  0.00    -0.005 C 
ATOM     23  C   UNL     1      36.050 -21.279 -17.846  0.00  0.00    -0.057 C 
ATOM     24  C   UNL     1      34.230 -22.060 -19.055  0.00  0.00    -0.075 C 
ATOM     25  H   UNL     1      34.720 -20.059 -18.859  0.00  0.00    -0.079 HD
BRANCH  21  27
ATOM     26  O   UNL     1      37.564 -21.527 -15.430  0.00  0.00    -0.270 OA
ATOM     27  N   UNL     1      35.614 -22.698 -15.884  0.00  0.00    -0.304 N 
ATOM     28  C   UNL     1      36.845 -22.510 -15.268  0.00  0.00    +0.252 C 
ATOM     29  H   UNL     1      35.110 -23.522 -15.691  0.00  0.00    +0.150 HD
BRANCH  28  32
ATOM     30 CL   UNL     1      37.112 -26.257 -11.207  0.00  0.00    -0.075 Cl
ATOM     31  S   UNL     1      36.313 -24.079 -13.060  0.00  0.00    -0.071 S 
ATOM     32  C   UNL     1      37.304 -23.606 -14.374  0.00  0.00    +0.084 C 
ATOM     33  C   UNL     1      38.465 -24.344 -14.439  0.00  0.00    +0.012 C 
ATOM     34  C   UNL     1      38.542 -25.312 -13.396  0.00  0.00    +0.019 C 
ATOM     35  C   UNL     1      37.438 -25.276 -12.574  0.00  0.00    +0.087 C 
ENDBRANCH  28  32
ENDBRANCH  21  27
ENDBRANCH  19  20
ENDBRANCH   3  19
TORSDOF 6
ENDMDL
