MODEL 1
REMARK VINA RESULT:     -10.6      0.000      0.000
REMARK  Name = 688424
REMARK  4 active torsions:
REMARK  status: ('A' for Active; 'I' for Inactive)
REMARK    1  A    between atoms: C_3  and  C_13
REMARK    2  A    between atoms: C_3  and  O_25
REMARK    3  A    between atoms: C_16  and  S_19
REMARK    4  A    between atoms: S_19  and  N_22
REMARK                            x       y       z     vdW  Elec       q    Type
REMARK                         _______ _______ _______ _____ _____    ______ ____
ROOT
ATOM      1  O   UNL     1      31.300 -19.833 -20.176  0.00  0.00    -0.270 OA
ATOM      2  N   UNL     1      32.114 -21.743 -19.069  0.00  0.00    -0.276 N 
ATOM      3  C   UNL     1      33.416 -22.322 -18.748  0.00  0.00    +0.188 C 
ATOM      4  C   UNL     1      34.353 -21.297 -19.329  0.00  0.00    +0.028 C 
ATOM      5  C   UNL     1      33.629 -20.260 -19.923  0.00  0.00    +0.054 C 
ATOM      6  C   UNL     1      32.199 -20.543 -19.764  0.00  0.00    +0.248 C 
ATOM      7  C   UNL     1      35.737 -21.277 -19.353  0.00  0.00    +0.000 C 
ATOM      8  C   UNL     1      34.232 -19.182 -20.540  0.00  0.00    +0.004 C 
ATOM      9  C   UNL     1      36.372 -20.194 -19.972  0.00  0.00    -0.000 C 
ATOM     10  C   UNL     1      35.627 -19.157 -20.559  0.00  0.00    +0.000 C 
ATOM     11  H   UNL     1      31.259 -22.163 -18.817  0.00  0.00    +0.152 HD
ENDROOT
BRANCH   3  13
ATOM     12 CL   UNL     1      34.142 -23.247 -12.827  0.00  0.00    -0.081 Cl
ATOM     13  C   UNL     1      33.612 -22.554 -17.261  0.00  0.00    +0.025 C 
ATOM     14  C   UNL     1      34.901 -22.658 -16.732  0.00  0.00    +0.021 C 
ATOM     15  C   UNL     1      32.506 -22.666 -16.417  0.00  0.00    +0.001 C 
ATOM     16  C   UNL     1      35.081 -22.872 -15.365  0.00  0.00    +0.132 C 
ATOM     17  C   UNL     1      32.685 -22.879 -15.050  0.00  0.00    +0.013 C 
ATOM     18  C   UNL     1      33.973 -22.982 -14.525  0.00  0.00    +0.076 C 
BRANCH  16  19
ATOM     19  S   UNL     1      36.722 -22.990 -14.760  0.00  0.00    +0.058 S 
ATOM     20  O   UNL     1      36.862 -22.062 -13.649  0.00  0.00    -0.153 OA
ATOM     21  O   UNL     1      37.041 -24.397 -14.579  0.00  0.00    -0.153 OA
BRANCH  19  22
ATOM     22  N   UNL     1      37.598 -22.391 -16.097  0.00  0.00    -0.203 NA
ATOM     23  H   UNL     1      37.121 -21.573 -16.477  0.00  0.00    +0.144 HD
ATOM     24  H   UNL     1      37.660 -23.114 -16.814  0.00  0.00    +0.144 HD
ENDBRANCH  19  22
ENDBRANCH  16  19
ENDBRANCH   3  13
BRANCH   3  25
ATOM     25  O   UNL     1      33.546 -23.522 -19.502  0.00  0.00    -0.364 OA
ATOM     26  H   UNL     1      33.938 -24.213 -18.946  0.00  0.00    +0.213 HD
ENDBRANCH   3  25
TORSDOF 4
ENDMDL
MODEL 2
REMARK VINA RESULT:     -10.6      2.464      2.795
REMARK  Name = 688424
REMARK  4 active torsions:
REMARK  status: ('A' for Active; 'I' for Inactive)
REMARK    1  A    between atoms: C_3  and  C_13
REMARK    2  A    between atoms: C_3  and  O_25
REMARK    3  A    between atoms: C_16  and  S_19
REMARK    4  A    between atoms: S_19  and  N_22
REMARK                            x       y       z     vdW  Elec       q    Type
REMARK                         _______ _______ _______ _____ _____    ______ ____
ROOT
ATOM      1  O   UNL     1      31.253 -19.813 -20.043  0.00  0.00    -0.270 OA
ATOM      2  N   UNL     1      32.103 -21.706 -18.936  0.00  0.00    -0.276 N 
ATOM      3  C   UNL     1      33.414 -22.288 -18.662  0.00  0.00    +0.188 C 
ATOM      4  C   UNL     1      34.331 -21.281 -19.304  0.00  0.00    +0.028 C 
ATOM      5  C   UNL     1      33.587 -20.251 -19.886  0.00  0.00    +0.054 C 
ATOM      6  C   UNL     1      32.164 -20.521 -19.658  0.00  0.00    +0.248 C 
ATOM      7  C   UNL     1      35.713 -21.271 -19.390  0.00  0.00    +0.000 C 
ATOM      8  C   UNL     1      34.169 -19.190 -20.551  0.00  0.00    +0.004 C 
ATOM      9  C   UNL     1      36.327 -20.206 -20.059  0.00  0.00    -0.000 C 
ATOM     10  C   UNL     1      35.562 -19.175 -20.633  0.00  0.00    +0.000 C 
ATOM     11  H   UNL     1      31.258 -22.115 -18.638  0.00  0.00    +0.152 HD
ENDROOT
BRANCH   3  13
ATOM     12 CL   UNL     1      34.509 -23.084 -12.779  0.00  0.00    -0.081 Cl
ATOM     13  C   UNL     1      33.676 -22.492 -17.181  0.00  0.00    +0.025 C 
ATOM     14  C   UNL     1      32.635 -22.869 -16.329  0.00  0.00    +0.021 C 
ATOM     15  C   UNL     1      34.959 -22.302 -16.663  0.00  0.00    +0.001 C 
ATOM     16  C   UNL     1      32.876 -23.055 -14.968  0.00  0.00    +0.132 C 
ATOM     17  C   UNL     1      35.201 -22.489 -15.302  0.00  0.00    +0.013 C 
ATOM     18  C   UNL     1      34.159 -22.866 -14.455  0.00  0.00    +0.076 C 
BRANCH  16  19
ATOM     19  S   UNL     1      31.529 -23.531 -13.952  0.00  0.00    +0.058 S 
ATOM     20  O   UNL     1      31.525 -22.676 -12.777  0.00  0.00    -0.153 OA
ATOM     21  O   UNL     1      30.342 -23.631 -14.786  0.00  0.00    -0.153 OA
BRANCH  19  22
ATOM     22  N   UNL     1      32.016 -25.102 -13.493  0.00  0.00    -0.203 NA
ATOM     23  H   UNL     1      32.113 -25.685 -14.325  0.00  0.00    +0.144 HD
ATOM     24  H   UNL     1      31.315 -25.508 -12.872  0.00  0.00    +0.144 HD
ENDBRANCH  19  22
ENDBRANCH  16  19
ENDBRANCH   3  13
BRANCH   3  25
ATOM     25  O   UNL     1      33.503 -23.504 -19.396  0.00  0.00    -0.364 OA
ATOM     26  H   UNL     1      33.565 -23.306 -20.343  0.00  0.00    +0.213 HD
ENDBRANCH   3  25
TORSDOF 4
ENDMDL
MODEL 3
REMARK VINA RESULT:     -10.1      3.273      6.730
REMARK  Name = 688424
REMARK  4 active torsions:
REMARK  status: ('A' for Active; 'I' for Inactive)
REMARK    1  A    between atoms: C_3  and  C_13
REMARK    2  A    between atoms: C_3  and  O_25
REMARK    3  A    between atoms: C_16  and  S_19
REMARK    4  A    between atoms: S_19  and  N_22
REMARK                            x       y       z     vdW  Elec       q    Type
REMARK                         _______ _______ _______ _____ _____    ______ ____
ROOT
ATOM      1  O   UNL     1      34.092 -24.305 -12.004  0.00  0.00    -0.270 OA
ATOM      2  N   UNL     1      35.077 -22.596 -13.287  0.00  0.00    -0.276 N 
ATOM      3  C   UNL     1      36.285 -22.420 -14.088  0.00  0.00    +0.188 C 
ATOM      4  C   UNL     1      36.928 -23.775 -13.967  0.00  0.00    +0.028 C 
ATOM      5  C   UNL     1      36.149 -24.611 -13.163  0.00  0.00    +0.054 C 
ATOM      6  C   UNL     1      34.968 -23.861 -12.722  0.00  0.00    +0.248 C 
ATOM      7  C   UNL     1      38.115 -24.243 -14.506  0.00  0.00    +0.000 C 
ATOM      8  C   UNL     1      36.499 -25.915 -12.875  0.00  0.00    +0.004 C 
ATOM      9  C   UNL     1      38.493 -25.561 -14.229  0.00  0.00    -0.000 C 
ATOM     10  C   UNL     1      37.692 -26.389 -13.422  0.00  0.00    +0.000 C 
ATOM     11  H   UNL     1      34.405 -21.887 -13.159  0.00  0.00    +0.152 HD
ENDROOT
BRANCH   3  13
ATOM     12 CL   UNL     1      35.174 -20.765 -19.787  0.00  0.00    -0.081 Cl
ATOM     13  C   UNL     1      35.993 -22.010 -15.521  0.00  0.00    +0.025 C 
ATOM     14  C   UNL     1      34.788 -22.377 -16.124  0.00  0.00    +0.021 C 
ATOM     15  C   UNL     1      36.929 -21.265 -16.241  0.00  0.00    +0.001 C 
ATOM     16  C   UNL     1      34.520 -22.000 -17.440  0.00  0.00    +0.132 C 
ATOM     17  C   UNL     1      36.661 -20.887 -17.557  0.00  0.00    +0.013 C 
ATOM     18  C   UNL     1      35.457 -21.255 -18.156  0.00  0.00    +0.076 C 
BRANCH  16  19
ATOM     19  S   UNL     1      32.989 -22.489 -18.141  0.00  0.00    +0.058 S 
ATOM     20  O   UNL     1      32.288 -21.292 -18.575  0.00  0.00    -0.153 OA
ATOM     21  O   UNL     1      33.242 -23.568 -19.082  0.00  0.00    -0.153 OA
BRANCH  19  22
ATOM     22  N   UNL     1      32.200 -23.127 -16.767  0.00  0.00    -0.203 NA
ATOM     23  H   UNL     1      32.885 -23.304 -16.033  0.00  0.00    +0.144 HD
ATOM     24  H   UNL     1      31.734 -23.999 -17.017  0.00  0.00    +0.144 HD
ENDBRANCH  19  22
ENDBRANCH  16  19
ENDBRANCH   3  13
BRANCH   3  25
ATOM     25  O   UNL     1      37.109 -21.474 -13.416  0.00  0.00    -0.364 OA
ATOM     26  H   UNL     1      37.315 -20.740 -14.014  0.00  0.00    +0.213 HD
ENDBRANCH   3  25
TORSDOF 4
ENDMDL
MODEL 4
REMARK VINA RESULT:      -9.9      1.996      2.380
REMARK  Name = 688424
REMARK  4 active torsions:
REMARK  status: ('A' for Active; 'I' for Inactive)
REMARK    1  A    between atoms: C_3  and  C_13
REMARK    2  A    between atoms: C_3  and  O_25
REMARK    3  A    between atoms: C_16  and  S_19
REMARK    4  A    between atoms: S_19  and  N_22
REMARK                            x       y       z     vdW  Elec       q    Type
REMARK                         _______ _______ _______ _____ _____    ______ ____
ROOT
ATOM      1  O   UNL     1      31.390 -19.997 -20.034  0.00  0.00    -0.270 OA
ATOM      2  N   UNL     1      32.921 -21.581 -19.209  0.00  0.00    -0.276 N 
ATOM      3  C   UNL     1      34.370 -21.764 -19.195  0.00  0.00    +0.188 C 
ATOM      4  C   UNL     1      34.837 -20.527 -19.914  0.00  0.00    +0.028 C 
ATOM      5  C   UNL     1      33.743 -19.747 -20.296  0.00  0.00    +0.054 C 
ATOM      6  C   UNL     1      32.517 -20.418 -19.852  0.00  0.00    +0.248 C 
ATOM      7  C   UNL     1      36.122 -20.118 -20.227  0.00  0.00    +0.000 C 
ATOM      8  C   UNL     1      33.875 -18.553 -20.977  0.00  0.00    +0.004 C 
ATOM      9  C   UNL     1      36.283 -18.912 -20.918  0.00  0.00    -0.000 C 
ATOM     10  C   UNL     1      35.170 -18.137 -21.288  0.00  0.00    +0.000 C 
ATOM     11  H   UNL     1      32.292 -22.220 -18.802  0.00  0.00    +0.152 HD
ENDROOT
BRANCH   3  13
ATOM     12 CL   UNL     1      36.672 -22.297 -13.640  0.00  0.00    -0.081 Cl
ATOM     13  C   UNL     1      34.937 -21.906 -17.794  0.00  0.00    +0.025 C 
ATOM     14  C   UNL     1      34.226 -22.605 -16.816  0.00  0.00    +0.021 C 
ATOM     15  C   UNL     1      36.172 -21.337 -17.478  0.00  0.00    +0.001 C 
ATOM     16  C   UNL     1      34.748 -22.735 -15.529  0.00  0.00    +0.132 C 
ATOM     17  C   UNL     1      36.696 -21.467 -16.191  0.00  0.00    +0.013 C 
ATOM     18  C   UNL     1      35.983 -22.166 -15.217  0.00  0.00    +0.076 C 
BRANCH  16  19
ATOM     19  S   UNL     1      33.810 -23.626 -14.347  0.00  0.00    +0.058 S 
ATOM     20  O   UNL     1      34.086 -23.065 -13.034  0.00  0.00    -0.153 OA
ATOM     21  O   UNL     1      32.440 -23.718 -14.827  0.00  0.00    -0.153 OA
BRANCH  19  22
ATOM     22  N   UNL     1      34.539 -25.166 -14.457  0.00  0.00    -0.203 NA
ATOM     23  H   UNL     1      34.511 -25.487 -15.425  0.00  0.00    +0.144 HD
ATOM     24  H   UNL     1      34.034 -25.825 -13.864  0.00  0.00    +0.144 HD
ENDBRANCH  19  22
ENDBRANCH  16  19
ENDBRANCH   3  13
BRANCH   3  25
ATOM     25  O   UNL     1      34.665 -22.892 -20.012  0.00  0.00    -0.364 OA
ATOM     26  H   UNL     1      33.842 -23.251 -20.378  0.00  0.00    +0.213 HD
ENDBRANCH   3  25
TORSDOF 4
ENDMDL
MODEL 5
REMARK VINA RESULT:      -9.7      3.804      6.470
REMARK  Name = 688424
REMARK  4 active torsions:
REMARK  status: ('A' for Active; 'I' for Inactive)
REMARK    1  A    between atoms: C_3  and  C_13
REMARK    2  A    between atoms: C_3  and  O_25
REMARK    3  A    between atoms: C_16  and  S_19
REMARK    4  A    between atoms: S_19  and  N_22
REMARK                            x       y       z     vdW  Elec       q    Type
REMARK                         _______ _______ _______ _____ _____    ______ ____
ROOT
ATOM      1  O   UNL     1      37.235 -21.843 -12.277  0.00  0.00    -0.270 OA
ATOM      2  N   UNL     1      36.121 -21.940 -14.347  0.00  0.00    -0.276 N 
ATOM      3  C   UNL     1      35.701 -22.973 -15.290  0.00  0.00    +0.188 C 
ATOM      4  C   UNL     1      36.162 -24.224 -14.591  0.00  0.00    +0.028 C 
ATOM      5  C   UNL     1      36.785 -23.902 -13.383  0.00  0.00    +0.054 C 
ATOM      6  C   UNL     1      36.766 -22.445 -13.225  0.00  0.00    +0.248 C 
ATOM      7  C   UNL     1      36.058 -25.547 -14.986  0.00  0.00    +0.000 C 
ATOM      8  C   UNL     1      37.310 -24.855 -12.532  0.00  0.00    +0.004 C 
ATOM      9  C   UNL     1      36.582 -26.532 -14.142  0.00  0.00    -0.000 C 
ATOM     10  C   UNL     1      37.201 -26.190 -12.927  0.00  0.00    +0.000 C 
ATOM     11  H   UNL     1      35.961 -20.979 -14.492  0.00  0.00    +0.152 HD
ENDROOT
BRANCH   3  13
ATOM     12 CL   UNL     1      29.783 -22.848 -16.475  0.00  0.00    -0.081 Cl
ATOM     13  C   UNL     1      34.211 -22.947 -15.575  0.00  0.00    +0.025 C 
ATOM     14  C   UNL     1      33.308 -23.450 -14.636  0.00  0.00    +0.021 C 
ATOM     15  C   UNL     1      33.737 -22.421 -16.779  0.00  0.00    +0.001 C 
ATOM     16  C   UNL     1      31.938 -23.427 -14.899  0.00  0.00    +0.132 C 
ATOM     17  C   UNL     1      32.367 -22.397 -17.042  0.00  0.00    +0.013 C 
ATOM     18  C   UNL     1      31.468 -22.900 -16.102  0.00  0.00    +0.076 C 
BRANCH  16  19
ATOM     19  S   UNL     1      30.855 -24.070 -13.679  0.00  0.00    +0.058 S 
ATOM     20  O   UNL     1      30.201 -22.952 -13.020  0.00  0.00    -0.153 OA
ATOM     21  O   UNL     1      30.060 -25.125 -14.287  0.00  0.00    -0.153 OA
BRANCH  19  22
ATOM     22  N   UNL     1      31.974 -24.774 -12.599  0.00  0.00    -0.203 NA
ATOM     23  H   UNL     1      32.356 -24.053 -11.988  0.00  0.00    +0.144 HD
ATOM     24  H   UNL     1      32.730 -25.209 -13.128  0.00  0.00    +0.144 HD
ENDBRANCH  19  22
ENDBRANCH  16  19
ENDBRANCH   3  13
BRANCH   3  25
ATOM     25  O   UNL     1      36.478 -22.812 -16.471  0.00  0.00    -0.364 OA
ATOM     26  H   UNL     1      36.533 -23.658 -16.941  0.00  0.00    +0.213 HD
ENDBRANCH   3  25
TORSDOF 4
ENDMDL
MODEL 6
REMARK VINA RESULT:      -9.7      3.695      6.465
REMARK  Name = 688424
REMARK  4 active torsions:
REMARK  status: ('A' for Active; 'I' for Inactive)
REMARK    1  A    between atoms: C_3  and  C_13
REMARK    2  A    between atoms: C_3  and  O_25
REMARK    3  A    between atoms: C_16  and  S_19
REMARK    4  A    between atoms: S_19  and  N_22
REMARK                            x       y       z     vdW  Elec       q    Type
REMARK                         _______ _______ _______ _____ _____    ______ ____
ROOT
ATOM      1  O   UNL     1      36.790 -26.410 -11.834  0.00  0.00    -0.270 OA
ATOM      2  N   UNL     1      35.376 -24.564 -12.187  0.00  0.00    -0.276 N 
ATOM      3  C   UNL     1      35.347 -23.387 -13.052  0.00  0.00    +0.188 C 
ATOM      4  C   UNL     1      36.599 -23.579 -13.865  0.00  0.00    +0.028 C 
ATOM      5  C   UNL     1      37.257 -24.747 -13.472  0.00  0.00    +0.054 C 
ATOM      6  C   UNL     1      36.483 -25.376 -12.398  0.00  0.00    +0.248 C 
ATOM      7  C   UNL     1      37.134 -22.785 -14.866  0.00  0.00    +0.000 C 
ATOM      8  C   UNL     1      38.439 -25.172 -14.047  0.00  0.00    +0.004 C 
ATOM      9  C   UNL     1      38.331 -23.194 -15.464  0.00  0.00    -0.000 C 
ATOM     10  C   UNL     1      38.976 -24.376 -15.059  0.00  0.00    +0.000 C 
ATOM     11  H   UNL     1      34.679 -24.761 -11.520  0.00  0.00    +0.152 HD
ENDROOT
BRANCH   3  13
ATOM     12 CL   UNL     1      30.293 -23.036 -16.336  0.00  0.00    -0.081 Cl
ATOM     13  C   UNL     1      34.084 -23.297 -13.889  0.00  0.00    +0.025 C 
ATOM     14  C   UNL     1      34.167 -23.032 -15.258  0.00  0.00    +0.021 C 
ATOM     15  C   UNL     1      32.834 -23.477 -13.294  0.00  0.00    +0.001 C 
ATOM     16  C   UNL     1      33.006 -22.948 -16.027  0.00  0.00    +0.132 C 
ATOM     17  C   UNL     1      31.672 -23.394 -14.062  0.00  0.00    +0.013 C 
ATOM     18  C   UNL     1      31.759 -23.130 -15.429  0.00  0.00    +0.076 C 
BRANCH  16  19
ATOM     19  S   UNL     1      33.176 -22.616 -17.740  0.00  0.00    +0.058 S 
ATOM     20  O   UNL     1      33.156 -23.884 -18.450  0.00  0.00    -0.153 OA
ATOM     21  O   UNL     1      32.234 -21.566 -18.096  0.00  0.00    -0.153 OA
BRANCH  19  22
ATOM     22  N   UNL     1      34.759 -21.978 -17.785  0.00  0.00    -0.203 NA
ATOM     23  H   UNL     1      35.386 -22.587 -17.260  0.00  0.00    +0.144 HD
ATOM     24  H   UNL     1      34.762 -21.046 -17.371  0.00  0.00    +0.144 HD
ENDBRANCH  19  22
ENDBRANCH  16  19
ENDBRANCH   3  13
BRANCH   3  25
ATOM     25  O   UNL     1      35.525 -22.244 -12.223  0.00  0.00    -0.364 OA
ATOM     26  H   UNL     1      35.026 -21.498 -12.588  0.00  0.00    +0.213 HD
ENDBRANCH   3  25
TORSDOF 4
ENDMDL
MODEL 7
REMARK VINA RESULT:      -9.6      3.124      4.175
REMARK  Name = 688424
REMARK  4 active torsions:
REMARK  status: ('A' for Active; 'I' for Inactive)
REMARK    1  A    between atoms: C_3  and  C_13
REMARK    2  A    between atoms: C_3  and  O_25
REMARK    3  A    between atoms: C_16  and  S_19
REMARK    4  A    between atoms: S_19  and  N_22
REMARK                            x       y       z     vdW  Elec       q    Type
REMARK                         _______ _______ _______ _____ _____    ______ ____
ROOT
ATOM      1  O   UNL     1      32.252 -19.951 -20.830  0.00  0.00    -0.270 OA
ATOM      2  N   UNL     1      32.105 -21.805 -19.389  0.00  0.00    -0.276 N 
ATOM      3  C   UNL     1      32.982 -22.509 -18.457  0.00  0.00    +0.188 C 
ATOM      4  C   UNL     1      34.245 -21.697 -18.558  0.00  0.00    +0.028 C 
ATOM      5  C   UNL     1      34.076 -20.652 -19.471  0.00  0.00    +0.054 C 
ATOM      6  C   UNL     1      32.714 -20.720 -20.007  0.00  0.00    +0.248 C 
ATOM      7  C   UNL     1      35.459 -21.864 -17.914  0.00  0.00    +0.000 C 
ATOM      8  C   UNL     1      35.076 -19.746 -19.767  0.00  0.00    +0.004 C 
ATOM      9  C   UNL     1      36.488 -20.960 -18.196  0.00  0.00    -0.000 C 
ATOM     10  C   UNL     1      36.298 -19.911 -19.113  0.00  0.00    +0.000 C 
ATOM     11  H   UNL     1      31.173 -22.073 -19.561  0.00  0.00    +0.152 HD
ENDROOT
BRANCH   3  13
ATOM     12 CL   UNL     1      30.787 -22.808 -12.841  0.00  0.00    -0.081 Cl
ATOM     13  C   UNL     1      32.417 -22.584 -17.050  0.00  0.00    +0.025 C 
ATOM     14  C   UNL     1      31.035 -22.549 -16.846  0.00  0.00    +0.021 C 
ATOM     15  C   UNL     1      33.276 -22.687 -15.954  0.00  0.00    +0.001 C 
ATOM     16  C   UNL     1      30.516 -22.617 -15.553  0.00  0.00    +0.132 C 
ATOM     17  C   UNL     1      32.758 -22.756 -14.661  0.00  0.00    +0.013 C 
ATOM     18  C   UNL     1      31.378 -22.721 -14.461  0.00  0.00    +0.076 C 
BRANCH  16  19
ATOM     19  S   UNL     1      28.774 -22.572 -15.362  0.00  0.00    +0.058 S 
ATOM     20  O   UNL     1      28.326 -23.903 -14.990  0.00  0.00    -0.153 OA
ATOM     21  O   UNL     1      28.437 -21.429 -14.528  0.00  0.00    -0.153 OA
BRANCH  19  22
ATOM     22  N   UNL     1      28.287 -22.249 -16.966  0.00  0.00    -0.203 NA
ATOM     23  H   UNL     1      28.017 -21.268 -17.048  0.00  0.00    +0.144 HD
ATOM     24  H   UNL     1      27.492 -22.842 -17.206  0.00  0.00    +0.144 HD
ENDBRANCH  19  22
ENDBRANCH  16  19
ENDBRANCH   3  13
BRANCH   3  25
ATOM     25  O   UNL     1      33.237 -23.799 -19.004  0.00  0.00    -0.364 OA
ATOM     26  H   UNL     1      34.154 -24.053 -18.820  0.00  0.00    +0.213 HD
ENDBRANCH   3  25
TORSDOF 4
ENDMDL
MODEL 8
REMARK VINA RESULT:      -9.6      3.294      6.912
REMARK  Name = 688424
REMARK  4 active torsions:
REMARK  status: ('A' for Active; 'I' for Inactive)
REMARK    1  A    between atoms: C_3  and  C_13
REMARK    2  A    between atoms: C_3  and  O_25
REMARK    3  A    between atoms: C_16  and  S_19
REMARK    4  A    between atoms: S_19  and  N_22
REMARK                            x       y       z     vdW  Elec       q    Type
REMARK                         _______ _______ _______ _____ _____    ______ ____
ROOT
ATOM      1  O   UNL     1      36.898 -27.054 -14.007  0.00  0.00    -0.270 OA
ATOM      2  N   UNL     1      35.422 -25.454 -14.899  0.00  0.00    -0.276 N 
ATOM      3  C   UNL     1      35.011 -24.087 -14.591  0.00  0.00    +0.188 C 
ATOM      4  C   UNL     1      35.860 -23.781 -13.386  0.00  0.00    +0.028 C 
ATOM      5  C   UNL     1      36.652 -24.884 -13.060  0.00  0.00    +0.054 C 
ATOM      6  C   UNL     1      36.372 -25.957 -14.019  0.00  0.00    +0.248 C 
ATOM      7  C   UNL     1      35.926 -22.630 -12.620  0.00  0.00    +0.000 C 
ATOM      8  C   UNL     1      37.529 -24.888 -11.992  0.00  0.00    +0.004 C 
ATOM      9  C   UNL     1      36.807 -22.608 -11.533  0.00  0.00    -0.000 C 
ATOM     10  C   UNL     1      37.601 -23.726 -11.223  0.00  0.00    +0.000 C 
ATOM     11  H   UNL     1      35.060 -25.969 -15.656  0.00  0.00    +0.152 HD
ENDROOT
BRANCH   3  13
ATOM     12 CL   UNL     1      35.919 -20.261 -19.172  0.00  0.00    -0.081 Cl
ATOM     13  C   UNL     1      35.226 -23.127 -15.747  0.00  0.00    +0.025 C 
ATOM     14  C   UNL     1      34.207 -22.911 -16.678  0.00  0.00    +0.021 C 
ATOM     15  C   UNL     1      36.443 -22.458 -15.885  0.00  0.00    +0.001 C 
ATOM     16  C   UNL     1      34.406 -22.029 -17.741  0.00  0.00    +0.132 C 
ATOM     17  C   UNL     1      36.642 -21.575 -16.947  0.00  0.00    +0.013 C 
ATOM     18  C   UNL     1      35.623 -21.361 -17.875  0.00  0.00    +0.076 C 
BRANCH  16  19
ATOM     19  S   UNL     1      33.089 -21.797 -18.875  0.00  0.00    +0.058 S 
ATOM     20  O   UNL     1      33.132 -20.422 -19.343  0.00  0.00    -0.153 OA
ATOM     21  O   UNL     1      33.111 -22.894 -19.829  0.00  0.00    -0.153 OA
BRANCH  19  22
ATOM     22  N   UNL     1      31.742 -21.990 -17.842  0.00  0.00    -0.203 NA
ATOM     23  H   UNL     1      31.302 -22.892 -18.022  0.00  0.00    +0.144 HD
ATOM     24  H   UNL     1      31.071 -21.242 -18.016  0.00  0.00    +0.144 HD
ENDBRANCH  19  22
ENDBRANCH  16  19
ENDBRANCH   3  13
BRANCH   3  25
ATOM     25  O   UNL     1      33.650 -24.134 -14.177  0.00  0.00    -0.364 OA
ATOM     26  H   UNL     1      33.496 -23.464 -13.493  0.00  0.00    +0.213 HD
ENDBRANCH   3  25
TORSDOF 4
ENDMDL
MODEL 9
REMARK VINA RESULT:      -9.4      3.548      6.818
REMARK  Name = 688424
REMARK  4 active torsions:
REMARK  status: ('A' for Active; 'I' for Inactive)
REMARK    1  A    between atoms: C_3  and  C_13
REMARK    2  A    between atoms: C_3  and  O_25
REMARK    3  A    between atoms: C_16  and  S_19
REMARK    4  A    between atoms: S_19  and  N_22
REMARK                            x       y       z     vdW  Elec       q    Type
REMARK                         _______ _______ _______ _____ _____    ______ ____
ROOT
ATOM      1  O   UNL     1      35.260 -24.661 -10.167  0.00  0.00    -0.270 OA
ATOM      2  N   UNL     1      34.746 -23.156 -11.900  0.00  0.00    -0.276 N 
ATOM      3  C   UNL     1      35.063 -23.006 -13.318  0.00  0.00    +0.188 C 
ATOM      4  C   UNL     1      35.925 -24.216 -13.563  0.00  0.00    +0.028 C 
ATOM      5  C   UNL     1      36.074 -24.951 -12.385  0.00  0.00    +0.054 C 
ATOM      6  C   UNL     1      35.328 -24.276 -11.319  0.00  0.00    +0.248 C 
ATOM      7  C   UNL     1      36.547 -24.638 -14.726  0.00  0.00    +0.000 C 
ATOM      8  C   UNL     1      36.819 -26.112 -12.314  0.00  0.00    +0.004 C 
ATOM      9  C   UNL     1      37.307 -25.811 -14.681  0.00  0.00    -0.000 C 
ATOM     10  C   UNL     1      37.442 -26.541 -13.487  0.00  0.00    +0.000 C 
ATOM     11  H   UNL     1      34.176 -22.524 -11.404  0.00  0.00    +0.152 HD
ENDROOT
BRANCH   3  13
ATOM     12 CL   UNL     1      30.121 -22.781 -16.777  0.00  0.00    -0.081 Cl
ATOM     13  C   UNL     1      33.829 -22.948 -14.199  0.00  0.00    +0.025 C 
ATOM     14  C   UNL     1      33.959 -22.766 -15.578  0.00  0.00    +0.021 C 
ATOM     15  C   UNL     1      32.558 -23.075 -13.634  0.00  0.00    +0.001 C 
ATOM     16  C   UNL     1      32.824 -22.712 -16.387  0.00  0.00    +0.132 C 
ATOM     17  C   UNL     1      31.422 -23.022 -14.443  0.00  0.00    +0.013 C 
ATOM     18  C   UNL     1      31.556 -22.841 -15.820  0.00  0.00    +0.076 C 
BRANCH  16  19
ATOM     19  S   UNL     1      33.052 -22.485 -18.110  0.00  0.00    +0.058 S 
ATOM     20  O   UNL     1      33.060 -23.795 -18.742  0.00  0.00    -0.153 OA
ATOM     21  O   UNL     1      32.122 -21.463 -18.563  0.00  0.00    -0.153 OA
BRANCH  19  22
ATOM     22  N   UNL     1      34.635 -21.845 -18.140  0.00  0.00    -0.203 NA
ATOM     23  H   UNL     1      35.270 -22.488 -17.666  0.00  0.00    +0.144 HD
ATOM     24  H   UNL     1      34.645 -20.943 -17.666  0.00  0.00    +0.144 HD
ENDBRANCH  19  22
ENDBRANCH  16  19
ENDBRANCH   3  13
BRANCH   3  25
ATOM     25  O   UNL     1      35.876 -21.846 -13.453  0.00  0.00    -0.364 OA
ATOM     26  H   UNL     1      35.741 -21.265 -12.688  0.00  0.00    +0.213 HD
ENDBRANCH   3  25
TORSDOF 4
ENDMDL
