MODEL 1
REMARK VINA RESULT:     -12.5      0.000      0.000
REMARK  Name = 10089048
REMARK  4 active torsions:
REMARK  status: ('A' for Active; 'I' for Inactive)
REMARK    1  A    between atoms: C_1  and  C_23
REMARK    2  A    between atoms: C_3  and  C_8
REMARK    3  A    between atoms: C_12  and  C_18
REMARK    4  A    between atoms: N_22  and  C_25
REMARK                            x       y       z     vdW  Elec       q    Type
REMARK                         _______ _______ _______ _____ _____    ______ ____
ROOT
ATOM      1  C   UNL     1      34.135 -20.592 -19.738  0.00  0.00    +0.053 C 
ATOM      2  C   UNL     1      33.803 -19.427 -20.429  0.00  0.00    +0.004 C 
ATOM      3  C   UNL     1      34.805 -18.660 -21.023  0.00  0.00    -0.004 C 
ATOM      4  C   UNL     1      35.469 -20.988 -19.639  0.00  0.00    +0.004 C 
ATOM      5  C   UNL     1      36.138 -19.056 -20.924  0.00  0.00    -0.022 C 
ATOM      6  C   UNL     1      36.470 -20.220 -20.232  0.00  0.00    -0.004 C 
ATOM      7  C   UNL     1      37.239 -18.258 -21.547  0.00  0.00    +0.031 C 
ENDROOT
BRANCH   3   8
ATOM      8  C   UNL     1      34.434 -17.454 -21.737  0.00  0.00    -0.004 C 
ATOM      9  C   UNL     1      34.078 -17.496 -23.085  0.00  0.00    -0.022 C 
ATOM     10  C   UNL     1      34.435 -16.238 -21.054  0.00  0.00    -0.000 C 
ATOM     11  C   UNL     1      33.724 -16.322 -23.750  0.00  0.00    +0.000 C 
ATOM     12  C   UNL     1      33.726 -15.105 -23.067  0.00  0.00    +0.055 C 
ATOM     13  C   UNL     1      34.081 -15.064 -21.718  0.00  0.00    +0.005 C 
ATOM     14  C   UNL     1      34.066 -18.780 -23.850  0.00  0.00    +0.031 C 
BRANCH  12  18
ATOM     15  O   UNL     1      33.424 -12.754 -23.013  0.00  0.00    -0.420 OA
ATOM     16  N   UNL     1      32.970 -13.704 -24.987  0.00  0.00    -0.107 NA
ATOM     17  N   UNL     1      32.751 -12.345 -25.106  0.00  0.00    -0.111 NA
ATOM     18  C   UNL     1      33.360 -13.890 -23.753  0.00  0.00    +0.250 A 
ATOM     19  C   UNL     1      33.028 -11.831 -23.931  0.00  0.00    +0.227 A 
ATOM     20  C   UNL     1      32.971 -10.434 -23.482  0.00  0.00    +0.097 C 
ENDBRANCH  12  18
ENDBRANCH   3   8
BRANCH   1  23
ATOM     21  O   UNL     1      31.938 -21.401 -19.582  0.00  0.00    -0.270 OA
ATOM     22  N   UNL     1      33.446 -22.131 -17.981  0.00  0.00    -0.302 N 
ATOM     23  C   UNL     1      33.092 -21.394 -19.119  0.00  0.00    +0.246 C 
ATOM     24  H   UNL     1      34.377 -22.083 -17.664  0.00  0.00    +0.150 HD
BRANCH  22  25
ATOM     25  C   UNL     1      32.519 -22.951 -17.252  0.00  0.00    +0.072 C 
ATOM     26  C   UNL     1      31.394 -22.336 -16.486  0.00  0.00    +0.021 C 
ATOM     27  C   UNL     1      32.538 -22.982 -15.759  0.00  0.00    +0.021 C 
ENDBRANCH  22  25
ENDBRANCH   1  23
TORSDOF 4
ENDMDL
MODEL 2
REMARK VINA RESULT:     -11.6      1.572      8.878
REMARK  Name = 10089048
REMARK  4 active torsions:
REMARK  status: ('A' for Active; 'I' for Inactive)
REMARK    1  A    between atoms: C_1  and  C_23
REMARK    2  A    between atoms: C_3  and  C_8
REMARK    3  A    between atoms: C_12  and  C_18
REMARK    4  A    between atoms: N_22  and  C_25
REMARK                            x       y       z     vdW  Elec       q    Type
REMARK                         _______ _______ _______ _____ _____    ______ ____
ROOT
ATOM      1  C   UNL     1      34.074 -15.646 -22.521  0.00  0.00    +0.053 C 
ATOM      2  C   UNL     1      34.035 -16.680 -21.586  0.00  0.00    +0.004 C 
ATOM      3  C   UNL     1      34.119 -18.007 -22.011  0.00  0.00    -0.004 C 
ATOM      4  C   UNL     1      34.195 -15.937 -23.880  0.00  0.00    +0.004 C 
ATOM      5  C   UNL     1      34.240 -18.298 -23.369  0.00  0.00    -0.022 C 
ATOM      6  C   UNL     1      34.278 -17.263 -24.304  0.00  0.00    -0.004 C 
ATOM      7  C   UNL     1      34.332 -19.707 -23.861  0.00  0.00    +0.031 C 
ENDROOT
BRANCH   3   8
ATOM      8  C   UNL     1      34.077 -19.064 -21.020  0.00  0.00    -0.004 C 
ATOM      9  C   UNL     1      35.245 -19.538 -20.423  0.00  0.00    -0.022 C 
ATOM     10  C   UNL     1      32.843 -19.608 -20.665  0.00  0.00    -0.000 C 
ATOM     11  C   UNL     1      35.179 -20.555 -19.472  0.00  0.00    +0.000 C 
ATOM     12  C   UNL     1      33.944 -21.100 -19.117  0.00  0.00    +0.055 C 
ATOM     13  C   UNL     1      32.776 -20.625 -19.714  0.00  0.00    +0.005 C 
ATOM     14  C   UNL     1      36.586 -18.980 -20.779  0.00  0.00    +0.031 C 
BRANCH  12  18
ATOM     15  O   UNL     1      34.743 -22.047 -17.096  0.00  0.00    -0.420 OA
ATOM     16  N   UNL     1      33.102 -23.206 -18.080  0.00  0.00    -0.107 NA
ATOM     17  N   UNL     1      33.462 -23.873 -16.925  0.00  0.00    -0.111 NA
ATOM     18  C   UNL     1      33.874 -22.153 -18.133  0.00  0.00    +0.250 A 
ATOM     19  C   UNL     1      34.423 -23.161 -16.383  0.00  0.00    +0.227 A 
ATOM     20  C   UNL     1      35.180 -23.396 -15.147  0.00  0.00    +0.097 C 
ENDBRANCH  12  18
ENDBRANCH   3   8
BRANCH   1  23
ATOM     21  O   UNL     1      34.213 -13.959 -20.896  0.00  0.00    -0.270 OA
ATOM     22  N   UNL     1      33.626 -13.310 -23.041  0.00  0.00    -0.302 N 
ATOM     23  C   UNL     1      33.988 -14.263 -22.081  0.00  0.00    +0.246 C 
ATOM     24  H   UNL     1      33.461 -13.614 -23.963  0.00  0.00    +0.150 HD
BRANCH  22  25
ATOM     25  C   UNL     1      33.480 -11.911 -22.749  0.00  0.00    +0.072 C 
ATOM     26  C   UNL     1      32.153 -11.345 -22.363  0.00  0.00    +0.021 C 
ATOM     27  C   UNL     1      32.760 -11.006 -23.693  0.00  0.00    +0.021 C 
ENDBRANCH  22  25
ENDBRANCH   1  23
TORSDOF 4
ENDMDL
MODEL 3
REMARK VINA RESULT:     -11.0      3.642      7.194
REMARK  Name = 10089048
REMARK  4 active torsions:
REMARK  status: ('A' for Active; 'I' for Inactive)
REMARK    1  A    between atoms: C_1  and  C_23
REMARK    2  A    between atoms: C_3  and  C_8
REMARK    3  A    between atoms: C_12  and  C_18
REMARK    4  A    between atoms: N_22  and  C_25
REMARK                            x       y       z     vdW  Elec       q    Type
REMARK                         _______ _______ _______ _____ _____    ______ ____
ROOT
ATOM      1  C   UNL     1      33.840 -14.716 -22.574  0.00  0.00    +0.053 C 
ATOM      2  C   UNL     1      33.598 -13.360 -22.356  0.00  0.00    +0.004 C 
ATOM      3  C   UNL     1      33.132 -12.559 -23.399  0.00  0.00    -0.004 C 
ATOM      4  C   UNL     1      33.617 -15.271 -23.834  0.00  0.00    +0.004 C 
ATOM      5  C   UNL     1      32.909 -13.114 -24.659  0.00  0.00    -0.022 C 
ATOM      6  C   UNL     1      33.151 -14.470 -24.876  0.00  0.00    -0.004 C 
ATOM      7  C   UNL     1      32.410 -12.286 -25.800  0.00  0.00    +0.031 C 
ENDROOT
BRANCH   3   8
ATOM      8  C   UNL     1      32.888 -11.152 -23.147  0.00  0.00    -0.004 C 
ATOM      9  C   UNL     1      31.812 -10.738 -22.362  0.00  0.00    -0.022 C 
ATOM     10  C   UNL     1      33.750 -10.207 -23.704  0.00  0.00    -0.000 C 
ATOM     11  C   UNL     1      31.598  -9.378 -22.133  0.00  0.00    +0.000 C 
ATOM     12  C   UNL     1      32.460  -8.433 -22.690  0.00  0.00    +0.055 C 
ATOM     13  C   UNL     1      33.536  -8.848 -23.475  0.00  0.00    +0.005 C 
ATOM     14  C   UNL     1      30.867 -11.722 -21.750  0.00  0.00    +0.031 C 
BRANCH  12  18
ATOM     15  O   UNL     1      30.960  -6.671 -22.173  0.00  0.00    -0.420 OA
ATOM     16  N   UNL     1      33.083  -6.028 -22.472  0.00  0.00    -0.107 NA
ATOM     17  N   UNL     1      32.333  -4.905 -22.181  0.00  0.00    -0.111 NA
ATOM     18  C   UNL     1      32.240  -7.027 -22.455  0.00  0.00    +0.250 A 
ATOM     19  C   UNL     1      31.101  -5.327 -22.015  0.00  0.00    +0.227 A 
ATOM     20  C   UNL     1      29.887  -4.568 -21.689  0.00  0.00    +0.097 C 
ENDBRANCH  12  18
ENDBRANCH   3   8
BRANCH   1  23
ATOM     21  O   UNL     1      34.249 -15.168 -20.308  0.00  0.00    -0.270 OA
ATOM     22  N   UNL     1      34.891 -16.785 -21.838  0.00  0.00    -0.302 N 
ATOM     23  C   UNL     1      34.325 -15.553 -21.488  0.00  0.00    +0.246 C 
ATOM     24  H   UNL     1      34.922 -17.032 -22.791  0.00  0.00    +0.150 HD
BRANCH  22  25
ATOM     25  C   UNL     1      35.431 -17.707 -20.878  0.00  0.00    +0.072 C 
ATOM     26  C   UNL     1      36.571 -18.603 -21.236  0.00  0.00    +0.021 C 
ATOM     27  C   UNL     1      35.201 -19.176 -21.018  0.00  0.00    +0.021 C 
ENDBRANCH  22  25
ENDBRANCH   1  23
TORSDOF 4
ENDMDL
MODEL 4
REMARK VINA RESULT:     -10.9      3.946      7.034
REMARK  Name = 10089048
REMARK  4 active torsions:
REMARK  status: ('A' for Active; 'I' for Inactive)
REMARK    1  A    between atoms: C_1  and  C_23
REMARK    2  A    between atoms: C_3  and  C_8
REMARK    3  A    between atoms: C_12  and  C_18
REMARK    4  A    between atoms: N_22  and  C_25
REMARK                            x       y       z     vdW  Elec       q    Type
REMARK                         _______ _______ _______ _____ _____    ______ ____
ROOT
ATOM      1  C   UNL     1      34.970 -24.110 -14.667  0.00  0.00    +0.053 C 
ATOM      2  C   UNL     1      35.155 -23.316 -15.799  0.00  0.00    +0.004 C 
ATOM      3  C   UNL     1      34.055 -22.728 -16.425  0.00  0.00    -0.004 C 
ATOM      4  C   UNL     1      33.686 -24.318 -14.163  0.00  0.00    +0.004 C 
ATOM      5  C   UNL     1      32.772 -22.936 -15.920  0.00  0.00    -0.022 C 
ATOM      6  C   UNL     1      32.587 -23.730 -14.789  0.00  0.00    -0.004 C 
ATOM      7  C   UNL     1      31.570 -22.323 -16.565  0.00  0.00    +0.031 C 
ENDROOT
BRANCH   3   8
ATOM      8  C   UNL     1      34.273 -21.906 -17.599  0.00  0.00    -0.004 C 
ATOM      9  C   UNL     1      35.519 -21.334 -17.855  0.00  0.00    -0.022 C 
ATOM     10  C   UNL     1      33.213 -21.692 -18.479  0.00  0.00    -0.000 C 
ATOM     11  C   UNL     1      35.705 -20.548 -18.992  0.00  0.00    +0.000 C 
ATOM     12  C   UNL     1      34.644 -20.333 -19.873  0.00  0.00    +0.055 C 
ATOM     13  C   UNL     1      33.398 -20.905 -19.616  0.00  0.00    +0.005 C 
ATOM     14  C   UNL     1      36.679 -21.541 -16.934  0.00  0.00    +0.031 C 
BRANCH  12  18
ATOM     15  O   UNL     1      33.825 -19.551 -21.956  0.00  0.00    -0.420 OA
ATOM     16  N   UNL     1      35.835 -18.749 -21.387  0.00  0.00    -0.107 NA
ATOM     17  N   UNL     1      35.491 -18.211 -22.613  0.00  0.00    -0.111 NA
ATOM     18  C   UNL     1      34.834 -19.519 -21.049  0.00  0.00    +0.250 A 
ATOM     19  C   UNL     1      34.311 -18.707 -22.905  0.00  0.00    +0.227 A 
ATOM     20  C   UNL     1      33.467 -18.481 -24.086  0.00  0.00    +0.097 C 
ENDBRANCH  12  18
ENDBRANCH   3   8
BRANCH   1  23
ATOM     21  O   UNL     1      36.074 -25.013 -12.804  0.00  0.00    -0.270 OA
ATOM     22  N   UNL     1      37.253 -24.947 -14.797  0.00  0.00    -0.302 N 
ATOM     23  C   UNL     1      36.115 -24.723 -14.013  0.00  0.00    +0.246 C 
ATOM     24  H   UNL     1      37.222 -24.694 -15.749  0.00  0.00    +0.150 HD
BRANCH  22  25
ATOM     25  C   UNL     1      38.464 -25.523 -14.285  0.00  0.00    +0.072 C 
ATOM     26  C   UNL     1      39.446 -24.691 -13.528  0.00  0.00    +0.021 C 
ATOM     27  C   UNL     1      39.785 -25.196 -14.900  0.00  0.00    +0.021 C 
ENDBRANCH  22  25
ENDBRANCH   1  23
TORSDOF 4
ENDMDL
MODEL 5
REMARK VINA RESULT:     -10.4      3.693     10.823
REMARK  Name = 10089048
REMARK  4 active torsions:
REMARK  status: ('A' for Active; 'I' for Inactive)
REMARK    1  A    between atoms: C_1  and  C_23
REMARK    2  A    between atoms: C_3  and  C_8
REMARK    3  A    between atoms: C_12  and  C_18
REMARK    4  A    between atoms: N_22  and  C_25
REMARK                            x       y       z     vdW  Elec       q    Type
REMARK                         _______ _______ _______ _____ _____    ______ ____
ROOT
ATOM      1  C   UNL     1      33.189  -8.830 -23.222  0.00  0.00    +0.053 C 
ATOM      2  C   UNL     1      33.590 -10.166 -23.188  0.00  0.00    +0.004 C 
ATOM      3  C   UNL     1      32.757 -11.129 -22.618  0.00  0.00    -0.004 C 
ATOM      4  C   UNL     1      31.956  -8.458 -22.686  0.00  0.00    +0.004 C 
ATOM      5  C   UNL     1      31.525 -10.757 -22.082  0.00  0.00    -0.022 C 
ATOM      6  C   UNL     1      31.124  -9.421 -22.117  0.00  0.00    -0.004 C 
ATOM      7  C   UNL     1      30.606 -11.761 -21.464  0.00  0.00    +0.031 C 
ENDROOT
BRANCH   3   8
ATOM      8  C   UNL     1      33.197 -12.510 -22.595  0.00  0.00    -0.004 C 
ATOM      9  C   UNL     1      33.191 -13.287 -23.754  0.00  0.00    -0.022 C 
ATOM     10  C   UNL     1      33.630 -13.061 -21.389  0.00  0.00    -0.000 C 
ATOM     11  C   UNL     1      33.620 -14.613 -23.707  0.00  0.00    +0.000 C 
ATOM     12  C   UNL     1      34.053 -15.164 -22.501  0.00  0.00    +0.055 C 
ATOM     13  C   UNL     1      34.058 -14.388 -21.342  0.00  0.00    +0.005 C 
ATOM     14  C   UNL     1      32.733 -12.731 -25.065  0.00  0.00    +0.031 C 
BRANCH  12  18
ATOM     15  O   UNL     1      35.210 -16.884 -21.349  0.00  0.00    -0.420 OA
ATOM     16  N   UNL     1      34.319 -17.510 -23.304  0.00  0.00    -0.107 NA
ATOM     17  N   UNL     1      34.956 -18.606 -22.754  0.00  0.00    -0.111 NA
ATOM     18  C   UNL     1      34.495 -16.536 -22.450  0.00  0.00    +0.250 A 
ATOM     19  C   UNL     1      35.462 -18.194 -21.614  0.00  0.00    +0.227 A 
ATOM     20  C   UNL     1      36.240 -18.935 -20.613  0.00  0.00    +0.097 C 
ENDBRANCH  12  18
ENDBRANCH   3   8
BRANCH   1  23
ATOM     21  O   UNL     1      35.204  -8.118 -24.191  0.00  0.00    -0.270 OA
ATOM     22  N   UNL     1      33.543  -6.526 -23.924  0.00  0.00    -0.302 N 
ATOM     23  C   UNL     1      34.055  -7.825 -23.816  0.00  0.00    +0.246 C 
ATOM     24  H   UNL     1      32.625  -6.358 -23.608  0.00  0.00    +0.150 HD
BRANCH  22  25
ATOM     25  C   UNL     1      34.288  -5.426 -24.468  0.00  0.00    +0.072 C 
ATOM     26  C   UNL     1      33.592  -4.196 -24.952  0.00  0.00    +0.021 C 
ATOM     27  C   UNL     1      34.248  -5.127 -25.931  0.00  0.00    +0.021 C 
ENDBRANCH  22  25
ENDBRANCH   1  23
TORSDOF 4
ENDMDL
MODEL 6
REMARK VINA RESULT:     -10.1      2.096      8.650
REMARK  Name = 10089048
REMARK  4 active torsions:
REMARK  status: ('A' for Active; 'I' for Inactive)
REMARK    1  A    between atoms: C_1  and  C_23
REMARK    2  A    between atoms: C_3  and  C_8
REMARK    3  A    between atoms: C_12  and  C_18
REMARK    4  A    between atoms: N_22  and  C_25
REMARK                            x       y       z     vdW  Elec       q    Type
REMARK                         _______ _______ _______ _____ _____    ______ ____
ROOT
ATOM      1  C   UNL     1      34.167 -16.309 -22.682  0.00  0.00    +0.053 C 
ATOM      2  C   UNL     1      34.346 -17.166 -21.597  0.00  0.00    +0.004 C 
ATOM      3  C   UNL     1      34.525 -18.533 -21.811  0.00  0.00    -0.004 C 
ATOM      4  C   UNL     1      34.166 -16.818 -23.981  0.00  0.00    +0.004 C 
ATOM      5  C   UNL     1      34.523 -19.042 -23.110  0.00  0.00    -0.022 C 
ATOM      6  C   UNL     1      34.344 -18.184 -24.195  0.00  0.00    -0.004 C 
ATOM      7  C   UNL     1      34.712 -20.501 -23.378  0.00  0.00    +0.031 C 
ENDROOT
BRANCH   3   8
ATOM      8  C   UNL     1      34.709 -19.404 -20.667  0.00  0.00    -0.004 C 
ATOM      9  C   UNL     1      33.628 -20.059 -20.079  0.00  0.00    -0.022 C 
ATOM     10  C   UNL     1      35.995 -19.581 -20.154  0.00  0.00    -0.000 C 
ATOM     11  C   UNL     1      33.831 -20.892 -18.979  0.00  0.00    +0.000 C 
ATOM     12  C   UNL     1      35.116 -21.069 -18.466  0.00  0.00    +0.055 C 
ATOM     13  C   UNL     1      36.198 -20.414 -19.054  0.00  0.00    +0.005 C 
ATOM     14  C   UNL     1      32.236 -19.892 -20.600  0.00  0.00    +0.031 C 
BRANCH  12  18
ATOM     15  O   UNL     1      34.209 -22.476 -16.786  0.00  0.00    -0.420 OA
ATOM     16  N   UNL     1      36.436 -22.272 -16.724  0.00  0.00    -0.107 NA
ATOM     17  N   UNL     1      36.055 -23.112 -15.696  0.00  0.00    -0.111 NA
ATOM     18  C   UNL     1      35.328 -21.930 -17.328  0.00  0.00    +0.250 A 
ATOM     19  C   UNL     1      34.748 -23.202 -15.770  0.00  0.00    +0.227 A 
ATOM     20  C   UNL     1      33.812 -23.960 -14.929  0.00  0.00    +0.097 C 
ENDBRANCH  12  18
ENDBRANCH   3   8
BRANCH   1  23
ATOM     21  O   UNL     1      34.427 -14.053 -23.273  0.00  0.00    -0.270 OA
ATOM     22  N   UNL     1      33.304 -14.502 -21.297  0.00  0.00    -0.302 N 
ATOM     23  C   UNL     1      33.982 -14.884 -22.462  0.00  0.00    +0.246 C 
ATOM     24  H   UNL     1      32.976 -15.209 -20.694  0.00  0.00    +0.150 HD
BRANCH  22  25
ATOM     25  C   UNL     1      33.065 -13.133 -20.935  0.00  0.00    +0.072 C 
ATOM     26  C   UNL     1      31.762 -12.717 -20.335  0.00  0.00    +0.021 C 
ATOM     27  C   UNL     1      32.123 -12.288 -21.728  0.00  0.00    +0.021 C 
ENDBRANCH  22  25
ENDBRANCH   1  23
TORSDOF 4
ENDMDL
MODEL 7
REMARK VINA RESULT:     -10.0      3.803      6.455
REMARK  Name = 10089048
REMARK  4 active torsions:
REMARK  status: ('A' for Active; 'I' for Inactive)
REMARK    1  A    between atoms: C_1  and  C_23
REMARK    2  A    between atoms: C_3  and  C_8
REMARK    3  A    between atoms: C_12  and  C_18
REMARK    4  A    between atoms: N_22  and  C_25
REMARK                            x       y       z     vdW  Elec       q    Type
REMARK                         _______ _______ _______ _____ _____    ______ ____
ROOT
ATOM      1  C   UNL     1      33.640 -23.585 -14.291  0.00  0.00    +0.053 C 
ATOM      2  C   UNL     1      33.723 -22.855 -15.476  0.00  0.00    +0.004 C 
ATOM      3  C   UNL     1      34.971 -22.526 -16.006  0.00  0.00    -0.004 C 
ATOM      4  C   UNL     1      34.804 -23.986 -13.635  0.00  0.00    +0.004 C 
ATOM      5  C   UNL     1      36.135 -22.927 -15.350  0.00  0.00    -0.022 C 
ATOM      6  C   UNL     1      36.052 -23.658 -14.165  0.00  0.00    -0.004 C 
ATOM      7  C   UNL     1      37.490 -22.593 -15.888  0.00  0.00    +0.031 C 
ENDROOT
BRANCH   3   8
ATOM      8  C   UNL     1      35.031 -21.766 -17.239  0.00  0.00    -0.004 C 
ATOM      9  C   UNL     1      33.951 -21.739 -18.121  0.00  0.00    -0.022 C 
ATOM     10  C   UNL     1      36.194 -21.056 -17.538  0.00  0.00    -0.000 C 
ATOM     11  C   UNL     1      34.032 -20.999 -19.301  0.00  0.00    +0.000 C 
ATOM     12  C   UNL     1      35.195 -20.289 -19.600  0.00  0.00    +0.055 C 
ATOM     13  C   UNL     1      36.275 -20.316 -18.718  0.00  0.00    +0.005 C 
ATOM     14  C   UNL     1      32.689 -22.489 -17.834  0.00  0.00    +0.031 C 
BRANCH  12  18
ATOM     15  O   UNL     1      34.223 -19.640 -21.663  0.00  0.00    -0.420 OA
ATOM     16  N   UNL     1      36.226 -18.730 -21.252  0.00  0.00    -0.107 NA
ATOM     17  N   UNL     1      35.788 -18.266 -22.478  0.00  0.00    -0.111 NA
ATOM     18  C   UNL     1      35.281 -19.524 -20.820  0.00  0.00    +0.250 A 
ATOM     19  C   UNL     1      34.616 -18.823 -22.677  0.00  0.00    +0.227 A 
ATOM     20  C   UNL     1      33.696 -18.688 -23.814  0.00  0.00    +0.097 C 
ENDBRANCH  12  18
ENDBRANCH   3   8
BRANCH   1  23
ATOM     21  O   UNL     1      32.250 -24.490 -12.631  0.00  0.00    -0.270 OA
ATOM     22  N   UNL     1      31.216 -23.621 -14.513  0.00  0.00    -0.302 N 
ATOM     23  C   UNL     1      32.340 -23.930 -13.738  0.00  0.00    +0.246 C 
ATOM     24  H   UNL     1      31.354 -23.178 -15.382  0.00  0.00    +0.150 HD
BRANCH  22  25
ATOM     25  C   UNL     1      29.871 -23.920 -14.107  0.00  0.00    +0.072 C 
ATOM     26  C   UNL     1      29.226 -25.211 -14.492  0.00  0.00    +0.021 C 
ATOM     27  C   UNL     1      28.756 -23.923 -15.101  0.00  0.00    +0.021 C 
ENDBRANCH  22  25
ENDBRANCH   1  23
TORSDOF 4
ENDMDL
MODEL 8
REMARK VINA RESULT:      -9.9      5.124      9.682
REMARK  Name = 10089048
REMARK  4 active torsions:
REMARK  status: ('A' for Active; 'I' for Inactive)
REMARK    1  A    between atoms: C_1  and  C_23
REMARK    2  A    between atoms: C_3  and  C_8
REMARK    3  A    between atoms: C_12  and  C_18
REMARK    4  A    between atoms: N_22  and  C_25
REMARK                            x       y       z     vdW  Elec       q    Type
REMARK                         _______ _______ _______ _____ _____    ______ ____
ROOT
ATOM      1  C   UNL     1      32.456 -12.228 -22.836  0.00  0.00    +0.053 C 
ATOM      2  C   UNL     1      32.254 -10.918 -23.269  0.00  0.00    +0.004 C 
ATOM      3  C   UNL     1      31.763  -9.959 -22.384  0.00  0.00    -0.004 C 
ATOM      4  C   UNL     1      32.165 -12.579 -21.517  0.00  0.00    +0.004 C 
ATOM      5  C   UNL     1      31.472 -10.310 -21.066  0.00  0.00    -0.022 C 
ATOM      6  C   UNL     1      31.674 -11.620 -20.633  0.00  0.00    -0.004 C 
ATOM      7  C   UNL     1      30.944  -9.309 -20.089  0.00  0.00    +0.031 C 
ENDROOT
BRANCH   3   8
ATOM      8  C   UNL     1      31.562  -8.604 -22.858  0.00  0.00    -0.004 C 
ATOM      9  C   UNL     1      32.636  -7.827 -23.292  0.00  0.00    -0.022 C 
ATOM     10  C   UNL     1      30.270  -8.080 -22.878  0.00  0.00    -0.000 C 
ATOM     11  C   UNL     1      32.418  -6.526 -23.745  0.00  0.00    +0.000 C 
ATOM     12  C   UNL     1      31.125  -6.001 -23.764  0.00  0.00    +0.055 C 
ATOM     13  C   UNL     1      30.051  -6.779 -23.331  0.00  0.00    +0.005 C 
ATOM     14  C   UNL     1      34.036  -8.354 -23.285  0.00  0.00    +0.031 C 
BRANCH  12  18
ATOM     15  O   UNL     1      31.637  -4.272 -25.304  0.00  0.00    -0.420 OA
ATOM     16  N   UNL     1      30.087  -3.734 -23.783  0.00  0.00    -0.107 NA
ATOM     17  N   UNL     1      30.280  -2.639 -24.604  0.00  0.00    -0.111 NA
ATOM     18  C   UNL     1      30.898  -4.656 -24.232  0.00  0.00    +0.250 A 
ATOM     19  C   UNL     1      31.193  -2.998 -25.476  0.00  0.00    +0.227 A 
ATOM     20  C   UNL     1      31.784  -2.234 -26.582  0.00  0.00    +0.097 C 
ENDBRANCH  12  18
ENDBRANCH   3   8
BRANCH   1  23
ATOM     21  O   UNL     1      32.746 -13.142 -24.977  0.00  0.00    -0.270 OA
ATOM     22  N   UNL     1      33.699 -14.289 -23.205  0.00  0.00    -0.302 N 
ATOM     23  C   UNL     1      32.969 -13.229 -23.757  0.00  0.00    +0.246 C 
ATOM     24  H   UNL     1      33.841 -14.301 -22.230  0.00  0.00    +0.150 HD
BRANCH  22  25
ATOM     25  C   UNL     1      34.248 -15.361 -23.986  0.00  0.00    +0.072 C 
ATOM     26  C   UNL     1      33.378 -16.468 -24.483  0.00  0.00    +0.021 C 
ATOM     27  C   UNL     1      34.392 -16.731 -23.408  0.00  0.00    +0.021 C 
ENDBRANCH  22  25
ENDBRANCH   1  23
TORSDOF 4
ENDMDL
MODEL 9
REMARK VINA RESULT:      -9.8      4.197     10.422
REMARK  Name = 10089048
REMARK  4 active torsions:
REMARK  status: ('A' for Active; 'I' for Inactive)
REMARK    1  A    between atoms: C_1  and  C_23
REMARK    2  A    between atoms: C_3  and  C_8
REMARK    3  A    between atoms: C_12  and  C_18
REMARK    4  A    between atoms: N_22  and  C_25
REMARK                            x       y       z     vdW  Elec       q    Type
REMARK                         _______ _______ _______ _____ _____    ______ ____
ROOT
ATOM      1  C   UNL     1      33.930 -20.172 -20.159  0.00  0.00    +0.053 C 
ATOM      2  C   UNL     1      34.699 -20.793 -19.175  0.00  0.00    +0.004 C 
ATOM      3  C   UNL     1      34.076 -21.512 -18.154  0.00  0.00    -0.004 C 
ATOM      4  C   UNL     1      32.538 -20.270 -20.122  0.00  0.00    +0.004 C 
ATOM      5  C   UNL     1      32.685 -21.610 -18.118  0.00  0.00    -0.022 C 
ATOM      6  C   UNL     1      31.917 -20.989 -19.102  0.00  0.00    -0.004 C 
ATOM      7  C   UNL     1      31.984 -22.372 -17.040  0.00  0.00    +0.031 C 
ENDROOT
BRANCH   3   8
ATOM      8  C   UNL     1      34.897 -22.148 -17.144  0.00  0.00    -0.004 C 
ATOM      9  C   UNL     1      36.157 -21.645 -16.818  0.00  0.00    -0.022 C 
ATOM     10  C   UNL     1      34.410 -23.281 -16.492  0.00  0.00    -0.000 C 
ATOM     11  C   UNL     1      36.928 -22.275 -15.841  0.00  0.00    +0.000 C 
ATOM     12  C   UNL     1      36.441 -23.408 -15.190  0.00  0.00    +0.055 C 
ATOM     13  C   UNL     1      35.181 -23.911 -15.515  0.00  0.00    +0.005 C 
ATOM     14  C   UNL     1      36.713 -20.434 -17.495  0.00  0.00    +0.031 C 
BRANCH  12  18
ATOM     15  O   UNL     1      38.396 -24.619 -14.615  0.00  0.00    -0.420 OA
ATOM     16  N   UNL     1      37.021 -24.205 -12.899  0.00  0.00    -0.107 NA
ATOM     17  N   UNL     1      38.106 -24.911 -12.416  0.00  0.00    -0.111 NA
ATOM     18  C   UNL     1      37.238 -24.060 -14.180  0.00  0.00    +0.250 A 
ATOM     19  C   UNL     1      38.882 -25.131 -13.452  0.00  0.00    +0.227 A 
ATOM     20  C   UNL     1      40.169 -25.836 -13.525  0.00  0.00    +0.097 C 
ENDBRANCH  12  18
ENDBRANCH   3   8
BRANCH   1  23
ATOM     21  O   UNL     1      35.755 -19.045 -21.108  0.00  0.00    -0.270 OA
ATOM     22  N   UNL     1      33.808 -19.137 -22.359  0.00  0.00    -0.302 N 
ATOM     23  C   UNL     1      34.576 -19.423 -21.224  0.00  0.00    +0.246 C 
ATOM     24  H   UNL     1      32.879 -19.464 -22.390  0.00  0.00    +0.150 HD
BRANCH  22  25
ATOM     25  C   UNL     1      34.304 -18.388 -23.480  0.00  0.00    +0.072 C 
ATOM     26  C   UNL     1      34.238 -16.896 -23.492  0.00  0.00    +0.021 C 
ATOM     27  C   UNL     1      33.363 -17.697 -24.412  0.00  0.00    +0.021 C 
ENDBRANCH  22  25
ENDBRANCH   1  23
TORSDOF 4
ENDMDL
