MODEL 1
REMARK VINA RESULT:     -10.9      0.000      0.000
REMARK  Name = 25254071
REMARK  5 active torsions:
REMARK  status: ('A' for Active; 'I' for Inactive)
REMARK    1  A    between atoms: C_6  and  C_26
REMARK    2  A    between atoms: C_16  and  C_20
REMARK    3  A    between atoms: C_26  and  N_28
REMARK    4  A    between atoms: C_34  and  C_36
REMARK    5  A    between atoms: C_36  and  O_38
REMARK                            x       y       z     vdW  Elec       q    Type
REMARK                         _______ _______ _______ _____ _____    ______ ____
ROOT
ATOM      1  S   UNL     1      36.303 -21.702 -17.718  0.00  0.00    -0.106 S 
ATOM      2  O   UNL     1      38.329 -24.155 -13.476  0.00  0.00    -0.350 OA
ATOM      3  N   UNL     1      36.107 -23.495 -15.067  0.00  0.00    -0.280 N 
ATOM      4  N   UNL     1      32.557 -22.489 -17.065  0.00  0.00    -0.343 NA
ATOM      5  N   UNL     1      33.746 -23.583 -15.263  0.00  0.00    -0.328 NA
ATOM      6  C   UNL     1      35.304 -20.997 -18.911  0.00  0.00    -0.019 C 
ATOM      7  C   UNL     1      33.972 -21.265 -18.696  0.00  0.00    +0.005 C 
ATOM      8  C   UNL     1      34.959 -22.379 -16.894  0.00  0.00    +0.171 C 
ATOM      9  C   UNL     1      33.760 -22.063 -17.532  0.00  0.00    +0.136 C 
ATOM     10  C   UNL     1      34.931 -23.154 -15.740  0.00  0.00    +0.190 C 
ATOM     11  C   UNL     1      36.143 -24.765 -14.330  0.00  0.00    +0.125 C 
ATOM     12  C   UNL     1      36.977 -22.440 -14.533  0.00  0.00    +0.125 C 
ATOM     13  C   UNL     1      37.589 -25.196 -14.114  0.00  0.00    +0.164 C 
ATOM     14  C   UNL     1      38.379 -22.994 -14.305  0.00  0.00    +0.164 C 
ATOM     15  C   UNL     1      32.876 -20.780 -19.573  0.00  0.00    +0.034 C 
ATOM     16  C   UNL     1      32.642 -23.228 -15.946  0.00  0.00    +0.138 C 
ENDROOT
BRANCH  16  20
ATOM     17  N   UNL     1      30.170 -24.879 -13.701  0.00  0.00    -0.180 NA
ATOM     18  N   UNL     1      28.999 -23.911 -15.571  0.00  0.00    -0.202 NA
ATOM     19  N   UNL     1      27.838 -25.061 -13.888  0.00  0.00    -0.303 N 
ATOM     20  C   UNL     1      31.392 -23.704 -15.411  0.00  0.00    +0.108 C 
ATOM     21  C   UNL     1      31.322 -24.418 -14.231  0.00  0.00    +0.120 C 
ATOM     22  C   UNL     1      30.187 -23.479 -16.044  0.00  0.00    +0.177 C 
ATOM     23  C   UNL     1      29.063 -24.593 -14.412  0.00  0.00    +0.084 C 
ATOM     24  H   UNL     1      27.826 -25.566 -13.043  0.00  0.00    +0.154 HD
ATOM     25  H   UNL     1      26.997 -24.881 -14.367  0.00  0.00    +0.154 HD
ENDBRANCH  16  20
BRANCH   6  26
ATOM     26  C   UNL     1      35.939 -20.197 -20.017  0.00  0.00    -0.044 C 
BRANCH  26  28
ATOM     27  O   UNL     1      33.434 -17.136 -24.882  0.00  0.00    -0.272 OA
ATOM     28  N   UNL     1      34.982 -19.295 -20.656  0.00  0.00    +0.392 N 
ATOM     29  N   UNL     1      34.063 -17.478 -22.672  0.00  0.00    -0.282 N 
ATOM     30  C   UNL     1      34.624 -19.785 -21.994  0.00  0.00    -0.055 C 
ATOM     31  C   UNL     1      35.531 -17.933 -20.737  0.00  0.00    -0.055 C 
ATOM     32  C   UNL     1      33.597 -18.864 -22.652  0.00  0.00    +0.071 C 
ATOM     33  C   UNL     1      34.526 -16.974 -21.376  0.00  0.00    +0.071 C 
ATOM     34  C   UNL     1      33.932 -16.718 -23.833  0.00  0.00    +0.252 C 
ATOM     35  H   UNL     1      34.137 -19.268 -20.086  0.00  0.00    -0.079 HD
BRANCH  34  36
ATOM     36  C   UNL     1      34.443 -15.300 -23.772  0.00  0.00    +0.187 C 
ATOM     37  C   UNL     1      33.343 -14.350 -23.354  0.00  0.00    +0.042 C 
BRANCH  36  38
ATOM     38  O   UNL     1      34.907 -14.994 -25.071  0.00  0.00    -0.376 OA
ATOM     39  H   UNL     1      35.854 -14.785 -25.034  0.00  0.00    +0.211 HD
ENDBRANCH  36  38
ENDBRANCH  34  36
ENDBRANCH  26  28
ENDBRANCH   6  26
TORSDOF 5
ENDMDL
MODEL 2
REMARK VINA RESULT:      -8.9      1.624      2.152
REMARK  Name = 25254071
REMARK  5 active torsions:
REMARK  status: ('A' for Active; 'I' for Inactive)
REMARK    1  A    between atoms: C_6  and  C_26
REMARK    2  A    between atoms: C_16  and  C_20
REMARK    3  A    between atoms: C_26  and  N_28
REMARK    4  A    between atoms: C_34  and  C_36
REMARK    5  A    between atoms: C_36  and  O_38
REMARK                            x       y       z     vdW  Elec       q    Type
REMARK                         _______ _______ _______ _____ _____    ______ ____
ROOT
ATOM      1  S   UNL     1      35.626 -20.964 -19.192  0.00  0.00    -0.106 S 
ATOM      2  O   UNL     1      38.022 -22.759 -14.816  0.00  0.00    -0.350 OA
ATOM      3  N   UNL     1      35.674 -22.370 -16.311  0.00  0.00    -0.280 N 
ATOM      4  N   UNL     1      31.961 -21.722 -18.156  0.00  0.00    -0.343 NA
ATOM      5  N   UNL     1      33.308 -22.530 -16.315  0.00  0.00    -0.328 NA
ATOM      6  C   UNL     1      34.523 -20.452 -20.392  0.00  0.00    -0.019 C 
ATOM      7  C   UNL     1      33.218 -20.712 -20.043  0.00  0.00    +0.005 C 
ATOM      8  C   UNL     1      34.365 -21.543 -18.183  0.00  0.00    +0.171 C 
ATOM      9  C   UNL     1      33.114 -21.343 -18.767  0.00  0.00    +0.136 C 
ATOM     10  C   UNL     1      34.442 -22.149 -16.934  0.00  0.00    +0.190 C 
ATOM     11  C   UNL     1      35.799 -23.523 -15.410  0.00  0.00    +0.125 C 
ATOM     12  C   UNL     1      36.548 -21.234 -15.996  0.00  0.00    +0.125 C 
ATOM     13  C   UNL     1      37.269 -23.892 -15.246  0.00  0.00    +0.164 C 
ATOM     14  C   UNL     1      37.978 -21.724 -15.799  0.00  0.00    +0.164 C 
ATOM     15  C   UNL     1      32.048 -20.377 -20.893  0.00  0.00    +0.034 C 
ATOM     16  C   UNL     1      32.148 -22.295 -16.956  0.00  0.00    +0.138 C 
ENDROOT
BRANCH  16  20
ATOM     17  N   UNL     1      28.586 -22.508 -15.887  0.00  0.00    -0.180 NA
ATOM     18  N   UNL     1      29.867 -24.133 -14.654  0.00  0.00    -0.202 NA
ATOM     19  N   UNL     1      27.558 -23.907 -14.308  0.00  0.00    -0.303 N 
ATOM     20  C   UNL     1      30.954 -22.715 -16.267  0.00  0.00    +0.108 C 
ATOM     21  C   UNL     1      29.723 -22.140 -16.513  0.00  0.00    +0.120 C 
ATOM     22  C   UNL     1      30.966 -23.716 -15.318  0.00  0.00    +0.177 C 
ATOM     23  C   UNL     1      28.728 -23.496 -14.983  0.00  0.00    +0.084 C 
ATOM     24  H   UNL     1      26.696 -23.475 -14.510  0.00  0.00    +0.154 HD
ATOM     25  H   UNL     1      27.604 -24.625 -13.636  0.00  0.00    +0.154 HD
ENDBRANCH  16  20
BRANCH   6  26
ATOM     26  C   UNL     1      35.053 -19.803 -21.643  0.00  0.00    -0.044 C 
BRANCH  26  28
ATOM     27  O   UNL     1      32.848 -13.962 -21.072  0.00  0.00    -0.272 OA
ATOM     28  N   UNL     1      35.181 -18.355 -21.494  0.00  0.00    +0.392 N 
ATOM     29  N   UNL     1      34.329 -15.629 -21.724  0.00  0.00    -0.282 N 
ATOM     30  C   UNL     1      34.119 -17.829 -20.624  0.00  0.00    -0.055 C 
ATOM     31  C   UNL     1      35.142 -17.695 -22.808  0.00  0.00    -0.055 C 
ATOM     32  C   UNL     1      34.269 -16.320 -20.437  0.00  0.00    +0.071 C 
ATOM     33  C   UNL     1      35.306 -16.180 -22.666  0.00  0.00    +0.071 C 
ATOM     34  C   UNL     1      33.581 -14.469 -21.925  0.00  0.00    +0.252 C 
ATOM     35  H   UNL     1      36.082 -18.155 -21.060  0.00  0.00    -0.079 HD
BRANCH  34  36
ATOM     36  C   UNL     1      33.693 -13.821 -23.282  0.00  0.00    +0.187 C 
ATOM     37  C   UNL     1      33.461 -12.330 -23.187  0.00  0.00    +0.042 C 
BRANCH  36  38
ATOM     38  O   UNL     1      32.711 -14.434 -24.092  0.00  0.00    -0.376 OA
ATOM     39  H   UNL     1      32.331 -15.192 -23.621  0.00  0.00    +0.211 HD
ENDBRANCH  36  38
ENDBRANCH  34  36
ENDBRANCH  26  28
ENDBRANCH   6  26
TORSDOF 5
ENDMDL
MODEL 3
REMARK VINA RESULT:      -8.7      2.500      5.144
REMARK  Name = 25254071
REMARK  5 active torsions:
REMARK  status: ('A' for Active; 'I' for Inactive)
REMARK    1  A    between atoms: C_6  and  C_26
REMARK    2  A    between atoms: C_16  and  C_20
REMARK    3  A    between atoms: C_26  and  N_28
REMARK    4  A    between atoms: C_34  and  C_36
REMARK    5  A    between atoms: C_36  and  O_38
REMARK                            x       y       z     vdW  Elec       q    Type
REMARK                         _______ _______ _______ _____ _____    ______ ____
ROOT
ATOM      1  S   UNL     1      32.142 -21.316 -18.857  0.00  0.00    -0.106 S 
ATOM      2  O   UNL     1      28.691 -22.804 -15.117  0.00  0.00    -0.350 OA
ATOM      3  N   UNL     1      31.347 -22.416 -15.953  0.00  0.00    -0.280 N 
ATOM      4  N   UNL     1      35.414 -22.198 -16.961  0.00  0.00    -0.343 NA
ATOM      5  N   UNL     1      33.634 -22.728 -15.410  0.00  0.00    -0.328 NA
ATOM      6  C   UNL     1      33.519 -21.001 -19.817  0.00  0.00    -0.019 C 
ATOM      7  C   UNL     1      34.690 -21.307 -19.162  0.00  0.00    +0.005 C 
ATOM      8  C   UNL     1      33.098 -21.870 -17.545  0.00  0.00    +0.171 C 
ATOM      9  C   UNL     1      34.458 -21.811 -17.847  0.00  0.00    +0.136 C 
ATOM     10  C   UNL     1      32.699 -22.340 -16.299  0.00  0.00    +0.190 C 
ATOM     11  C   UNL     1      30.982 -22.258 -14.539  0.00  0.00    +0.125 C 
ATOM     12  C   UNL     1      30.435 -23.254 -16.742  0.00  0.00    +0.125 C 
ATOM     13  C   UNL     1      29.514 -21.865 -14.426  0.00  0.00    +0.164 C 
ATOM     14  C   UNL     1      28.996 -22.808 -16.511  0.00  0.00    +0.164 C 
ATOM     15  C   UNL     1      36.041 -21.135 -19.752  0.00  0.00    +0.034 C 
ATOM     16  C   UNL     1      34.921 -22.635 -15.791  0.00  0.00    +0.138 C 
ENDROOT
BRANCH  16  20
ATOM     17  N   UNL     1      38.185 -23.505 -14.219  0.00  0.00    -0.180 NA
ATOM     18  N   UNL     1      36.430 -23.829 -12.601  0.00  0.00    -0.202 NA
ATOM     19  N   UNL     1      38.670 -24.256 -12.049  0.00  0.00    -0.303 N 
ATOM     20  C   UNL     1      35.896 -23.056 -14.817  0.00  0.00    +0.108 C 
ATOM     21  C   UNL     1      37.245 -23.116 -15.105  0.00  0.00    +0.120 C 
ATOM     22  C   UNL     1      35.543 -23.428 -13.536  0.00  0.00    +0.177 C 
ATOM     23  C   UNL     1      37.714 -23.842 -13.003  0.00  0.00    +0.084 C 
ATOM     24  H   UNL     1      39.624 -24.286 -12.290  0.00  0.00    +0.154 HD
ATOM     25  H   UNL     1      38.381 -24.515 -11.144  0.00  0.00    +0.154 HD
ENDBRANCH  16  20
BRANCH   6  26
ATOM     26  C   UNL     1      33.332 -20.450 -21.206  0.00  0.00    -0.044 C 
BRANCH  26  28
ATOM     27  O   UNL     1      34.136 -14.232 -21.211  0.00  0.00    -0.272 OA
ATOM     28  N   UNL     1      34.094 -19.220 -21.412  0.00  0.00    +0.392 N 
ATOM     29  N   UNL     1      34.430 -16.422 -21.929  0.00  0.00    -0.282 N 
ATOM     30  C   UNL     1      33.758 -18.225 -20.383  0.00  0.00    -0.055 C 
ATOM     31  C   UNL     1      33.843 -18.675 -22.755  0.00  0.00    -0.055 C 
ATOM     32  C   UNL     1      34.577 -16.950 -20.574  0.00  0.00    +0.071 C 
ATOM     33  C   UNL     1      34.660 -17.404 -22.992  0.00  0.00    +0.071 C 
ATOM     34  C   UNL     1      34.215 -15.058 -22.124  0.00  0.00    +0.252 C 
ATOM     35  H   UNL     1      35.087 -19.440 -21.334  0.00  0.00    -0.079 HD
BRANCH  34  36
ATOM     36  C   UNL     1      34.068 -14.596 -23.552  0.00  0.00    +0.187 C 
ATOM     37  C   UNL     1      33.743 -13.121 -23.608  0.00  0.00    +0.042 C 
BRANCH  36  38
ATOM     38  O   UNL     1      33.021 -15.365 -24.108  0.00  0.00    -0.376 OA
ATOM     39  H   UNL     1      32.986 -16.229 -23.667  0.00  0.00    +0.211 HD
ENDBRANCH  36  38
ENDBRANCH  34  36
ENDBRANCH  26  28
ENDBRANCH   6  26
TORSDOF 5
ENDMDL
