MODEL 1
REMARK VINA RESULT:     -12.2      0.000      0.000
REMARK  Name = 11953153
REMARK  7 active torsions:
REMARK  status: ('A' for Active; 'I' for Inactive)
REMARK    1  A    between atoms: C_8  and  C_21
REMARK    2  A    between atoms: C_11  and  C_16
REMARK    3  A    between atoms: C_12  and  C_20
REMARK    4  A    between atoms: C_21  and  C_22
REMARK    5  A    between atoms: C_22  and  N_23
REMARK    6  A    between atoms: C_22  and  C_27
REMARK    7  A    between atoms: C_27  and  N_31
REMARK                            x       y       z     vdW  Elec       q    Type
REMARK                         _______ _______ _______ _____ _____    ______ ____
ROOT
ATOM      1  O   UNL     1      32.283 -19.854 -20.789  0.00  0.00    -0.275 OA
ATOM      2  N   UNL     1      33.567 -21.127 -19.325  0.00  0.00    -0.273 N 
ATOM      3  N   UNL     1      35.978 -22.313 -16.745  0.00  0.00    -0.344 NA
ATOM      4  N   UNL     1      34.776 -23.159 -14.838  0.00  0.00    -0.337 NA
ATOM      5  C   UNL     1      32.456 -22.009 -18.965  0.00  0.00    +0.095 C 
ATOM      6  C   UNL     1      34.872 -21.463 -18.737  0.00  0.00    +0.149 C 
ATOM      7  C   UNL     1      32.275 -22.058 -17.452  0.00  0.00    +0.035 C 
ATOM      8  C   UNL     1      33.376 -20.139 -20.294  0.00  0.00    +0.224 C 
ATOM      9  C   UNL     1      33.572 -22.362 -16.769  0.00  0.00    +0.110 C 
ATOM     10  C   UNL     1      34.797 -22.068 -17.359  0.00  0.00    +0.125 C 
ATOM     11  C   UNL     1      33.628 -22.899 -15.494  0.00  0.00    +0.198 C 
ATOM     12  C   UNL     1      35.897 -22.849 -15.513  0.00  0.00    +0.210 C 
ENDROOT
BRANCH  11  16
ATOM     13  F   UNL     1      31.741 -22.121 -14.246  0.00  0.00    -0.164 F 
ATOM     14  F   UNL     1      31.441 -23.870 -15.491  0.00  0.00    -0.164 F 
ATOM     15  F   UNL     1      32.610 -24.026 -13.664  0.00  0.00    -0.164 F 
ATOM     16  C   UNL     1      32.379 -23.222 -14.740  0.00  0.00    +0.443 C 
ENDBRANCH  11  16
BRANCH  12  20
ATOM     17  F   UNL     1      37.378 -24.444 -14.521  0.00  0.00    -0.156 F 
ATOM     18  F   UNL     1      38.287 -22.764 -15.548  0.00  0.00    -0.156 F 
ATOM     19  F   UNL     1      37.300 -22.461 -13.633  0.00  0.00    -0.156 F 
ATOM     20  C   UNL     1      37.189 -23.125 -14.821  0.00  0.00    +0.500 C 
ENDBRANCH  12  20
BRANCH   8  21
ATOM     21  C   UNL     1      34.607 -19.386 -20.735  0.00  0.00    +0.065 C 
BRANCH  21  22
ATOM     22  C   UNL     1      34.259 -18.315 -21.770  0.00  0.00    -0.036 C 
BRANCH  22  23
ATOM     23  N   UNL     1      34.366 -18.938 -23.094  0.00  0.00    +0.383 N 
ATOM     24  H   UNL     1      34.853 -18.305 -23.729  0.00  0.00    -0.089 HD
ATOM     25  H   UNL     1      33.433 -19.131 -23.456  0.00  0.00    -0.089 HD
ATOM     26  H   UNL     1      34.888 -19.811 -23.018  0.00  0.00    -0.089 HD
ENDBRANCH  22  23
BRANCH  22  27
ATOM     27  C   UNL     1      35.193 -17.097 -21.722  0.00  0.00    +0.072 C 
BRANCH  27  31
ATOM     28  F   UNL     1      32.488 -13.620 -19.780  0.00  0.00    -0.202 F 
ATOM     29  F   UNL     1      34.392 -13.035 -20.654  0.00  0.00    -0.202 F 
ATOM     30  O   UNL     1      34.710 -15.834 -24.192  0.00  0.00    -0.275 OA
ATOM     31  N   UNL     1      34.486 -15.832 -21.880  0.00  0.00    -0.276 N 
ATOM     32  C   UNL     1      33.832 -15.315 -20.678  0.00  0.00    +0.160 C 
ATOM     33  C   UNL     1      33.347 -13.889 -20.793  0.00  0.00    +0.282 C 
ATOM     34  C   UNL     1      32.662 -13.652 -22.116  0.00  0.00    +0.078 C 
ATOM     35  C   UNL     1      33.630 -13.944 -23.243  0.00  0.00    +0.091 C 
ATOM     36  C   UNL     1      34.298 -15.304 -23.157  0.00  0.00    +0.226 C 
ENDBRANCH  27  31
ENDBRANCH  22  27
ENDBRANCH  21  22
ENDBRANCH   8  21
TORSDOF 7
ENDMDL
MODEL 2
REMARK VINA RESULT:     -12.1      1.777      2.192
REMARK  Name = 11953153
REMARK  7 active torsions:
REMARK  status: ('A' for Active; 'I' for Inactive)
REMARK    1  A    between atoms: C_8  and  C_21
REMARK    2  A    between atoms: C_11  and  C_16
REMARK    3  A    between atoms: C_12  and  C_20
REMARK    4  A    between atoms: C_21  and  C_22
REMARK    5  A    between atoms: C_22  and  N_23
REMARK    6  A    between atoms: C_22  and  C_27
REMARK    7  A    between atoms: C_27  and  N_31
REMARK                            x       y       z     vdW  Elec       q    Type
REMARK                         _______ _______ _______ _____ _____    ______ ____
ROOT
ATOM      1  O   UNL     1      33.480 -19.854 -21.026  0.00  0.00    -0.275 OA
ATOM      2  N   UNL     1      34.300 -21.183 -19.302  0.00  0.00    -0.273 N 
ATOM      3  N   UNL     1      35.963 -22.482 -16.232  0.00  0.00    -0.344 NA
ATOM      4  N   UNL     1      34.297 -23.212 -14.653  0.00  0.00    -0.337 NA
ATOM      5  C   UNL     1      33.078 -21.983 -19.208  0.00  0.00    +0.095 C 
ATOM      6  C   UNL     1      35.408 -21.595 -18.427  0.00  0.00    +0.149 C 
ATOM      7  C   UNL     1      32.550 -21.994 -17.778  0.00  0.00    +0.035 C 
ATOM      8  C   UNL     1      34.407 -20.202 -20.291  0.00  0.00    +0.224 C 
ATOM      9  C   UNL     1      33.630 -22.371 -16.813  0.00  0.00    +0.110 C 
ATOM     10  C   UNL     1      34.975 -22.169 -17.103  0.00  0.00    +0.125 C 
ATOM     11  C   UNL     1      33.353 -22.888 -15.558  0.00  0.00    +0.198 C 
ATOM     12  C   UNL     1      35.563 -22.989 -15.050  0.00  0.00    +0.210 C 
ENDROOT
BRANCH  11  16
ATOM     13  F   UNL     1      31.315 -21.975 -14.698  0.00  0.00    -0.164 F 
ATOM     14  F   UNL     1      31.141 -23.630 -16.089  0.00  0.00    -0.164 F 
ATOM     15  F   UNL     1      31.859 -23.983 -14.067  0.00  0.00    -0.164 F 
ATOM     16  C   UNL     1      31.944 -23.113 -15.113  0.00  0.00    +0.443 C 
ENDBRANCH  11  16
BRANCH  12  20
ATOM     17  F   UNL     1      36.786 -22.423 -13.074  0.00  0.00    -0.156 F 
ATOM     18  F   UNL     1      36.436 -24.531 -13.444  0.00  0.00    -0.156 F 
ATOM     19  F   UNL     1      37.865 -23.438 -14.666  0.00  0.00    -0.156 F 
ATOM     20  C   UNL     1      36.637 -23.338 -14.078  0.00  0.00    +0.500 C 
ENDBRANCH  12  20
BRANCH   8  21
ATOM     21  C   UNL     1      35.755 -19.540 -20.435  0.00  0.00    +0.065 C 
BRANCH  21  22
ATOM     22  C   UNL     1      35.682 -18.337 -21.377  0.00  0.00    -0.036 C 
BRANCH  22  23
ATOM     23  N   UNL     1      37.058 -17.989 -21.746  0.00  0.00    +0.383 N 
ATOM     24  H   UNL     1      37.059 -17.111 -22.266  0.00  0.00    -0.089 HD
ATOM     25  H   UNL     1      37.452 -18.728 -22.328  0.00  0.00    -0.089 HD
ATOM     26  H   UNL     1      37.622 -17.886 -20.902  0.00  0.00    -0.089 HD
ENDBRANCH  22  23
BRANCH  22  27
ATOM     27  C   UNL     1      35.017 -17.108 -20.742  0.00  0.00    +0.072 C 
BRANCH  27  31
ATOM     28  F   UNL     1      34.546 -15.832 -25.361  0.00  0.00    -0.202 F 
ATOM     29  F   UNL     1      32.723 -16.076 -24.200  0.00  0.00    -0.202 F 
ATOM     30  O   UNL     1      33.982 -14.561 -20.128  0.00  0.00    -0.275 OA
ATOM     31  N   UNL     1      34.519 -16.158 -21.728  0.00  0.00    -0.276 N 
ATOM     32  C   UNL     1      34.767 -16.505 -23.127  0.00  0.00    +0.160 C 
ATOM     33  C   UNL     1      34.012 -15.661 -24.127  0.00  0.00    +0.282 C 
ATOM     34  C   UNL     1      34.061 -14.200 -23.752  0.00  0.00    +0.078 C 
ATOM     35  C   UNL     1      33.453 -14.013 -22.377  0.00  0.00    +0.091 C 
ATOM     36  C   UNL     1      34.036 -14.919 -21.308  0.00  0.00    +0.226 C 
ENDBRANCH  27  31
ENDBRANCH  22  27
ENDBRANCH  21  22
ENDBRANCH   8  21
TORSDOF 7
ENDMDL
MODEL 3
REMARK VINA RESULT:     -10.4      6.256     13.734
REMARK  Name = 11953153
REMARK  7 active torsions:
REMARK  status: ('A' for Active; 'I' for Inactive)
REMARK    1  A    between atoms: C_8  and  C_21
REMARK    2  A    between atoms: C_11  and  C_16
REMARK    3  A    between atoms: C_12  and  C_20
REMARK    4  A    between atoms: C_21  and  C_22
REMARK    5  A    between atoms: C_22  and  N_23
REMARK    6  A    between atoms: C_22  and  C_27
REMARK    7  A    between atoms: C_27  and  N_31
REMARK                            x       y       z     vdW  Elec       q    Type
REMARK                         _______ _______ _______ _____ _____    ______ ____
ROOT
ATOM      1  O   UNL     1      31.072 -12.233 -21.030  0.00  0.00    -0.275 OA
ATOM      2  N   UNL     1      32.143 -10.348 -21.874  0.00  0.00    -0.273 N 
ATOM      3  N   UNL     1      33.507  -7.652 -24.053  0.00  0.00    -0.344 NA
ATOM      4  N   UNL     1      32.408  -5.569 -23.551  0.00  0.00    -0.337 NA
ATOM      5  C   UNL     1      31.745  -9.500 -20.750  0.00  0.00    +0.095 C 
ATOM      6  C   UNL     1      33.022  -9.722 -22.873  0.00  0.00    +0.149 C 
ATOM      7  C   UNL     1      31.045  -8.240 -21.247  0.00  0.00    +0.035 C 
ATOM      8  C   UNL     1      31.809 -11.705 -21.866  0.00  0.00    +0.224 C 
ATOM      9  C   UNL     1      31.861  -7.556 -22.299  0.00  0.00    +0.110 C 
ATOM     10  C   UNL     1      32.779  -8.250 -23.080  0.00  0.00    +0.125 C 
ATOM     11  C   UNL     1      31.711  -6.211 -22.593  0.00  0.00    +0.198 C 
ATOM     12  C   UNL     1      33.277  -6.337 -24.231  0.00  0.00    +0.210 C 
ENDROOT
BRANCH  11  16
ATOM     13  F   UNL     1      29.428  -5.653 -22.149  0.00  0.00    -0.164 F 
ATOM     14  F   UNL     1      30.818  -5.493 -20.493  0.00  0.00    -0.164 F 
ATOM     15  F   UNL     1      30.880  -4.037 -22.107  0.00  0.00    -0.164 F 
ATOM     16  C   UNL     1      30.728  -5.367 -21.849  0.00  0.00    +0.443 C 
ENDBRANCH  11  16
BRANCH  12  20
ATOM     17  F   UNL     1      34.712  -4.534 -24.872  0.00  0.00    -0.156 F 
ATOM     18  F   UNL     1      35.050  -6.449 -25.833  0.00  0.00    -0.156 F 
ATOM     19  F   UNL     1      33.299  -5.267 -26.353  0.00  0.00    -0.156 F 
ATOM     20  C   UNL     1      34.070  -5.662 -25.298  0.00  0.00    +0.500 C 
ENDBRANCH  12  20
BRANCH   8  21
ATOM     21  C   UNL     1      32.400 -12.547 -22.969  0.00  0.00    +0.065 C 
BRANCH  21  22
ATOM     22  C   UNL     1      33.069 -13.803 -22.409  0.00  0.00    -0.036 C 
BRANCH  22  23
ATOM     23  N   UNL     1      33.828 -13.400 -21.221  0.00  0.00    +0.383 N 
ATOM     24  H   UNL     1      34.797 -13.703 -21.317  0.00  0.00    -0.089 HD
ATOM     25  H   UNL     1      33.418 -13.831 -20.392  0.00  0.00    -0.089 HD
ATOM     26  H   UNL     1      33.797 -12.384 -21.125  0.00  0.00    -0.089 HD
ENDBRANCH  22  23
BRANCH  22  27
ATOM     27  C   UNL     1      34.028 -14.475 -23.402  0.00  0.00    +0.072 C 
BRANCH  27  31
ATOM     28  F   UNL     1      36.061 -18.089 -20.954  0.00  0.00    -0.202 F 
ATOM     29  F   UNL     1      33.890 -17.965 -20.936  0.00  0.00    -0.202 F 
ATOM     30  O   UNL     1      32.991 -16.463 -25.106  0.00  0.00    -0.275 OA
ATOM     31  N   UNL     1      34.165 -15.909 -23.179  0.00  0.00    -0.276 N 
ATOM     32  C   UNL     1      35.069 -16.301 -22.098  0.00  0.00    +0.160 C 
ATOM     33  C   UNL     1      34.985 -17.758 -21.709  0.00  0.00    +0.282 C 
ATOM     34  C   UNL     1      34.929 -18.646 -22.928  0.00  0.00    +0.078 C 
ATOM     35  C   UNL     1      33.718 -18.279 -23.761  0.00  0.00    +0.091 C 
ATOM     36  C   UNL     1      33.615 -16.803 -24.097  0.00  0.00    +0.226 C 
ENDBRANCH  27  31
ENDBRANCH  22  27
ENDBRANCH  21  22
ENDBRANCH   8  21
TORSDOF 7
ENDMDL
MODEL 4
REMARK VINA RESULT:     -10.0      3.280      4.761
REMARK  Name = 11953153
REMARK  7 active torsions:
REMARK  status: ('A' for Active; 'I' for Inactive)
REMARK    1  A    between atoms: C_8  and  C_21
REMARK    2  A    between atoms: C_11  and  C_16
REMARK    3  A    between atoms: C_12  and  C_20
REMARK    4  A    between atoms: C_21  and  C_22
REMARK    5  A    between atoms: C_22  and  N_23
REMARK    6  A    between atoms: C_22  and  C_27
REMARK    7  A    between atoms: C_27  and  N_31
REMARK                            x       y       z     vdW  Elec       q    Type
REMARK                         _______ _______ _______ _____ _____    ______ ____
ROOT
ATOM      1  O   UNL     1      31.625 -22.394 -16.345  0.00  0.00    -0.275 OA
ATOM      2  N   UNL     1      33.563 -23.494 -15.677  0.00  0.00    -0.273 N 
ATOM      3  N   UNL     1      37.087 -24.562 -15.109  0.00  0.00    -0.344 NA
ATOM      4  N   UNL     1      37.666 -24.249 -12.792  0.00  0.00    -0.337 NA
ATOM      5  C   UNL     1      33.067 -23.749 -14.324  0.00  0.00    +0.095 C 
ATOM      6  C   UNL     1      34.878 -24.067 -15.999  0.00  0.00    +0.149 C 
ATOM      7  C   UNL     1      34.056 -23.235 -13.283  0.00  0.00    +0.035 C 
ATOM      8  C   UNL     1      32.728 -22.876 -16.611  0.00  0.00    +0.224 C 
ATOM      9  C   UNL     1      35.436 -23.746 -13.559  0.00  0.00    +0.110 C 
ATOM     10  C   UNL     1      35.836 -24.121 -14.837  0.00  0.00    +0.125 C 
ATOM     11  C   UNL     1      36.407 -23.821 -12.575  0.00  0.00    +0.198 C 
ATOM     12  C   UNL     1      37.933 -24.601 -14.063  0.00  0.00    +0.210 C 
ENDROOT
BRANCH  11  16
ATOM     13  F   UNL     1      36.129 -22.056 -10.984  0.00  0.00    -0.164 F 
ATOM     14  F   UNL     1      34.884 -23.813 -10.730  0.00  0.00    -0.164 F 
ATOM     15  F   UNL     1      37.008 -23.914 -10.276  0.00  0.00    -0.164 F 
ATOM     16  C   UNL     1      36.111 -23.408 -11.169  0.00  0.00    +0.443 C 
ENDBRANCH  11  16
BRANCH  12  20
ATOM     17  F   UNL     1      39.671 -24.991 -15.660  0.00  0.00    -0.156 F 
ATOM     18  F   UNL     1      40.283 -24.396 -13.666  0.00  0.00    -0.156 F 
ATOM     19  F   UNL     1      39.493 -26.394 -14.008  0.00  0.00    -0.156 F 
ATOM     20  C   UNL     1      39.316 -25.083 -14.344  0.00  0.00    +0.500 C 
ENDBRANCH  12  20
BRANCH   8  21
ATOM     21  C   UNL     1      33.244 -22.804 -18.027  0.00  0.00    +0.065 C 
BRANCH  21  22
ATOM     22  C   UNL     1      33.015 -21.417 -18.630  0.00  0.00    -0.036 C 
BRANCH  22  23
ATOM     23  N   UNL     1      31.585 -21.119 -18.505  0.00  0.00    +0.383 N 
ATOM     24  H   UNL     1      31.447 -20.405 -17.789  0.00  0.00    -0.089 HD
ATOM     25  H   UNL     1      31.082 -21.966 -18.241  0.00  0.00    -0.089 HD
ATOM     26  H   UNL     1      31.229 -20.778 -19.399  0.00  0.00    -0.089 HD
ENDBRANCH  22  23
BRANCH  22  27
ATOM     27  C   UNL     1      33.410 -21.325 -20.111  0.00  0.00    +0.072 C 
BRANCH  27  31
ATOM     28  F   UNL     1      34.539 -17.420 -22.692  0.00  0.00    -0.202 F 
ATOM     29  F   UNL     1      34.396 -17.187 -20.534  0.00  0.00    -0.202 F 
ATOM     30  O   UNL     1      36.009 -21.140 -19.042  0.00  0.00    -0.275 OA
ATOM     31  N   UNL     1      34.341 -20.238 -20.384  0.00  0.00    -0.276 N 
ATOM     32  C   UNL     1      33.937 -19.305 -21.436  0.00  0.00    +0.160 C 
ATOM     33  C   UNL     1      34.771 -18.047 -21.512  0.00  0.00    +0.282 C 
ATOM     34  C   UNL     1      36.242 -18.361 -21.386  0.00  0.00    +0.078 C 
ATOM     35  C   UNL     1      36.496 -19.051 -20.062  0.00  0.00    +0.091 C 
ATOM     36  C   UNL     1      35.609 -20.255 -19.804  0.00  0.00    +0.226 C 
ENDBRANCH  27  31
ENDBRANCH  22  27
ENDBRANCH  21  22
ENDBRANCH   8  21
TORSDOF 7
ENDMDL
MODEL 5
REMARK VINA RESULT:      -9.9      3.256      5.373
REMARK  Name = 11953153
REMARK  7 active torsions:
REMARK  status: ('A' for Active; 'I' for Inactive)
REMARK    1  A    between atoms: C_8  and  C_21
REMARK    2  A    between atoms: C_11  and  C_16
REMARK    3  A    between atoms: C_12  and  C_20
REMARK    4  A    between atoms: C_21  and  C_22
REMARK    5  A    between atoms: C_22  and  N_23
REMARK    6  A    between atoms: C_22  and  C_27
REMARK    7  A    between atoms: C_27  and  N_31
REMARK                            x       y       z     vdW  Elec       q    Type
REMARK                         _______ _______ _______ _____ _____    ______ ____
ROOT
ATOM      1  O   UNL     1      35.798 -22.145 -17.783  0.00  0.00    -0.275 OA
ATOM      2  N   UNL     1      33.563 -21.980 -17.155  0.00  0.00    -0.273 N 
ATOM      3  N   UNL     1      29.862 -22.310 -16.886  0.00  0.00    -0.344 NA
ATOM      4  N   UNL     1      29.298 -23.506 -14.873  0.00  0.00    -0.337 NA
ATOM      5  C   UNL     1      33.862 -22.025 -15.723  0.00  0.00    +0.095 C 
ATOM      6  C   UNL     1      32.151 -21.778 -17.512  0.00  0.00    +0.149 C 
ATOM      7  C   UNL     1      33.057 -23.125 -15.040  0.00  0.00    +0.035 C 
ATOM      8  C   UNL     1      34.612 -21.975 -18.078  0.00  0.00    +0.224 C 
ATOM      9  C   UNL     1      31.604 -23.013 -15.380  0.00  0.00    +0.110 C 
ATOM     10  C   UNL     1      31.171 -22.398 -16.550  0.00  0.00    +0.125 C 
ATOM     11  C   UNL     1      30.613 -23.563 -14.584  0.00  0.00    +0.198 C 
ATOM     12  C   UNL     1      28.998 -22.873 -16.021  0.00  0.00    +0.210 C 
ENDROOT
BRANCH  11  16
ATOM     13  F   UNL     1      31.769 -25.363 -13.513  0.00  0.00    -0.164 F 
ATOM     14  F   UNL     1      31.603 -23.505 -12.406  0.00  0.00    -0.164 F 
ATOM     15  F   UNL     1      29.853 -24.767 -12.680  0.00  0.00    -0.164 F 
ATOM     16  C   UNL     1      30.955 -24.285 -13.320  0.00  0.00    +0.443 C 
ENDBRANCH  11  16
BRANCH  12  20
ATOM     17  F   UNL     1      26.734 -22.603 -15.296  0.00  0.00    -0.156 F 
ATOM     18  F   UNL     1      27.257 -21.758 -17.224  0.00  0.00    -0.156 F 
ATOM     19  F   UNL     1      27.095 -23.915 -16.992  0.00  0.00    -0.156 F 
ATOM     20  C   UNL     1      27.552 -22.786 -16.375  0.00  0.00    +0.500 C 
ENDBRANCH  12  20
BRANCH   8  21
ATOM     21  C   UNL     1      34.234 -21.753 -19.521  0.00  0.00    +0.065 C 
BRANCH  21  22
ATOM     22  C   UNL     1      34.094 -20.262 -19.834  0.00  0.00    -0.036 C 
BRANCH  22  23
ATOM     23  N   UNL     1      32.830 -20.085 -20.555  0.00  0.00    +0.383 N 
ATOM     24  H   UNL     1      32.385 -19.217 -20.254  0.00  0.00    -0.089 HD
ATOM     25  H   UNL     1      32.211 -20.870 -20.356  0.00  0.00    -0.089 HD
ATOM     26  H   UNL     1      33.013 -20.043 -21.558  0.00  0.00    -0.089 HD
ENDBRANCH  22  23
BRANCH  22  27
ATOM     27  C   UNL     1      35.237 -19.713 -20.700  0.00  0.00    +0.072 C 
BRANCH  27  31
ATOM     28  F   UNL     1      33.884 -18.917 -25.252  0.00  0.00    -0.202 F 
ATOM     29  F   UNL     1      32.468 -18.404 -23.683  0.00  0.00    -0.202 F 
ATOM     30  O   UNL     1      35.193 -16.914 -20.395  0.00  0.00    -0.275 OA
ATOM     31  N   UNL     1      34.779 -18.778 -21.719  0.00  0.00    -0.276 N 
ATOM     32  C   UNL     1      34.516 -19.353 -23.038  0.00  0.00    +0.160 C 
ATOM     33  C   UNL     1      33.789 -18.432 -23.990  0.00  0.00    +0.282 C 
ATOM     34  C   UNL     1      34.359 -17.036 -23.939  0.00  0.00    +0.078 C 
ATOM     35  C   UNL     1      34.239 -16.495 -22.529  0.00  0.00    +0.091 C 
ATOM     36  C   UNL     1      34.810 -17.407 -21.459  0.00  0.00    +0.226 C 
ENDBRANCH  27  31
ENDBRANCH  22  27
ENDBRANCH  21  22
ENDBRANCH   8  21
TORSDOF 7
ENDMDL
MODEL 6
REMARK VINA RESULT:      -9.8      2.567      3.311
REMARK  Name = 11953153
REMARK  7 active torsions:
REMARK  status: ('A' for Active; 'I' for Inactive)
REMARK    1  A    between atoms: C_8  and  C_21
REMARK    2  A    between atoms: C_11  and  C_16
REMARK    3  A    between atoms: C_12  and  C_20
REMARK    4  A    between atoms: C_21  and  C_22
REMARK    5  A    between atoms: C_22  and  N_23
REMARK    6  A    between atoms: C_22  and  C_27
REMARK    7  A    between atoms: C_27  and  N_31
REMARK                            x       y       z     vdW  Elec       q    Type
REMARK                         _______ _______ _______ _____ _____    ______ ____
ROOT
ATOM      1  O   UNL     1      32.991 -21.341 -19.714  0.00  0.00    -0.275 OA
ATOM      2  N   UNL     1      33.592 -22.345 -17.703  0.00  0.00    -0.273 N 
ATOM      3  N   UNL     1      34.937 -23.096 -14.311  0.00  0.00    -0.344 NA
ATOM      4  N   UNL     1      33.116 -23.409 -12.766  0.00  0.00    -0.337 NA
ATOM      5  C   UNL     1      32.314 -23.044 -17.558  0.00  0.00    +0.095 C 
ATOM      6  C   UNL     1      34.603 -22.634 -16.675  0.00  0.00    +0.149 C 
ATOM      7  C   UNL     1      31.685 -22.742 -16.202  0.00  0.00    +0.035 C 
ATOM      8  C   UNL     1      33.836 -21.586 -18.850  0.00  0.00    +0.224 C 
ATOM      9  C   UNL     1      32.664 -22.978 -15.096  0.00  0.00    +0.110 C 
ATOM     10  C   UNL     1      34.038 -22.910 -15.306  0.00  0.00    +0.125 C 
ATOM     11  C   UNL     1      32.263 -23.221 -13.793  0.00  0.00    +0.198 C 
ATOM     12  C   UNL     1      34.419 -23.337 -13.092  0.00  0.00    +0.210 C 
ENDROOT
BRANCH  11  16
ATOM     13  F   UNL     1      30.069 -22.295 -14.017  0.00  0.00    -0.164 F 
ATOM     14  F   UNL     1      30.209 -24.448 -13.792  0.00  0.00    -0.164 F 
ATOM     15  F   UNL     1      30.603 -23.151 -12.092  0.00  0.00    -0.164 F 
ATOM     16  C   UNL     1      30.814 -23.278 -13.432  0.00  0.00    +0.443 C 
ENDBRANCH  11  16
BRANCH  12  20
ATOM     17  F   UNL     1      34.887 -24.254 -10.933  0.00  0.00    -0.156 F 
ATOM     18  F   UNL     1      36.518 -24.222 -12.362  0.00  0.00    -0.156 F 
ATOM     19  F   UNL     1      35.838 -22.368 -11.449  0.00  0.00    -0.156 F 
ATOM     20  C   UNL     1      35.395 -23.543 -11.983  0.00  0.00    +0.500 C 
ENDBRANCH  12  20
BRANCH   8  21
ATOM     21  C   UNL     1      35.233 -21.039 -19.006  0.00  0.00    +0.065 C 
BRANCH  21  22
ATOM     22  C   UNL     1      35.322 -20.080 -20.194  0.00  0.00    -0.036 C 
BRANCH  22  23
ATOM     23  N   UNL     1      36.485 -19.214 -19.970  0.00  0.00    +0.383 N 
ATOM     24  H   UNL     1      36.730 -18.742 -20.840  0.00  0.00    -0.089 HD
ATOM     25  H   UNL     1      37.274 -19.778 -19.655  0.00  0.00    -0.089 HD
ATOM     26  H   UNL     1      36.259 -18.519 -19.257  0.00  0.00    -0.089 HD
ENDBRANCH  22  23
BRANCH  22  27
ATOM     27  C   UNL     1      34.076 -19.198 -20.358  0.00  0.00    +0.072 C 
BRANCH  27  31
ATOM     28  F   UNL     1      33.963 -18.826 -25.157  0.00  0.00    -0.202 F 
ATOM     29  F   UNL     1      32.475 -17.707 -24.031  0.00  0.00    -0.202 F 
ATOM     30  O   UNL     1      34.799 -16.476 -20.351  0.00  0.00    -0.275 OA
ATOM     31  N   UNL     1      34.128 -18.354 -21.544  0.00  0.00    -0.276 N 
ATOM     32  C   UNL     1      33.979 -19.046 -22.824  0.00  0.00    +0.160 C 
ATOM     33  C   UNL     1      33.762 -18.134 -24.009  0.00  0.00    +0.282 C 
ATOM     34  C   UNL     1      34.696 -16.949 -23.962  0.00  0.00    +0.078 C 
ATOM     35  C   UNL     1      34.460 -16.174 -22.682  0.00  0.00    +0.091 C 
ATOM     36  C   UNL     1      34.509 -17.018 -21.422  0.00  0.00    +0.226 C 
ENDBRANCH  27  31
ENDBRANCH  22  27
ENDBRANCH  21  22
ENDBRANCH   8  21
TORSDOF 7
ENDMDL
MODEL 7
REMARK VINA RESULT:      -9.7      8.341     12.132
REMARK  Name = 11953153
REMARK  7 active torsions:
REMARK  status: ('A' for Active; 'I' for Inactive)
REMARK    1  A    between atoms: C_8  and  C_21
REMARK    2  A    between atoms: C_11  and  C_16
REMARK    3  A    between atoms: C_12  and  C_20
REMARK    4  A    between atoms: C_21  and  C_22
REMARK    5  A    between atoms: C_22  and  N_23
REMARK    6  A    between atoms: C_22  and  C_27
REMARK    7  A    between atoms: C_27  and  N_31
REMARK                            x       y       z     vdW  Elec       q    Type
REMARK                         _______ _______ _______ _____ _____    ______ ____
ROOT
ATOM      1  O   UNL     1      31.228  -7.833 -19.254  0.00  0.00    -0.275 OA
ATOM      2  N   UNL     1      31.281  -9.479 -20.897  0.00  0.00    -0.273 N 
ATOM      3  N   UNL     1      32.038 -11.550 -23.899  0.00  0.00    -0.344 NA
ATOM      4  N   UNL     1      33.095 -13.606 -23.223  0.00  0.00    -0.337 NA
ATOM      5  C   UNL     1      31.151 -10.577 -19.937  0.00  0.00    +0.095 C 
ATOM      6  C   UNL     1      31.289  -9.863 -22.316  0.00  0.00    +0.149 C 
ATOM      7  C   UNL     1      32.271 -11.594 -20.128  0.00  0.00    +0.035 C 
ATOM      8  C   UNL     1      31.235  -8.159 -20.443  0.00  0.00    +0.224 C 
ATOM      9  C   UNL     1      32.372 -12.014 -21.561  0.00  0.00    +0.110 C 
ATOM     10  C   UNL     1      31.931 -11.197 -22.597  0.00  0.00    +0.125 C 
ATOM     11  C   UNL     1      32.960 -13.208 -21.942  0.00  0.00    +0.198 C 
ATOM     12  C   UNL     1      32.616 -12.742 -24.137  0.00  0.00    +0.210 C 
ENDROOT
BRANCH  11  16
ATOM     13  F   UNL     1      32.576 -14.597 -20.032  0.00  0.00    -0.164 F 
ATOM     14  F   UNL     1      34.052 -15.283 -21.465  0.00  0.00    -0.164 F 
ATOM     15  F   UNL     1      34.499 -13.594 -20.170  0.00  0.00    -0.164 F 
ATOM     16  C   UNL     1      33.510 -14.153 -20.923  0.00  0.00    +0.443 C 
ENDBRANCH  11  16
BRANCH  12  20
ATOM     17  F   UNL     1      33.701 -12.452 -26.249  0.00  0.00    -0.156 F 
ATOM     18  F   UNL     1      33.071 -14.463 -25.734  0.00  0.00    -0.156 F 
ATOM     19  F   UNL     1      31.588 -12.964 -26.268  0.00  0.00    -0.156 F 
ATOM     20  C   UNL     1      32.744 -13.148 -25.565  0.00  0.00    +0.500 C 
ENDBRANCH  12  20
BRANCH   8  21
ATOM     21  C   UNL     1      31.201  -7.086 -21.504  0.00  0.00    +0.065 C 
BRANCH  21  22
ATOM     22  C   UNL     1      32.601  -6.530 -21.773  0.00  0.00    -0.036 C 
BRANCH  22  23
ATOM     23  N   UNL     1      33.258  -6.355 -20.474  0.00  0.00    +0.383 N 
ATOM     24  H   UNL     1      33.752  -5.462 -20.460  0.00  0.00    -0.089 HD
ATOM     25  H   UNL     1      33.922  -7.113 -20.323  0.00  0.00    -0.089 HD
ATOM     26  H   UNL     1      32.556  -6.367 -19.733  0.00  0.00    -0.089 HD
ENDBRANCH  22  23
BRANCH  22  27
ATOM     27  C   UNL     1      32.588  -5.180 -22.505  0.00  0.00    +0.072 C 
BRANCH  27  31
ATOM     28  F   UNL     1      35.672  -4.616 -26.159  0.00  0.00    -0.202 F 
ATOM     29  F   UNL     1      34.888  -6.614 -25.812  0.00  0.00    -0.202 F 
ATOM     30  O   UNL     1      30.655  -5.753 -24.471  0.00  0.00    -0.275 OA
ATOM     31  N   UNL     1      32.869  -5.303 -23.929  0.00  0.00    -0.276 N 
ATOM     32  C   UNL     1      34.213  -4.907 -24.349  0.00  0.00    +0.160 C 
ATOM     33  C   UNL     1      34.569  -5.297 -25.764  0.00  0.00    +0.282 C 
ATOM     34  C   UNL     1      33.430  -5.009 -26.711  0.00  0.00    +0.078 C 
ATOM     35  C   UNL     1      32.203  -5.782 -26.271  0.00  0.00    +0.091 C 
ATOM     36  C   UNL     1      31.828  -5.582 -24.815  0.00  0.00    +0.226 C 
ENDBRANCH  27  31
ENDBRANCH  22  27
ENDBRANCH  21  22
ENDBRANCH   8  21
TORSDOF 7
ENDMDL
MODEL 8
REMARK VINA RESULT:      -9.7      8.311     14.839
REMARK  Name = 11953153
REMARK  7 active torsions:
REMARK  status: ('A' for Active; 'I' for Inactive)
REMARK    1  A    between atoms: C_8  and  C_21
REMARK    2  A    between atoms: C_11  and  C_16
REMARK    3  A    between atoms: C_12  and  C_20
REMARK    4  A    between atoms: C_21  and  C_22
REMARK    5  A    between atoms: C_22  and  N_23
REMARK    6  A    between atoms: C_22  and  C_27
REMARK    7  A    between atoms: C_27  and  N_31
REMARK                            x       y       z     vdW  Elec       q    Type
REMARK                         _______ _______ _______ _____ _____    ______ ____
ROOT
ATOM      1  O   UNL     1      30.438 -10.097 -20.009  0.00  0.00    -0.275 OA
ATOM      2  N   UNL     1      31.504  -8.788 -21.609  0.00  0.00    -0.273 N 
ATOM      3  N   UNL     1      32.514  -7.024 -24.732  0.00  0.00    -0.344 NA
ATOM      4  N   UNL     1      32.175  -4.654 -24.471  0.00  0.00    -0.337 NA
ATOM      5  C   UNL     1      31.756  -7.686 -20.680  0.00  0.00    +0.095 C 
ATOM      6  C   UNL     1      32.060  -8.628 -22.961  0.00  0.00    +0.149 C 
ATOM      7  C   UNL     1      31.220  -6.374 -21.242  0.00  0.00    +0.035 C 
ATOM      8  C   UNL     1      30.906  -9.960 -21.142  0.00  0.00    +0.224 C 
ATOM      9  C   UNL     1      31.712  -6.150 -22.637  0.00  0.00    +0.110 C 
ATOM     10  C   UNL     1      32.090  -7.206 -23.459  0.00  0.00    +0.125 C 
ATOM     11  C   UNL     1      31.765  -4.890 -23.209  0.00  0.00    +0.198 C 
ATOM     12  C   UNL     1      32.533  -5.749 -25.165  0.00  0.00    +0.210 C 
ENDROOT
BRANCH  11  16
ATOM     13  F   UNL     1      31.630  -2.505 -23.078  0.00  0.00    -0.164 F 
ATOM     14  F   UNL     1      30.006  -3.632 -22.185  0.00  0.00    -0.164 F 
ATOM     15  F   UNL     1      31.957  -3.594 -21.225  0.00  0.00    -0.164 F 
ATOM     16  C   UNL     1      31.346  -3.678 -22.441  0.00  0.00    +0.443 C 
ENDBRANCH  11  16
BRANCH  12  20
ATOM     17  F   UNL     1      32.372  -6.330 -27.480  0.00  0.00    -0.156 F 
ATOM     18  F   UNL     1      32.796  -4.254 -27.013  0.00  0.00    -0.156 F 
ATOM     19  F   UNL     1      34.331  -5.769 -26.720  0.00  0.00    -0.156 F 
ATOM     20  C   UNL     1      32.995  -5.529 -26.565  0.00  0.00    +0.500 C 
ENDBRANCH  12  20
BRANCH   8  21
ATOM     21  C   UNL     1      30.836 -11.111 -22.115  0.00  0.00    +0.065 C 
BRANCH  21  22
ATOM     22  C   UNL     1      31.710 -12.279 -21.654  0.00  0.00    -0.036 C 
BRANCH  22  23
ATOM     23  N   UNL     1      31.951 -12.103 -20.218  0.00  0.00    +0.383 N 
ATOM     24  H   UNL     1      31.869 -13.004 -19.746  0.00  0.00    -0.089 HD
ATOM     25  H   UNL     1      31.264 -11.455 -19.834  0.00  0.00    -0.089 HD
ATOM     26  H   UNL     1      32.889 -11.728 -20.074  0.00  0.00    -0.089 HD
ENDBRANCH  22  23
BRANCH  22  27
ATOM     27  C   UNL     1      33.064 -12.347 -22.376  0.00  0.00    +0.072 C 
BRANCH  27  31
ATOM     28  F   UNL     1      33.119 -16.090 -25.404  0.00  0.00    -0.202 F 
ATOM     29  F   UNL     1      35.038 -15.286 -24.774  0.00  0.00    -0.202 F 
ATOM     30  O   UNL     1      34.207 -14.097 -20.490  0.00  0.00    -0.275 OA
ATOM     31  N   UNL     1      33.486 -13.712 -22.664  0.00  0.00    -0.276 N 
ATOM     32  C   UNL     1      33.098 -14.235 -23.974  0.00  0.00    +0.160 C 
ATOM     33  C   UNL     1      33.772 -15.531 -24.356  0.00  0.00    +0.282 C 
ATOM     34  C   UNL     1      33.791 -16.498 -23.197  0.00  0.00    +0.078 C 
ATOM     35  C   UNL     1      34.531 -15.872 -22.033  0.00  0.00    +0.091 C 
ATOM     36  C   UNL     1      34.034 -14.492 -21.646  0.00  0.00    +0.226 C 
ENDBRANCH  27  31
ENDBRANCH  22  27
ENDBRANCH  21  22
ENDBRANCH   8  21
TORSDOF 7
ENDMDL
MODEL 9
REMARK VINA RESULT:      -9.6      5.242      7.674
REMARK  Name = 11953153
REMARK  7 active torsions:
REMARK  status: ('A' for Active; 'I' for Inactive)
REMARK    1  A    between atoms: C_8  and  C_21
REMARK    2  A    between atoms: C_11  and  C_16
REMARK    3  A    between atoms: C_12  and  C_20
REMARK    4  A    between atoms: C_21  and  C_22
REMARK    5  A    between atoms: C_22  and  N_23
REMARK    6  A    between atoms: C_22  and  C_27
REMARK    7  A    between atoms: C_27  and  N_31
REMARK                            x       y       z     vdW  Elec       q    Type
REMARK                         _______ _______ _______ _____ _____    ______ ____
ROOT
ATOM      1  O   UNL     1      36.166 -21.500 -18.825  0.00  0.00    -0.275 OA
ATOM      2  N   UNL     1      36.191 -21.796 -16.517  0.00  0.00    -0.273 N 
ATOM      3  N   UNL     1      35.448 -22.785 -13.003  0.00  0.00    -0.344 NA
ATOM      4  N   UNL     1      37.148 -24.293 -12.207  0.00  0.00    -0.337 NA
ATOM      5  C   UNL     1      37.644 -21.962 -16.457  0.00  0.00    +0.095 C 
ATOM      6  C   UNL     1      35.490 -21.797 -15.225  0.00  0.00    +0.149 C 
ATOM      7  C   UNL     1      38.009 -23.258 -15.741  0.00  0.00    +0.035 C 
ATOM      8  C   UNL     1      35.581 -21.501 -17.739  0.00  0.00    +0.224 C 
ATOM      9  C   UNL     1      37.306 -23.356 -14.424  0.00  0.00    +0.110 C 
ATOM     10  C   UNL     1      36.111 -22.687 -14.180  0.00  0.00    +0.125 C 
ATOM     11  C   UNL     1      37.770 -24.158 -13.395  0.00  0.00    +0.198 C 
ATOM     12  C   UNL     1      36.011 -23.587 -12.080  0.00  0.00    +0.210 C 
ENDROOT
BRANCH  11  16
ATOM     13  F   UNL     1      39.063 -25.690 -14.701  0.00  0.00    -0.164 F 
ATOM     14  F   UNL     1      40.156 -24.196 -13.571  0.00  0.00    -0.164 F 
ATOM     15  F   UNL     1      39.200 -25.854 -12.538  0.00  0.00    -0.164 F 
ATOM     16  C   UNL     1      39.023 -24.958 -13.550  0.00  0.00    +0.443 C 
ENDBRANCH  11  16
BRANCH  12  20
ATOM     17  F   UNL     1      35.003 -24.996 -10.431  0.00  0.00    -0.156 F 
ATOM     18  F   UNL     1      35.996 -23.204  -9.719  0.00  0.00    -0.156 F 
ATOM     19  F   UNL     1      34.099 -23.048 -10.773  0.00  0.00    -0.156 F 
ATOM     20  C   UNL     1      35.295 -23.707 -10.778  0.00  0.00    +0.500 C 
ENDBRANCH  12  20
BRANCH   8  21
ATOM     21  C   UNL     1      34.109 -21.175 -17.691  0.00  0.00    +0.065 C 
BRANCH  21  22
ATOM     22  C   UNL     1      33.258 -22.440 -17.812  0.00  0.00    -0.036 C 
BRANCH  22  23
ATOM     23  N   UNL     1      33.445 -22.963 -19.169  0.00  0.00    +0.383 N 
ATOM     24  H   UNL     1      32.634 -23.526 -19.431  0.00  0.00    -0.089 HD
ATOM     25  H   UNL     1      34.283 -23.542 -19.199  0.00  0.00    -0.089 HD
ATOM     26  H   UNL     1      33.546 -22.186 -19.823  0.00  0.00    -0.089 HD
ENDBRANCH  22  23
BRANCH  22  27
ATOM     27  C   UNL     1      31.760 -22.189 -17.582  0.00  0.00    +0.072 C 
BRANCH  27  31
ATOM     28  F   UNL     1      32.705 -24.489 -13.459  0.00  0.00    -0.202 F 
ATOM     29  F   UNL     1      32.019 -22.430 -13.321  0.00  0.00    -0.202 F 
ATOM     30  O   UNL     1      29.072 -22.181 -16.744  0.00  0.00    -0.275 OA
ATOM     31  N   UNL     1      31.299 -22.658 -16.282  0.00  0.00    -0.276 N 
ATOM     32  C   UNL     1      32.296 -23.348 -15.464  0.00  0.00    +0.160 C 
ATOM     33  C   UNL     1      31.880 -23.578 -14.030  0.00  0.00    +0.282 C 
ATOM     34  C   UNL     1      30.454 -24.064 -13.948  0.00  0.00    +0.078 C 
ATOM     35  C   UNL     1      29.536 -23.036 -14.578  0.00  0.00    +0.091 C 
ATOM     36  C   UNL     1      29.938 -22.614 -15.978  0.00  0.00    +0.226 C 
ENDBRANCH  27  31
ENDBRANCH  22  27
ENDBRANCH  21  22
ENDBRANCH   8  21
TORSDOF 7
ENDMDL
