MODEL 1
REMARK VINA RESULT:     -13.6      0.000      0.000
REMARK  Name = 60870
REMARK  7 active torsions:
REMARK  status: ('A' for Active; 'I' for Inactive)
REMARK    1  A    between atoms: C_2  and  C_4
REMARK    2  A    between atoms: C_2  and  C_18
REMARK    3  A    between atoms: C_3  and  C_9
REMARK    4  A    between atoms: C_9  and  C_14
REMARK    5  A    between atoms: C_18  and  C_19
REMARK    6  A    between atoms: C_19  and  C_22
REMARK    7  A    between atoms: C_24  and  C_26
REMARK                            x       y       z     vdW  Elec       q    Type
REMARK                         _______ _______ _______ _____ _____    ______ ____
ROOT
ATOM      1  O   UNL     1      34.200 -14.458 -20.597  0.00  0.00    -0.291 OA
ATOM      2  C   UNL     1      33.689 -14.125 -21.687  0.00  0.00    +0.173 C 
ENDROOT
BRANCH   2   4
ATOM      3  C   UNL     1      31.437 -10.562 -22.023  0.00  0.00    -0.021 C 
ATOM      4  C   UNL     1      32.915 -12.898 -21.802  0.00  0.00    +0.035 C 
ATOM      5  C   UNL     1      31.226 -11.402 -20.940  0.00  0.00    -0.004 C 
ATOM      6  C   UNL     1      32.375 -10.870 -22.998  0.00  0.00    -0.004 C 
ATOM      7  C   UNL     1      31.970 -12.577 -20.829  0.00  0.00    +0.003 C 
ATOM      8  C   UNL     1      33.119 -12.045 -22.886  0.00  0.00    +0.003 C 
BRANCH   3   9
ATOM      9  C   UNL     1      30.635  -9.292 -22.143  0.00  0.00    +0.047 C 
BRANCH   9  14
ATOM     10  S   UNL     1      32.000  -7.395 -20.685  0.00  0.00    -0.048 S 
ATOM     11  O   UNL     1      30.303  -7.072 -24.136  0.00  0.00    -0.274 OA
ATOM     12  O   UNL     1      31.427  -4.870 -20.235  0.00  0.00    -0.263 OA
ATOM     13  N   UNL     1      30.790  -5.798 -22.269  0.00  0.00    -0.246 N 
ATOM     14  C   UNL     1      31.525  -8.072 -22.305  0.00  0.00    +0.137 C 
ATOM     15  C   UNL     1      30.803  -6.953 -23.023  0.00  0.00    +0.239 C 
ATOM     16  C   UNL     1      31.359  -5.801 -21.022  0.00  0.00    +0.279 C 
ATOM     17  H   UNL     1      30.375  -4.979 -22.622  0.00  0.00    +0.158 HD
ENDBRANCH   9  14
ENDBRANCH   3   9
ENDBRANCH   2   4
BRANCH   2  18
ATOM     18  C   UNL     1      33.888 -15.028 -22.919  0.00  0.00    +0.076 C 
BRANCH  18  19
ATOM     19  C   UNL     1      35.041 -16.024 -22.766  0.00  0.00    +0.066 C 
BRANCH  19  22
ATOM     20  O   UNL     1      33.683 -19.392 -22.387  0.00  0.00    -0.449 OA
ATOM     21  N   UNL     1      34.776 -17.860 -21.131  0.00  0.00    -0.373 NA
ATOM     22  C   UNL     1      34.563 -17.394 -22.387  0.00  0.00    +0.130 C 
ATOM     23  C   UNL     1      33.910 -18.293 -23.160  0.00  0.00    +0.216 C 
ATOM     24  C   UNL     1      34.230 -19.055 -21.188  0.00  0.00    +0.277 C 
ATOM     25  C   UNL     1      33.428 -18.342 -24.545  0.00  0.00    +0.055 C 
BRANCH  24  26
ATOM     26  C   UNL     1      34.129 -20.059 -20.165  0.00  0.00    +0.066 C 
ATOM     27  C   UNL     1      32.875 -20.509 -19.742  0.00  0.00    +0.006 C 
ATOM     28  C   UNL     1      35.285 -20.591 -19.586  0.00  0.00    +0.006 C 
ATOM     29  C   UNL     1      32.777 -21.483 -18.748  0.00  0.00    +0.000 C 
ATOM     30  C   UNL     1      35.187 -21.565 -18.592  0.00  0.00    +0.000 C 
ATOM     31  C   UNL     1      33.933 -22.011 -18.173  0.00  0.00    +0.000 C 
ENDBRANCH  24  26
ENDBRANCH  19  22
ENDBRANCH  18  19
ENDBRANCH   2  18
TORSDOF 7
ENDMDL
MODEL 2
REMARK VINA RESULT:     -13.4      4.544     11.390
REMARK  Name = 60870
REMARK  7 active torsions:
REMARK  status: ('A' for Active; 'I' for Inactive)
REMARK    1  A    between atoms: C_2  and  C_4
REMARK    2  A    between atoms: C_2  and  C_18
REMARK    3  A    between atoms: C_3  and  C_9
REMARK    4  A    between atoms: C_9  and  C_14
REMARK    5  A    between atoms: C_18  and  C_19
REMARK    6  A    between atoms: C_19  and  C_22
REMARK    7  A    between atoms: C_24  and  C_26
REMARK                            x       y       z     vdW  Elec       q    Type
REMARK                         _______ _______ _______ _____ _____    ______ ____
ROOT
ATOM      1  O   UNL     1      34.301 -19.175 -22.619  0.00  0.00    -0.291 OA
ATOM      2  C   UNL     1      34.307 -18.925 -21.396  0.00  0.00    +0.173 C 
ENDROOT
BRANCH   2   4
ATOM      3  C   UNL     1      33.371 -21.926 -18.568  0.00  0.00    -0.021 C 
ATOM      4  C   UNL     1      33.985 -19.959 -20.423  0.00  0.00    +0.035 C 
ATOM      5  C   UNL     1      32.349 -21.176 -19.129  0.00  0.00    -0.004 C 
ATOM      6  C   UNL     1      34.695 -21.709 -18.918  0.00  0.00    -0.004 C 
ATOM      7  C   UNL     1      32.657 -20.187 -20.063  0.00  0.00    +0.003 C 
ATOM      8  C   UNL     1      35.004 -20.719 -19.852  0.00  0.00    +0.003 C 
BRANCH   3   9
ATOM      9  C   UNL     1      33.038 -22.996 -17.560  0.00  0.00    +0.047 C 
BRANCH   9  14
ATOM     10  S   UNL     1      33.534 -23.167 -14.856  0.00  0.00    -0.048 S 
ATOM     11  O   UNL     1      30.239 -22.348 -16.692  0.00  0.00    -0.274 OA
ATOM     12  O   UNL     1      32.117 -24.283 -12.943  0.00  0.00    -0.263 OA
ATOM     13  N   UNL     1      30.988 -23.348 -14.746  0.00  0.00    -0.246 N 
ATOM     14  C   UNL     1      32.610 -22.407 -16.227  0.00  0.00    +0.137 C 
ATOM     15  C   UNL     1      31.151 -22.683 -15.944  0.00  0.00    +0.239 C 
ATOM     16  C   UNL     1      32.092 -23.695 -14.013  0.00  0.00    +0.279 C 
ATOM     17  H   UNL     1      30.087 -23.571 -14.421  0.00  0.00    +0.158 HD
ENDBRANCH   9  14
ENDBRANCH   3   9
ENDBRANCH   2   4
BRANCH   2  18
ATOM     18  C   UNL     1      34.663 -17.504 -20.919  0.00  0.00    +0.076 C 
BRANCH  18  19
ATOM     19  C   UNL     1      35.306 -16.639 -22.006  0.00  0.00    +0.066 C 
BRANCH  19  22
ATOM     20  O   UNL     1      33.016 -14.351 -23.697  0.00  0.00    -0.449 OA
ATOM     21  N   UNL     1      34.087 -14.507 -21.711  0.00  0.00    -0.373 NA
ATOM     22  C   UNL     1      34.380 -15.569 -22.503  0.00  0.00    +0.130 C 
ATOM     23  C   UNL     1      33.750 -15.499 -23.700  0.00  0.00    +0.216 C 
ATOM     24  C   UNL     1      33.272 -13.813 -22.474  0.00  0.00    +0.277 C 
ATOM     25  C   UNL     1      33.688 -16.328 -24.909  0.00  0.00    +0.055 C 
BRANCH  24  26
ATOM     26  C   UNL     1      32.608 -12.569 -22.202  0.00  0.00    +0.066 C 
ATOM     27  C   UNL     1      32.689 -11.513 -23.114  0.00  0.00    +0.006 C 
ATOM     28  C   UNL     1      31.878 -12.405 -21.020  0.00  0.00    +0.006 C 
ATOM     29  C   UNL     1      32.045 -10.304 -22.849  0.00  0.00    +0.000 C 
ATOM     30  C   UNL     1      31.234 -11.196 -20.755  0.00  0.00    +0.000 C 
ATOM     31  C   UNL     1      31.318 -10.146 -21.670  0.00  0.00    +0.000 C 
ENDBRANCH  24  26
ENDBRANCH  19  22
ENDBRANCH  18  19
ENDBRANCH   2  18
TORSDOF 7
ENDMDL
MODEL 3
REMARK VINA RESULT:     -13.2      5.790     12.802
REMARK  Name = 60870
REMARK  7 active torsions:
REMARK  status: ('A' for Active; 'I' for Inactive)
REMARK    1  A    between atoms: C_2  and  C_4
REMARK    2  A    between atoms: C_2  and  C_18
REMARK    3  A    between atoms: C_3  and  C_9
REMARK    4  A    between atoms: C_9  and  C_14
REMARK    5  A    between atoms: C_18  and  C_19
REMARK    6  A    between atoms: C_19  and  C_22
REMARK    7  A    between atoms: C_24  and  C_26
REMARK                            x       y       z     vdW  Elec       q    Type
REMARK                         _______ _______ _______ _____ _____    ______ ____
ROOT
ATOM      1  O   UNL     1      33.083 -20.911 -19.576  0.00  0.00    -0.291 OA
ATOM      2  C   UNL     1      34.324 -20.969 -19.455  0.00  0.00    +0.173 C 
ENDROOT
BRANCH   2   4
ATOM      3  C   UNL     1      36.087 -22.175 -15.806  0.00  0.00    -0.021 C 
ATOM      4  C   UNL     1      34.931 -21.385 -18.200  0.00  0.00    +0.035 C 
ATOM      5  C   UNL     1      34.774 -22.527 -16.077  0.00  0.00    -0.004 C 
ATOM      6  C   UNL     1      36.833 -21.435 -16.712  0.00  0.00    -0.004 C 
ATOM      7  C   UNL     1      34.192 -22.130 -17.282  0.00  0.00    +0.003 C 
ATOM      8  C   UNL     1      36.252 -21.038 -17.916  0.00  0.00    +0.003 C 
BRANCH   3   9
ATOM      9  C   UNL     1      36.716 -22.605 -14.506  0.00  0.00    +0.047 C 
BRANCH   9  14
ATOM     10  S   UNL     1      35.723 -24.803 -13.175  0.00  0.00    -0.048 S 
ATOM     11  O   UNL     1      39.273 -24.175 -14.553  0.00  0.00    -0.274 OA
ATOM     12  O   UNL     1      36.790 -26.242 -11.252  0.00  0.00    -0.263 OA
ATOM     13  N   UNL     1      38.206 -25.292 -12.832  0.00  0.00    -0.246 N 
ATOM     14  C   UNL     1      36.861 -24.114 -14.417  0.00  0.00    +0.137 C 
ATOM     15  C   UNL     1      38.249 -24.510 -13.968  0.00  0.00    +0.239 C 
ATOM     16  C   UNL     1      36.996 -25.573 -12.253  0.00  0.00    +0.279 C 
ATOM     17  H   UNL     1      39.037 -25.645 -12.440  0.00  0.00    +0.158 HD
ENDBRANCH   9  14
ENDBRANCH   3   9
ENDBRANCH   2   4
BRANCH   2  18
ATOM     18  C   UNL     1      35.216 -20.597 -20.655  0.00  0.00    +0.076 C 
BRANCH  18  19
ATOM     19  C   UNL     1      35.897 -19.233 -20.510  0.00  0.00    +0.066 C 
BRANCH  19  22
ATOM     20  O   UNL     1      34.197 -17.056 -22.898  0.00  0.00    -0.449 OA
ATOM     21  N   UNL     1      35.067 -16.923 -20.814  0.00  0.00    -0.373 NA
ATOM     22  C   UNL     1      35.221 -18.171 -21.325  0.00  0.00    +0.130 C 
ATOM     23  C   UNL     1      34.708 -18.276 -22.573  0.00  0.00    +0.216 C 
ATOM     24  C   UNL     1      34.452 -16.301 -21.795  0.00  0.00    +0.277 C 
ATOM     25  C   UNL     1      34.589 -19.338 -23.579  0.00  0.00    +0.055 C 
BRANCH  24  26
ATOM     26  C   UNL     1      34.006 -14.937 -21.870  0.00  0.00    +0.066 C 
ATOM     27  C   UNL     1      34.016 -14.260 -23.093  0.00  0.00    +0.006 C 
ATOM     28  C   UNL     1      33.562 -14.278 -20.720  0.00  0.00    +0.006 C 
ATOM     29  C   UNL     1      33.584 -12.935 -23.166  0.00  0.00    +0.000 C 
ATOM     30  C   UNL     1      33.131 -12.953 -20.793  0.00  0.00    +0.000 C 
ATOM     31  C   UNL     1      33.142 -12.282 -22.016  0.00  0.00    +0.000 C 
ENDBRANCH  24  26
ENDBRANCH  19  22
ENDBRANCH  18  19
ENDBRANCH   2  18
TORSDOF 7
ENDMDL
MODEL 4
REMARK VINA RESULT:     -13.1      5.864      9.899
REMARK  Name = 60870
REMARK  7 active torsions:
REMARK  status: ('A' for Active; 'I' for Inactive)
REMARK    1  A    between atoms: C_2  and  C_4
REMARK    2  A    between atoms: C_2  and  C_18
REMARK    3  A    between atoms: C_3  and  C_9
REMARK    4  A    between atoms: C_9  and  C_14
REMARK    5  A    between atoms: C_18  and  C_19
REMARK    6  A    between atoms: C_19  and  C_22
REMARK    7  A    between atoms: C_24  and  C_26
REMARK                            x       y       z     vdW  Elec       q    Type
REMARK                         _______ _______ _______ _____ _____    ______ ____
ROOT
ATOM      1  O   UNL     1      33.074 -23.777 -18.004  0.00  0.00    -0.291 OA
ATOM      2  C   UNL     1      32.843 -22.556 -17.886  0.00  0.00    +0.173 C 
ENDROOT
BRANCH   2   4
ATOM      3  C   UNL     1      34.524 -19.769 -20.586  0.00  0.00    -0.021 C 
ATOM      4  C   UNL     1      33.422 -21.596 -18.814  0.00  0.00    +0.035 C 
ATOM      5  C   UNL     1      33.145 -19.849 -20.459  0.00  0.00    -0.004 C 
ATOM      6  C   UNL     1      35.361 -20.587 -19.842  0.00  0.00    -0.004 C 
ATOM      7  C   UNL     1      32.591 -20.768 -19.567  0.00  0.00    +0.003 C 
ATOM      8  C   UNL     1      34.806 -21.506 -18.950  0.00  0.00    +0.003 C 
BRANCH   3   9
ATOM      9  C   UNL     1      35.123 -18.776 -21.548  0.00  0.00    +0.047 C 
BRANCH   9  14
ATOM     10  S   UNL     1      33.991 -17.843 -23.879  0.00  0.00    -0.048 S 
ATOM     11  O   UNL     1      34.654 -15.979 -20.565  0.00  0.00    -0.274 OA
ATOM     12  O   UNL     1      34.371 -15.578 -25.158  0.00  0.00    -0.263 OA
ATOM     13  N   UNL     1      34.543 -15.576 -22.840  0.00  0.00    -0.246 N 
ATOM     14  C   UNL     1      34.089 -17.790 -22.063  0.00  0.00    +0.137 C 
ATOM     15  C   UNL     1      34.460 -16.366 -21.712  0.00  0.00    +0.239 C 
ATOM     16  C   UNL     1      34.332 -16.137 -24.072  0.00  0.00    +0.279 C 
ATOM     17  H   UNL     1      34.752 -14.618 -22.760  0.00  0.00    +0.158 HD
ENDBRANCH   9  14
ENDBRANCH   3   9
ENDBRANCH   2   4
BRANCH   2  18
ATOM     18  C   UNL     1      31.933 -22.068 -16.743  0.00  0.00    +0.076 C 
BRANCH  18  19
ATOM     19  C   UNL     1      31.275 -23.207 -15.958  0.00  0.00    +0.066 C 
BRANCH  19  22
ATOM     20  O   UNL     1      32.615 -24.222 -12.717  0.00  0.00    -0.449 OA
ATOM     21  N   UNL     1      33.373 -23.335 -14.655  0.00  0.00    -0.373 NA
ATOM     22  C   UNL     1      32.035 -23.553 -14.712  0.00  0.00    +0.130 C 
ATOM     23  C   UNL     1      31.556 -24.084 -13.563  0.00  0.00    +0.216 C 
ATOM     24  C   UNL     1      33.665 -23.751 -13.443  0.00  0.00    +0.277 C 
ATOM     25  C   UNL     1      30.245 -24.514 -13.066  0.00  0.00    +0.055 C 
BRANCH  24  26
ATOM     26  C   UNL     1      34.936 -23.784 -12.773  0.00  0.00    +0.066 C 
ATOM     27  C   UNL     1      35.064 -23.264 -11.481  0.00  0.00    +0.006 C 
ATOM     28  C   UNL     1      36.053 -24.334 -13.409  0.00  0.00    +0.006 C 
ATOM     29  C   UNL     1      36.298 -23.294 -10.831  0.00  0.00    +0.000 C 
ATOM     30  C   UNL     1      37.287 -24.364 -12.759  0.00  0.00    +0.000 C 
ATOM     31  C   UNL     1      37.409 -23.844 -11.471  0.00  0.00    +0.000 C 
ENDBRANCH  24  26
ENDBRANCH  19  22
ENDBRANCH  18  19
ENDBRANCH   2  18
TORSDOF 7
ENDMDL
MODEL 5
REMARK VINA RESULT:     -13.0      3.516     11.109
REMARK  Name = 60870
REMARK  7 active torsions:
REMARK  status: ('A' for Active; 'I' for Inactive)
REMARK    1  A    between atoms: C_2  and  C_4
REMARK    2  A    between atoms: C_2  and  C_18
REMARK    3  A    between atoms: C_3  and  C_9
REMARK    4  A    between atoms: C_9  and  C_14
REMARK    5  A    between atoms: C_18  and  C_19
REMARK    6  A    between atoms: C_19  and  C_22
REMARK    7  A    between atoms: C_24  and  C_26
REMARK                            x       y       z     vdW  Elec       q    Type
REMARK                         _______ _______ _______ _____ _____    ______ ____
ROOT
ATOM      1  O   UNL     1      33.907 -15.247 -25.206  0.00  0.00    -0.291 OA
ATOM      2  C   UNL     1      33.942 -15.273 -23.959  0.00  0.00    +0.173 C 
ENDROOT
BRANCH   2   4
ATOM      3  C   UNL     1      34.549 -18.909 -21.888  0.00  0.00    -0.021 C 
ATOM      4  C   UNL     1      34.150 -16.524 -23.246  0.00  0.00    +0.035 C 
ATOM      5  C   UNL     1      34.889 -17.712 -21.277  0.00  0.00    -0.004 C 
ATOM      6  C   UNL     1      34.013 -18.934 -23.167  0.00  0.00    -0.004 C 
ATOM      7  C   UNL     1      34.688 -16.512 -21.960  0.00  0.00    +0.003 C 
ATOM      8  C   UNL     1      33.812 -17.734 -23.850  0.00  0.00    +0.003 C 
BRANCH   3   9
ATOM      9  C   UNL     1      34.765 -20.205 -21.150  0.00  0.00    +0.047 C 
BRANCH   9  14
ATOM     10  S   UNL     1      34.964 -21.341 -18.649  0.00  0.00    -0.048 S 
ATOM     11  O   UNL     1      31.826 -20.134 -20.546  0.00  0.00    -0.274 OA
ATOM     12  O   UNL     1      33.486 -23.191 -17.508  0.00  0.00    -0.263 OA
ATOM     13  N   UNL     1      32.464 -21.733 -19.002  0.00  0.00    -0.246 N 
ATOM     14  C   UNL     1      34.117 -20.191 -19.777  0.00  0.00    +0.137 C 
ATOM     15  C   UNL     1      32.680 -20.659 -19.839  0.00  0.00    +0.239 C 
ATOM     16  C   UNL     1      33.512 -22.248 -18.284  0.00  0.00    +0.279 C 
ATOM     17  H   UNL     1      31.566 -22.127 -18.921  0.00  0.00    +0.158 HD
ENDBRANCH   9  14
ENDBRANCH   3   9
ENDBRANCH   2   4
BRANCH   2  18
ATOM     18  C   UNL     1      33.766 -13.960 -23.173  0.00  0.00    +0.076 C 
BRANCH  18  19
ATOM     19  C   UNL     1      32.737 -13.010 -23.793  0.00  0.00    +0.066 C 
BRANCH  19  22
ATOM     20  O   UNL     1      31.588 -10.879 -21.059  0.00  0.00    -0.449 OA
ATOM     21  N   UNL     1      32.180 -10.667 -23.232  0.00  0.00    -0.373 NA
ATOM     22  C   UNL     1      32.280 -11.958 -22.827  0.00  0.00    +0.130 C 
ATOM     23  C   UNL     1      31.930 -12.112 -21.528  0.00  0.00    +0.216 C 
ATOM     24  C   UNL     1      31.763 -10.069 -22.138  0.00  0.00    +0.277 C 
ATOM     25  C   UNL     1      31.846 -13.232 -20.584  0.00  0.00    +0.055 C 
BRANCH  24  26
ATOM     26  C   UNL     1      31.465  -8.681 -21.915  0.00  0.00    +0.066 C 
ATOM     27  C   UNL     1      30.845  -7.925 -22.913  0.00  0.00    +0.006 C 
ATOM     28  C   UNL     1      31.797  -8.078 -20.698  0.00  0.00    +0.006 C 
ATOM     29  C   UNL     1      30.557  -6.577 -22.697  0.00  0.00    +0.000 C 
ATOM     30  C   UNL     1      31.510  -6.730 -20.482  0.00  0.00    +0.000 C 
ATOM     31  C   UNL     1      30.890  -5.980 -21.482  0.00  0.00    +0.000 C 
ENDBRANCH  24  26
ENDBRANCH  19  22
ENDBRANCH  18  19
ENDBRANCH   2  18
TORSDOF 7
ENDMDL
MODEL 6
REMARK VINA RESULT:     -12.8      4.400      8.133
REMARK  Name = 60870
REMARK  7 active torsions:
REMARK  status: ('A' for Active; 'I' for Inactive)
REMARK    1  A    between atoms: C_2  and  C_4
REMARK    2  A    between atoms: C_2  and  C_18
REMARK    3  A    between atoms: C_3  and  C_9
REMARK    4  A    between atoms: C_9  and  C_14
REMARK    5  A    between atoms: C_18  and  C_19
REMARK    6  A    between atoms: C_19  and  C_22
REMARK    7  A    between atoms: C_24  and  C_26
REMARK                            x       y       z     vdW  Elec       q    Type
REMARK                         _______ _______ _______ _____ _____    ______ ____
ROOT
ATOM      1  O   UNL     1      36.070 -21.356 -18.271  0.00  0.00    -0.291 OA
ATOM      2  C   UNL     1      35.145 -21.204 -19.095  0.00  0.00    +0.173 C 
ENDROOT
BRANCH   2   4
ATOM      3  C   UNL     1      35.165 -17.951 -21.795  0.00  0.00    -0.021 C 
ATOM      4  C   UNL     1      35.152 -20.084 -20.024  0.00  0.00    +0.035 C 
ATOM      5  C   UNL     1      33.990 -18.659 -21.591  0.00  0.00    -0.004 C 
ATOM      6  C   UNL     1      36.333 -18.290 -21.129  0.00  0.00    -0.004 C 
ATOM      7  C   UNL     1      33.984 -19.733 -20.699  0.00  0.00    +0.003 C 
ATOM      8  C   UNL     1      36.326 -19.364 -20.238  0.00  0.00    +0.003 C 
BRANCH   3   9
ATOM      9  C   UNL     1      35.172 -16.791 -22.758  0.00  0.00    +0.047 C 
BRANCH   9  14
ATOM     10  S   UNL     1      33.502 -15.252 -24.317  0.00  0.00    -0.048 S 
ATOM     11  O   UNL     1      34.268 -14.978 -20.544  0.00  0.00    -0.274 OA
ATOM     12  O   UNL     1      33.167 -12.645 -24.375  0.00  0.00    -0.263 OA
ATOM     13  N   UNL     1      33.706 -13.641 -22.345  0.00  0.00    -0.246 N 
ATOM     14  C   UNL     1      33.878 -15.997 -22.700  0.00  0.00    +0.137 C 
ATOM     15  C   UNL     1      33.981 -14.843 -21.728  0.00  0.00    +0.239 C 
ATOM     16  C   UNL     1      33.426 -13.620 -23.686  0.00  0.00    +0.279 C 
ATOM     17  H   UNL     1      33.710 -12.804 -21.826  0.00  0.00    +0.158 HD
ENDBRANCH   9  14
ENDBRANCH   3   9
ENDBRANCH   2   4
BRANCH   2  18
ATOM     18  C   UNL     1      33.988 -22.222 -19.125  0.00  0.00    +0.076 C 
BRANCH  18  19
ATOM     19  C   UNL     1      32.889 -21.927 -18.101  0.00  0.00    +0.066 C 
BRANCH  19  22
ATOM     20  O   UNL     1      32.828 -23.652 -14.883  0.00  0.00    -0.449 OA
ATOM     21  N   UNL     1      34.327 -23.145 -16.499  0.00  0.00    -0.373 NA
ATOM     22  C   UNL     1      33.096 -22.672 -16.815  0.00  0.00    +0.130 C 
ATOM     23  C   UNL     1      32.179 -22.963 -15.863  0.00  0.00    +0.216 C 
ATOM     24  C   UNL     1      34.109 -23.719 -15.337  0.00  0.00    +0.277 C 
ATOM     25  C   UNL     1      30.745 -22.718 -15.668  0.00  0.00    +0.055 C 
BRANCH  24  26
ATOM     26  C   UNL     1      35.027 -24.410 -14.475  0.00  0.00    +0.066 C 
ATOM     27  C   UNL     1      35.210 -23.987 -13.156  0.00  0.00    +0.006 C 
ATOM     28  C   UNL     1      35.747 -25.510 -14.953  0.00  0.00    +0.006 C 
ATOM     29  C   UNL     1      36.103 -24.658 -12.320  0.00  0.00    +0.000 C 
ATOM     30  C   UNL     1      36.640 -26.181 -14.117  0.00  0.00    +0.000 C 
ATOM     31  C   UNL     1      36.818 -25.755 -12.801  0.00  0.00    +0.000 C 
ENDBRANCH  24  26
ENDBRANCH  19  22
ENDBRANCH  18  19
ENDBRANCH   2  18
TORSDOF 7
ENDMDL
MODEL 7
REMARK VINA RESULT:     -12.5      2.841      5.250
REMARK  Name = 60870
REMARK  7 active torsions:
REMARK  status: ('A' for Active; 'I' for Inactive)
REMARK    1  A    between atoms: C_2  and  C_4
REMARK    2  A    between atoms: C_2  and  C_18
REMARK    3  A    between atoms: C_3  and  C_9
REMARK    4  A    between atoms: C_9  and  C_14
REMARK    5  A    between atoms: C_18  and  C_19
REMARK    6  A    between atoms: C_19  and  C_22
REMARK    7  A    between atoms: C_24  and  C_26
REMARK                            x       y       z     vdW  Elec       q    Type
REMARK                         _______ _______ _______ _____ _____    ______ ____
ROOT
ATOM      1  O   UNL     1      34.582 -19.376 -23.302  0.00  0.00    -0.291 OA
ATOM      2  C   UNL     1      34.481 -18.739 -22.233  0.00  0.00    +0.173 C 
ENDROOT
BRANCH   2   4
ATOM      3  C   UNL     1      34.049 -14.533 -22.257  0.00  0.00    -0.021 C 
ATOM      4  C   UNL     1      34.331 -17.292 -22.241  0.00  0.00    +0.035 C 
ATOM      5  C   UNL     1      34.005 -15.229 -23.455  0.00  0.00    -0.004 C 
ATOM      6  C   UNL     1      34.232 -15.193 -21.051  0.00  0.00    -0.004 C 
ATOM      7  C   UNL     1      34.146 -16.618 -23.448  0.00  0.00    +0.003 C 
ATOM      8  C   UNL     1      34.374 -16.581 -21.043  0.00  0.00    +0.003 C 
BRANCH   3   9
ATOM      9  C   UNL     1      33.895 -13.034 -22.265  0.00  0.00    +0.047 C 
BRANCH   9  14
ATOM     10  S   UNL     1      32.370 -11.019 -23.362  0.00  0.00    -0.048 S 
ATOM     11  O   UNL     1      31.627 -13.265 -20.313  0.00  0.00    -0.274 OA
ATOM     12  O   UNL     1      31.019  -9.091 -22.193  0.00  0.00    -0.263 OA
ATOM     13  N   UNL     1      31.203 -11.130 -21.093  0.00  0.00    -0.246 N 
ATOM     14  C   UNL     1      32.453 -12.613 -22.489  0.00  0.00    +0.137 C 
ATOM     15  C   UNL     1      31.729 -12.402 -21.178  0.00  0.00    +0.239 C 
ATOM     16  C   UNL     1      31.412 -10.245 -22.118  0.00  0.00    +0.279 C 
ATOM     17  H   UNL     1      30.683 -10.860 -20.303  0.00  0.00    +0.158 HD
ENDBRANCH   9  14
ENDBRANCH   3   9
ENDBRANCH   2   4
BRANCH   2  18
ATOM     18  C   UNL     1      34.514 -19.502 -20.895  0.00  0.00    +0.076 C 
BRANCH  18  19
ATOM     19  C   UNL     1      33.175 -20.147 -20.527  0.00  0.00    +0.066 C 
BRANCH  19  22
ATOM     20  O   UNL     1      33.969 -22.170 -17.593  0.00  0.00    -0.449 OA
ATOM     21  N   UNL     1      32.141 -21.294 -18.595  0.00  0.00    -0.373 NA
ATOM     22  C   UNL     1      33.268 -20.978 -19.281  0.00  0.00    +0.130 C 
ATOM     23  C   UNL     1      34.378 -21.491 -18.701  0.00  0.00    +0.216 C 
ATOM     24  C   UNL     1      32.619 -22.006 -17.599  0.00  0.00    +0.277 C 
ATOM     25  C   UNL     1      35.817 -21.477 -18.982  0.00  0.00    +0.055 C 
BRANCH  24  26
ATOM     26  C   UNL     1      31.921 -22.636 -16.513  0.00  0.00    +0.066 C 
ATOM     27  C   UNL     1      30.538 -22.827 -16.580  0.00  0.00    +0.006 C 
ATOM     28  C   UNL     1      32.621 -23.060 -15.379  0.00  0.00    +0.006 C 
ATOM     29  C   UNL     1      29.860 -23.437 -15.524  0.00  0.00    +0.000 C 
ATOM     30  C   UNL     1      31.944 -23.671 -14.323  0.00  0.00    +0.000 C 
ATOM     31  C   UNL     1      30.564 -23.859 -14.396  0.00  0.00    +0.000 C 
ENDBRANCH  24  26
ENDBRANCH  19  22
ENDBRANCH  18  19
ENDBRANCH   2  18
TORSDOF 7
ENDMDL
MODEL 8
REMARK VINA RESULT:     -12.5      7.502     13.589
REMARK  Name = 60870
REMARK  7 active torsions:
REMARK  status: ('A' for Active; 'I' for Inactive)
REMARK    1  A    between atoms: C_2  and  C_4
REMARK    2  A    between atoms: C_2  and  C_18
REMARK    3  A    between atoms: C_3  and  C_9
REMARK    4  A    between atoms: C_9  and  C_14
REMARK    5  A    between atoms: C_18  and  C_19
REMARK    6  A    between atoms: C_19  and  C_22
REMARK    7  A    between atoms: C_24  and  C_26
REMARK                            x       y       z     vdW  Elec       q    Type
REMARK                         _______ _______ _______ _____ _____    ______ ____
ROOT
ATOM      1  O   UNL     1      30.987 -23.518 -16.215  0.00  0.00    -0.291 OA
ATOM      2  C   UNL     1      32.040 -22.862 -16.346  0.00  0.00    +0.173 C 
ENDROOT
BRANCH   2   4
ATOM      3  C   UNL     1      35.125 -23.122 -13.467  0.00  0.00    -0.021 C 
ATOM      4  C   UNL     1      33.101 -22.951 -15.355  0.00  0.00    +0.035 C 
ATOM      5  C   UNL     1      35.344 -22.413 -14.638  0.00  0.00    -0.004 C 
ATOM      6  C   UNL     1      33.911 -23.747 -13.223  0.00  0.00    -0.004 C 
ATOM      7  C   UNL     1      34.326 -22.326 -15.588  0.00  0.00    +0.003 C 
ATOM      8  C   UNL     1      32.893 -23.661 -14.173  0.00  0.00    +0.003 C 
BRANCH   3   9
ATOM      9  C   UNL     1      36.225 -23.215 -12.440  0.00  0.00    +0.047 C 
BRANCH   9  14
ATOM     10  S   UNL     1      37.406 -24.522 -14.558  0.00  0.00    -0.048 S 
ATOM     11  O   UNL     1      36.430 -25.882 -11.080  0.00  0.00    -0.274 OA
ATOM     12  O   UNL     1      36.924 -26.906 -15.556  0.00  0.00    -0.263 OA
ATOM     13  N   UNL     1      36.631 -26.589 -13.272  0.00  0.00    -0.246 N 
ATOM     14  C   UNL     1      37.208 -24.327 -12.760  0.00  0.00    +0.137 C 
ATOM     15  C   UNL     1      36.713 -25.664 -12.253  0.00  0.00    +0.239 C 
ATOM     16  C   UNL     1      36.948 -26.212 -14.551  0.00  0.00    +0.279 C 
ATOM     17  H   UNL     1      36.347 -27.512 -13.084  0.00  0.00    +0.158 HD
ENDBRANCH   9  14
ENDBRANCH   3   9
ENDBRANCH   2   4
BRANCH   2  18
ATOM     18  C   UNL     1      32.211 -21.951 -17.577  0.00  0.00    +0.076 C 
BRANCH  18  19
ATOM     19  C   UNL     1      33.259 -22.459 -18.572  0.00  0.00    +0.066 C 
BRANCH  19  22
ATOM     20  O   UNL     1      35.511 -19.866 -19.812  0.00  0.00    -0.449 OA
ATOM     21  N   UNL     1      33.423 -20.629 -20.228  0.00  0.00    -0.373 NA
ATOM     22  C   UNL     1      34.008 -21.338 -19.230  0.00  0.00    +0.130 C 
ATOM     23  C   UNL     1      35.260 -20.901 -18.962  0.00  0.00    +0.216 C 
ATOM     24  C   UNL     1      34.364 -19.765 -20.537  0.00  0.00    +0.277 C 
ATOM     25  C   UNL     1      36.329 -21.269 -18.026  0.00  0.00    +0.055 C 
BRANCH  24  26
ATOM     26  C   UNL     1      34.357 -18.728 -21.531  0.00  0.00    +0.066 C 
ATOM     27  C   UNL     1      34.868 -17.462 -21.232  0.00  0.00    +0.006 C 
ATOM     28  C   UNL     1      33.838 -18.979 -22.805  0.00  0.00    +0.006 C 
ATOM     29  C   UNL     1      34.860 -16.455 -22.197  0.00  0.00    +0.000 C 
ATOM     30  C   UNL     1      33.830 -17.972 -23.770  0.00  0.00    +0.000 C 
ATOM     31  C   UNL     1      34.341 -16.710 -23.466  0.00  0.00    +0.000 C 
ENDBRANCH  24  26
ENDBRANCH  19  22
ENDBRANCH  18  19
ENDBRANCH   2  18
TORSDOF 7
ENDMDL
MODEL 9
REMARK VINA RESULT:     -12.5      5.421     11.755
REMARK  Name = 60870
REMARK  7 active torsions:
REMARK  status: ('A' for Active; 'I' for Inactive)
REMARK    1  A    between atoms: C_2  and  C_4
REMARK    2  A    between atoms: C_2  and  C_18
REMARK    3  A    between atoms: C_3  and  C_9
REMARK    4  A    between atoms: C_9  and  C_14
REMARK    5  A    between atoms: C_18  and  C_19
REMARK    6  A    between atoms: C_19  and  C_22
REMARK    7  A    between atoms: C_24  and  C_26
REMARK                            x       y       z     vdW  Elec       q    Type
REMARK                         _______ _______ _______ _____ _____    ______ ____
ROOT
ATOM      1  O   UNL     1      36.571 -21.400 -18.389  0.00  0.00    -0.291 OA
ATOM      2  C   UNL     1      35.358 -21.277 -18.655  0.00  0.00    +0.173 C 
ENDROOT
BRANCH   2   4
ATOM      3  C   UNL     1      32.405 -22.802 -16.042  0.00  0.00    -0.021 C 
ATOM      4  C   UNL     1      34.342 -21.801 -17.756  0.00  0.00    +0.035 C 
ATOM      5  C   UNL     1      33.708 -22.658 -15.588  0.00  0.00    -0.004 C 
ATOM      6  C   UNL     1      32.054 -22.454 -17.337  0.00  0.00    -0.004 C 
ATOM      7  C   UNL     1      34.682 -22.154 -16.450  0.00  0.00    +0.003 C 
ATOM      8  C   UNL     1      33.028 -21.951 -18.200  0.00  0.00    +0.003 C 
BRANCH   3   9
ATOM      9  C   UNL     1      31.352 -23.345 -15.110  0.00  0.00    +0.047 C 
BRANCH   9  14
ATOM     10  S   UNL     1      29.058 -22.337 -16.253  0.00  0.00    -0.048 S 
ATOM     11  O   UNL     1      29.640 -25.740 -14.527  0.00  0.00    -0.274 OA
ATOM     12  O   UNL     1      26.573 -22.398 -15.398  0.00  0.00    -0.263 OA
ATOM     13  N   UNL     1      27.964 -24.183 -14.868  0.00  0.00    -0.246 N 
ATOM     14  C   UNL     1      30.101 -23.774 -15.856  0.00  0.00    +0.137 C 
ATOM     15  C   UNL     1      29.240 -24.687 -15.011  0.00  0.00    +0.239 C 
ATOM     16  C   UNL     1      27.648 -22.977 -15.436  0.00  0.00    +0.279 C 
ATOM     17  H   UNL     1      27.285 -24.686 -14.363  0.00  0.00    +0.158 HD
ENDBRANCH   9  14
ENDBRANCH   3   9
ENDBRANCH   2   4
BRANCH   2  18
ATOM     18  C   UNL     1      34.941 -20.560 -19.953  0.00  0.00    +0.076 C 
BRANCH  18  19
ATOM     19  C   UNL     1      35.940 -19.493 -20.410  0.00  0.00    +0.066 C 
BRANCH  19  22
ATOM     20  O   UNL     1      34.308 -17.302 -22.832  0.00  0.00    -0.449 OA
ATOM     21  N   UNL     1      35.151 -17.172 -20.737  0.00  0.00    -0.373 NA
ATOM     22  C   UNL     1      35.292 -18.425 -21.239  0.00  0.00    +0.130 C 
ATOM     23  C   UNL     1      34.795 -18.529 -22.494  0.00  0.00    +0.216 C 
ATOM     24  C   UNL     1      34.559 -16.546 -21.730  0.00  0.00    +0.277 C 
ATOM     25  C   UNL     1      34.674 -19.594 -23.496  0.00  0.00    +0.055 C 
BRANCH  24  26
ATOM     26  C   UNL     1      34.135 -15.176 -21.819  0.00  0.00    +0.066 C 
ATOM     27  C   UNL     1      33.765 -14.477 -20.666  0.00  0.00    +0.006 C 
ATOM     28  C   UNL     1      34.090 -14.534 -23.060  0.00  0.00    +0.006 C 
ATOM     29  C   UNL     1      33.352 -13.147 -20.754  0.00  0.00    +0.000 C 
ATOM     30  C   UNL     1      33.677 -13.204 -23.147  0.00  0.00    +0.000 C 
ATOM     31  C   UNL     1      33.308 -12.511 -21.994  0.00  0.00    +0.000 C 
ENDBRANCH  24  26
ENDBRANCH  19  22
ENDBRANCH  18  19
ENDBRANCH   2  18
TORSDOF 7
ENDMDL
