MODEL 1
REMARK VINA RESULT:     -11.7      0.000      0.000
REMARK  Name = 10680
REMARK  1 active torsions:
REMARK  status: ('A' for Active; 'I' for Inactive)
REMARK    1  A    between atoms: C_4  and  C_12
REMARK                            x       y       z     vdW  Elec       q    Type
REMARK                         _______ _______ _______ _____ _____    ______ ____
ROOT
ATOM      1  O   UNL     1      34.346 -16.386 -20.940  0.00  0.00    -0.453 OA
ATOM      2  O   UNL     1      34.137 -16.270 -25.007  0.00  0.00    -0.286 OA
ATOM      3  C   UNL     1      34.021 -15.085 -22.966  0.00  0.00    +0.074 C 
ATOM      4  C   UNL     1      34.525 -17.524 -21.711  0.00  0.00    +0.148 C 
ATOM      5  C   UNL     1      34.104 -15.196 -21.579  0.00  0.00    +0.148 C 
ATOM      6  C   UNL     1      34.201 -16.293 -23.785  0.00  0.00    +0.202 C 
ATOM      7  C   UNL     1      34.464 -17.548 -23.051  0.00  0.00    +0.080 C 
ATOM      8  C   UNL     1      33.772 -13.848 -23.562  0.00  0.00    +0.006 C 
ATOM      9  C   UNL     1      33.935 -14.066 -20.779  0.00  0.00    +0.038 C 
ATOM     10  C   UNL     1      33.604 -12.718 -22.759  0.00  0.00    +0.000 C 
ATOM     11  C   UNL     1      33.685 -12.828 -21.370  0.00  0.00    +0.003 C 
ENDROOT
BRANCH   4  12
ATOM     12  C   UNL     1      34.776 -18.748 -20.923  0.00  0.00    +0.035 C 
ATOM     13  C   UNL     1      33.717 -19.596 -20.586  0.00  0.00    +0.003 C 
ATOM     14  C   UNL     1      36.072 -19.064 -20.508  0.00  0.00    +0.003 C 
ATOM     15  C   UNL     1      33.952 -20.751 -19.841  0.00  0.00    +0.000 C 
ATOM     16  C   UNL     1      36.308 -20.219 -19.763  0.00  0.00    +0.000 C 
ATOM     17  C   UNL     1      35.248 -21.062 -19.430  0.00  0.00    +0.000 C 
ENDBRANCH   4  12
TORSDOF 1
ENDMDL
MODEL 2
REMARK VINA RESULT:     -11.7      0.005      1.172
REMARK  Name = 10680
REMARK  1 active torsions:
REMARK  status: ('A' for Active; 'I' for Inactive)
REMARK    1  A    between atoms: C_4  and  C_12
REMARK                            x       y       z     vdW  Elec       q    Type
REMARK                         _______ _______ _______ _____ _____    ______ ____
ROOT
ATOM      1  O   UNL     1      34.346 -16.382 -20.943  0.00  0.00    -0.453 OA
ATOM      2  O   UNL     1      34.140 -16.270 -25.010  0.00  0.00    -0.286 OA
ATOM      3  C   UNL     1      34.022 -15.083 -22.970  0.00  0.00    +0.074 C 
ATOM      4  C   UNL     1      34.526 -17.522 -21.713  0.00  0.00    +0.148 C 
ATOM      5  C   UNL     1      34.103 -15.193 -21.582  0.00  0.00    +0.148 C 
ATOM      6  C   UNL     1      34.203 -16.292 -23.788  0.00  0.00    +0.202 C 
ATOM      7  C   UNL     1      34.465 -17.546 -23.053  0.00  0.00    +0.080 C 
ATOM      8  C   UNL     1      33.773 -13.846 -23.567  0.00  0.00    +0.006 C 
ATOM      9  C   UNL     1      33.934 -14.063 -20.783  0.00  0.00    +0.038 C 
ATOM     10  C   UNL     1      33.604 -12.716 -22.764  0.00  0.00    +0.000 C 
ATOM     11  C   UNL     1      33.684 -12.825 -21.375  0.00  0.00    +0.003 C 
ENDROOT
BRANCH   4  12
ATOM     12  C   UNL     1      34.776 -18.745 -20.923  0.00  0.00    +0.035 C 
ATOM     13  C   UNL     1      36.073 -19.058 -20.507  0.00  0.00    +0.003 C 
ATOM     14  C   UNL     1      33.719 -19.595 -20.591  0.00  0.00    +0.003 C 
ATOM     15  C   UNL     1      36.311 -20.213 -19.762  0.00  0.00    +0.000 C 
ATOM     16  C   UNL     1      33.957 -20.750 -19.846  0.00  0.00    +0.000 C 
ATOM     17  C   UNL     1      35.253 -21.059 -19.432  0.00  0.00    +0.000 C 
ENDBRANCH   4  12
TORSDOF 1
ENDMDL
MODEL 3
REMARK VINA RESULT:     -11.0      3.660      7.558
REMARK  Name = 10680
REMARK  1 active torsions:
REMARK  status: ('A' for Active; 'I' for Inactive)
REMARK    1  A    between atoms: C_4  and  C_12
REMARK                            x       y       z     vdW  Elec       q    Type
REMARK                         _______ _______ _______ _____ _____    ______ ____
ROOT
ATOM      1  O   UNL     1      35.901 -20.653 -18.564  0.00  0.00    -0.453 OA
ATOM      2  O   UNL     1      32.473 -22.733 -17.844  0.00  0.00    -0.286 OA
ATOM      3  C   UNL     1      34.672 -22.205 -17.156  0.00  0.00    +0.074 C 
ATOM      4  C   UNL     1      34.800 -20.555 -19.402  0.00  0.00    +0.148 C 
ATOM      5  C   UNL     1      35.814 -21.467 -17.463  0.00  0.00    +0.148 C 
ATOM      6  C   UNL     1      33.506 -22.110 -18.049  0.00  0.00    +0.202 C 
ATOM      7  C   UNL     1      33.648 -21.218 -19.217  0.00  0.00    +0.080 C 
ATOM      8  C   UNL     1      34.639 -23.019 -16.022  0.00  0.00    +0.006 C 
ATOM      9  C   UNL     1      36.934 -21.541 -16.634  0.00  0.00    +0.038 C 
ATOM     10  C   UNL     1      35.762 -23.090 -15.195  0.00  0.00    +0.000 C 
ATOM     11  C   UNL     1      36.906 -22.352 -15.501  0.00  0.00    +0.003 C 
ENDROOT
BRANCH   4  12
ATOM     12  C   UNL     1      35.004 -19.656 -20.556  0.00  0.00    +0.035 C 
ATOM     13  C   UNL     1      36.208 -18.961 -20.700  0.00  0.00    +0.003 C 
ATOM     14  C   UNL     1      33.994 -19.494 -21.507  0.00  0.00    +0.003 C 
ATOM     15  C   UNL     1      36.401 -18.111 -21.789  0.00  0.00    +0.000 C 
ATOM     16  C   UNL     1      34.187 -18.644 -22.596  0.00  0.00    +0.000 C 
ATOM     17  C   UNL     1      35.390 -17.953 -22.737  0.00  0.00    +0.000 C 
ENDBRANCH   4  12
TORSDOF 1
ENDMDL
MODEL 4
REMARK VINA RESULT:     -11.0      2.428      6.852
REMARK  Name = 10680
REMARK  1 active torsions:
REMARK  status: ('A' for Active; 'I' for Inactive)
REMARK    1  A    between atoms: C_4  and  C_12
REMARK                            x       y       z     vdW  Elec       q    Type
REMARK                         _______ _______ _______ _____ _____    ______ ____
ROOT
ATOM      1  O   UNL     1      33.204 -13.599 -21.823  0.00  0.00    -0.453 OA
ATOM      2  O   UNL     1      33.262 -14.885 -25.688  0.00  0.00    -0.286 OA
ATOM      3  C   UNL     1      33.800 -15.322 -23.428  0.00  0.00    +0.074 C 
ATOM      4  C   UNL     1      32.673 -12.836 -22.852  0.00  0.00    +0.148 C 
ATOM      5  C   UNL     1      33.749 -14.820 -22.129  0.00  0.00    +0.148 C 
ATOM      6  C   UNL     1      33.246 -14.510 -24.524  0.00  0.00    +0.202 C 
ATOM      7  C   UNL     1      32.668 -13.206 -24.142  0.00  0.00    +0.080 C 
ATOM      8  C   UNL     1      34.368 -16.571 -23.682  0.00  0.00    +0.006 C 
ATOM      9  C   UNL     1      34.269 -15.569 -21.073  0.00  0.00    +0.038 C 
ATOM     10  C   UNL     1      34.887 -17.318 -22.623  0.00  0.00    +0.000 C 
ATOM     11  C   UNL     1      34.838 -16.818 -21.321  0.00  0.00    +0.003 C 
ENDROOT
BRANCH   4  12
ATOM     12  C   UNL     1      32.116 -11.540 -22.412  0.00  0.00    +0.035 C 
ATOM     13  C   UNL     1      32.416 -10.372 -23.119  0.00  0.00    +0.003 C 
ATOM     14  C   UNL     1      31.290 -11.476 -21.289  0.00  0.00    +0.003 C 
ATOM     15  C   UNL     1      31.891  -9.148 -22.704  0.00  0.00    +0.000 C 
ATOM     16  C   UNL     1      30.765 -10.252 -20.874  0.00  0.00    +0.000 C 
ATOM     17  C   UNL     1      31.066  -9.089 -21.581  0.00  0.00    +0.000 C 
ENDBRANCH   4  12
TORSDOF 1
ENDMDL
MODEL 5
REMARK VINA RESULT:     -10.9      2.408      6.778
REMARK  Name = 10680
REMARK  1 active torsions:
REMARK  status: ('A' for Active; 'I' for Inactive)
REMARK    1  A    between atoms: C_4  and  C_12
REMARK                            x       y       z     vdW  Elec       q    Type
REMARK                         _______ _______ _______ _____ _____    ______ ____
ROOT
ATOM      1  O   UNL     1      33.203 -13.627 -21.792  0.00  0.00    -0.453 OA
ATOM      2  O   UNL     1      33.271 -14.902 -25.661  0.00  0.00    -0.286 OA
ATOM      3  C   UNL     1      33.808 -15.343 -23.402  0.00  0.00    +0.074 C 
ATOM      4  C   UNL     1      32.671 -12.863 -22.820  0.00  0.00    +0.148 C 
ATOM      5  C   UNL     1      33.753 -14.845 -22.101  0.00  0.00    +0.148 C 
ATOM      6  C   UNL     1      33.252 -14.530 -24.495  0.00  0.00    +0.202 C 
ATOM      7  C   UNL     1      32.669 -13.229 -24.111  0.00  0.00    +0.080 C 
ATOM      8  C   UNL     1      34.380 -16.590 -23.658  0.00  0.00    +0.006 C 
ATOM      9  C   UNL     1      34.274 -15.595 -21.046  0.00  0.00    +0.038 C 
ATOM     10  C   UNL     1      34.900 -17.338 -22.600  0.00  0.00    +0.000 C 
ATOM     11  C   UNL     1      34.847 -16.841 -21.298  0.00  0.00    +0.003 C 
ENDROOT
BRANCH   4  12
ATOM     12  C   UNL     1      32.109 -11.570 -22.377  0.00  0.00    +0.035 C 
ATOM     13  C   UNL     1      31.279 -11.515 -21.254  0.00  0.00    +0.003 C 
ATOM     14  C   UNL     1      32.403 -10.399 -23.078  0.00  0.00    +0.003 C 
ATOM     15  C   UNL     1      30.747 -10.295 -20.835  0.00  0.00    +0.000 C 
ATOM     16  C   UNL     1      31.871  -9.180 -22.660  0.00  0.00    +0.000 C 
ATOM     17  C   UNL     1      31.044  -9.128 -21.538  0.00  0.00    +0.000 C 
ENDBRANCH   4  12
TORSDOF 1
ENDMDL
MODEL 6
REMARK VINA RESULT:     -10.8      3.487      5.296
REMARK  Name = 10680
REMARK  1 active torsions:
REMARK  status: ('A' for Active; 'I' for Inactive)
REMARK    1  A    between atoms: C_4  and  C_12
REMARK                            x       y       z     vdW  Elec       q    Type
REMARK                         _______ _______ _______ _____ _____    ______ ____
ROOT
ATOM      1  O   UNL     1      35.836 -20.333 -19.092  0.00  0.00    -0.453 OA
ATOM      2  O   UNL     1      31.983 -20.609 -20.385  0.00  0.00    -0.286 OA
ATOM      3  C   UNL     1      34.143 -19.713 -20.720  0.00  0.00    +0.074 C 
ATOM      4  C   UNL     1      34.897 -21.104 -18.423  0.00  0.00    +0.148 C 
ATOM      5  C   UNL     1      35.444 -19.660 -20.222  0.00  0.00    +0.148 C 
ATOM      6  C   UNL     1      33.143 -20.522 -20.007  0.00  0.00    +0.202 C 
ATOM      7  C   UNL     1      33.615 -21.229 -18.800  0.00  0.00    +0.080 C 
ATOM      8  C   UNL     1      33.800 -19.007 -21.874  0.00  0.00    +0.006 C 
ATOM      9  C   UNL     1      36.411 -18.899 -20.877  0.00  0.00    +0.038 C 
ATOM     10  C   UNL     1      34.770 -18.246 -22.529  0.00  0.00    +0.000 C 
ATOM     11  C   UNL     1      36.073 -18.192 -22.031  0.00  0.00    +0.003 C 
ENDROOT
BRANCH   4  12
ATOM     12  C   UNL     1      35.424 -21.781 -17.220  0.00  0.00    +0.035 C 
ATOM     13  C   UNL     1      34.584 -22.579 -16.440  0.00  0.00    +0.003 C 
ATOM     14  C   UNL     1      36.764 -21.625 -16.857  0.00  0.00    +0.003 C 
ATOM     15  C   UNL     1      35.080 -23.218 -15.303  0.00  0.00    +0.000 C 
ATOM     16  C   UNL     1      37.260 -22.263 -15.720  0.00  0.00    +0.000 C 
ATOM     17  C   UNL     1      36.419 -23.060 -14.944  0.00  0.00    +0.000 C 
ENDBRANCH   4  12
TORSDOF 1
ENDMDL
MODEL 7
REMARK VINA RESULT:     -10.3      5.137      8.196
REMARK  Name = 10680
REMARK  1 active torsions:
REMARK  status: ('A' for Active; 'I' for Inactive)
REMARK    1  A    between atoms: C_4  and  C_12
REMARK                            x       y       z     vdW  Elec       q    Type
REMARK                         _______ _______ _______ _____ _____    ______ ____
ROOT
ATOM      1  O   UNL     1      31.615 -21.765 -17.930  0.00  0.00    -0.453 OA
ATOM      2  O   UNL     1      35.372 -22.676 -16.642  0.00  0.00    -0.286 OA
ATOM      3  C   UNL     1      34.018 -21.588 -18.245  0.00  0.00    +0.074 C 
ATOM      4  C   UNL     1      31.830 -22.518 -16.785  0.00  0.00    +0.148 C 
ATOM      5  C   UNL     1      32.706 -21.315 -18.630  0.00  0.00    +0.148 C 
ATOM      6  C   UNL     1      34.248 -22.394 -17.036  0.00  0.00    +0.202 C 
ATOM      7  C   UNL     1      33.043 -22.852 -16.316  0.00  0.00    +0.080 C 
ATOM      8  C   UNL     1      35.090 -21.103 -18.996  0.00  0.00    +0.006 C 
ATOM      9  C   UNL     1      32.460 -20.554 -19.773  0.00  0.00    +0.038 C 
ATOM     10  C   UNL     1      34.841 -20.342 -20.139  0.00  0.00    +0.000 C 
ATOM     11  C   UNL     1      33.528 -20.069 -20.527  0.00  0.00    +0.003 C 
ENDROOT
BRANCH   4  12
ATOM     12  C   UNL     1      30.589 -22.954 -16.113  0.00  0.00    +0.035 C 
ATOM     13  C   UNL     1      30.635 -23.948 -15.132  0.00  0.00    +0.003 C 
ATOM     14  C   UNL     1      29.365 -22.375 -16.454  0.00  0.00    +0.003 C 
ATOM     15  C   UNL     1      29.464 -24.361 -14.497  0.00  0.00    +0.000 C 
ATOM     16  C   UNL     1      28.194 -22.788 -15.819  0.00  0.00    +0.000 C 
ATOM     17  C   UNL     1      28.243 -23.780 -14.841  0.00  0.00    +0.000 C 
ENDBRANCH   4  12
TORSDOF 1
ENDMDL
MODEL 8
REMARK VINA RESULT:     -10.0      1.454      2.608
REMARK  Name = 10680
REMARK  1 active torsions:
REMARK  status: ('A' for Active; 'I' for Inactive)
REMARK    1  A    between atoms: C_4  and  C_12
REMARK                            x       y       z     vdW  Elec       q    Type
REMARK                         _______ _______ _______ _____ _____    ______ ____
ROOT
ATOM      1  O   UNL     1      34.083 -16.306 -23.084  0.00  0.00    -0.453 OA
ATOM      2  O   UNL     1      33.630 -13.046 -20.683  0.00  0.00    -0.286 OA
ATOM      3  C   UNL     1      33.492 -13.960 -22.858  0.00  0.00    +0.074 C 
ATOM      4  C   UNL     1      34.326 -16.367 -21.720  0.00  0.00    +0.148 C 
ATOM      5  C   UNL     1      33.669 -15.113 -23.621  0.00  0.00    +0.148 C 
ATOM      6  C   UNL     1      33.759 -14.020 -21.412  0.00  0.00    +0.202 C 
ATOM      7  C   UNL     1      34.198 -15.327 -20.882  0.00  0.00    +0.080 C 
ATOM      8  C   UNL     1      33.070 -12.773 -23.458  0.00  0.00    +0.006 C 
ATOM      9  C   UNL     1      33.425 -15.083 -24.994  0.00  0.00    +0.038 C 
ATOM     10  C   UNL     1      32.826 -12.746 -24.832  0.00  0.00    +0.000 C 
ATOM     11  C   UNL     1      33.004 -13.899 -25.599  0.00  0.00    +0.003 C 
ENDROOT
BRANCH   4  12
ATOM     12  C   UNL     1      34.769 -17.695 -21.249  0.00  0.00    +0.035 C 
ATOM     13  C   UNL     1      33.826 -18.680 -20.940  0.00  0.00    +0.003 C 
ATOM     14  C   UNL     1      36.130 -17.973 -21.109  0.00  0.00    +0.003 C 
ATOM     15  C   UNL     1      34.243 -19.934 -20.494  0.00  0.00    +0.000 C 
ATOM     16  C   UNL     1      36.547 -19.228 -20.664  0.00  0.00    +0.000 C 
ATOM     17  C   UNL     1      35.604 -20.208 -20.357  0.00  0.00    +0.000 C 
ENDBRANCH   4  12
TORSDOF 1
ENDMDL
MODEL 9
REMARK VINA RESULT:      -9.9      5.117      7.625
REMARK  Name = 10680
REMARK  1 active torsions:
REMARK  status: ('A' for Active; 'I' for Inactive)
REMARK    1  A    between atoms: C_4  and  C_12
REMARK                            x       y       z     vdW  Elec       q    Type
REMARK                         _______ _______ _______ _____ _____    ______ ____
ROOT
ATOM      1  O   UNL     1      35.348 -21.990 -17.389  0.00  0.00    -0.453 OA
ATOM      2  O   UNL     1      31.284 -22.169 -17.619  0.00  0.00    -0.286 OA
ATOM      3  C   UNL     1      33.308 -21.404 -18.570  0.00  0.00    +0.074 C 
ATOM      4  C   UNL     1      34.594 -22.665 -16.441  0.00  0.00    +0.148 C 
ATOM      5  C   UNL     1      34.695 -21.380 -18.430  0.00  0.00    +0.148 C 
ATOM      6  C   UNL     1      32.505 -22.112 -17.561  0.00  0.00    +0.202 C 
ATOM      7  C   UNL     1      33.255 -22.754 -16.463  0.00  0.00    +0.080 C 
ATOM      8  C   UNL     1      32.696 -20.765 -19.651  0.00  0.00    +0.006 C 
ATOM      9  C   UNL     1      35.479 -20.714 -19.372  0.00  0.00    +0.038 C 
ATOM     10  C   UNL     1      33.484 -20.100 -20.592  0.00  0.00    +0.000 C 
ATOM     11  C   UNL     1      34.872 -20.075 -20.452  0.00  0.00    +0.003 C 
ENDROOT
BRANCH   4  12
ATOM     12  C   UNL     1      35.397 -23.280 -15.364  0.00  0.00    +0.035 C 
ATOM     13  C   UNL     1      34.786 -24.114 -14.423  0.00  0.00    +0.003 C 
ATOM     14  C   UNL     1      36.768 -23.031 -15.280  0.00  0.00    +0.003 C 
ATOM     15  C   UNL     1      35.543 -24.695 -13.405  0.00  0.00    +0.000 C 
ATOM     16  C   UNL     1      37.525 -23.612 -14.263  0.00  0.00    +0.000 C 
ATOM     17  C   UNL     1      36.913 -24.443 -13.326  0.00  0.00    +0.000 C 
ENDBRANCH   4  12
TORSDOF 1
ENDMDL
