MODEL 1
REMARK VINA RESULT:     -11.5      0.000      0.000
REMARK  Name = 4418
REMARK  8 active torsions:
REMARK  status: ('A' for Active; 'I' for Inactive)
REMARK    1  A    between atoms: C_1  and  N_2
REMARK    2  A    between atoms: C_1  and  C_17
REMARK    3  A    between atoms: N_3  and  C_9
REMARK    4  A    between atoms: C_10  and  O_15
REMARK    5  A    between atoms: C_17  and  O_18
REMARK    6  A    between atoms: C_17  and  C_20
REMARK    7  A    between atoms: C_20  and  O_21
REMARK    8  A    between atoms: O_21  and  C_22
REMARK                            x       y       z     vdW  Elec       q    Type
REMARK                         _______ _______ _______ _____ _____    ______ ____
ROOT
ATOM      1  C   UNL     1      35.789 -20.934 -19.408  0.00  0.00    -0.043 C 
ENDROOT
BRANCH   1   2
ATOM      2  N   UNL     1      35.510 -20.116 -20.588  0.00  0.00    +0.391 N 
ATOM      3  N   UNL     1      34.695 -17.773 -22.002  0.00  0.00    -0.309 N 
ATOM      4  C   UNL     1      34.096 -19.722 -20.617  0.00  0.00    -0.055 C 
ATOM      5  C   UNL     1      36.362 -18.922 -20.600  0.00  0.00    -0.055 C 
ATOM      6  C   UNL     1      33.778 -18.913 -21.876  0.00  0.00    +0.068 C 
ATOM      7  C   UNL     1      36.120 -18.086 -21.859  0.00  0.00    +0.068 C 
ATOM      8  H   UNL     1      35.714 -20.675 -21.417  0.00  0.00    -0.079 HD
BRANCH   3   9
ATOM      9  C   UNL     1      34.298 -16.694 -22.801  0.00  0.00    +0.082 C 
ATOM     10  C   UNL     1      34.130 -15.400 -22.266  0.00  0.00    +0.152 C 
ATOM     11  C   UNL     1      34.053 -16.877 -24.177  0.00  0.00    +0.018 C 
ATOM     12  C   UNL     1      33.735 -14.334 -23.075  0.00  0.00    +0.038 C 
ATOM     13  C   UNL     1      33.657 -15.811 -24.984  0.00  0.00    +0.001 C 
ATOM     14  C   UNL     1      33.498 -14.539 -24.434  0.00  0.00    +0.003 C 
BRANCH  10  15
ATOM     15  O   UNL     1      34.357 -15.179 -20.941  0.00  0.00    -0.470 OA
ATOM     16  C   UNL     1      33.666 -14.086 -20.340  0.00  0.00    +0.253 C 
ENDBRANCH  10  15
ENDBRANCH   3   9
ENDBRANCH   1   2
BRANCH   1  17
ATOM     17  C   UNL     1      34.515 -21.543 -18.816  0.00  0.00    +0.133 C 
BRANCH  17  18
ATOM     18  O   UNL     1      34.218 -22.743 -19.537  0.00  0.00    -0.383 OA
ATOM     19  H   UNL     1      33.766 -22.519 -20.366  0.00  0.00    +0.210 HD
ENDBRANCH  17  18
BRANCH  17  20
ATOM     20  C   UNL     1      34.640 -21.884 -17.333  0.00  0.00    +0.232 C 
BRANCH  20  21
ATOM     21  O   UNL     1      33.844 -23.032 -17.056  0.00  0.00    -0.473 OA
BRANCH  21  22
ATOM     22  C   UNL     1      33.375 -23.162 -15.777  0.00  0.00    +0.139 C 
ATOM     23  C   UNL     1      32.019 -22.966 -15.475  0.00  0.00    +0.034 C 
ATOM     24  C   UNL     1      31.582 -23.112 -14.138  0.00  0.00    +0.003 C 
ATOM     25  C   UNL     1      34.289 -23.498 -14.780  0.00  0.00    +0.037 C 
ATOM     26  C   UNL     1      31.086 -22.627 -16.470  0.00  0.00    +0.003 C 
ATOM     27  C   UNL     1      32.515 -23.451 -13.143  0.00  0.00    +0.000 C 
ATOM     28  C   UNL     1      33.859 -23.642 -13.464  0.00  0.00    +0.003 C 
ATOM     29  C   UNL     1      30.225 -22.915 -13.832  0.00  0.00    +0.000 C 
ATOM     30  C   UNL     1      29.742 -22.436 -16.149  0.00  0.00    +0.000 C 
ATOM     31  C   UNL     1      29.312 -22.579 -14.833  0.00  0.00    +0.000 C 
ENDBRANCH  21  22
ENDBRANCH  20  21
ENDBRANCH  17  20
ENDBRANCH   1  17
TORSDOF 8
ENDMDL
MODEL 2
REMARK VINA RESULT:     -11.3      1.819      9.926
REMARK  Name = 4418
REMARK  8 active torsions:
REMARK  status: ('A' for Active; 'I' for Inactive)
REMARK    1  A    between atoms: C_1  and  N_2
REMARK    2  A    between atoms: C_1  and  C_17
REMARK    3  A    between atoms: N_3  and  C_9
REMARK    4  A    between atoms: C_10  and  O_15
REMARK    5  A    between atoms: C_17  and  O_18
REMARK    6  A    between atoms: C_17  and  C_20
REMARK    7  A    between atoms: C_20  and  O_21
REMARK    8  A    between atoms: O_21  and  C_22
REMARK                            x       y       z     vdW  Elec       q    Type
REMARK                         _______ _______ _______ _____ _____    ______ ____
ROOT
ATOM      1  C   UNL     1      36.061 -20.338 -20.242  0.00  0.00    -0.043 C 
ENDROOT
BRANCH   1   2
ATOM      2  N   UNL     1      35.333 -20.642 -19.011  0.00  0.00    +0.391 N 
ATOM      3  N   UNL     1      34.433 -22.281 -16.852  0.00  0.00    -0.309 N 
ATOM      4  C   UNL     1      34.348 -21.706 -19.247  0.00  0.00    -0.055 C 
ATOM      5  C   UNL     1      36.261 -21.048 -17.950  0.00  0.00    -0.055 C 
ATOM      6  C   UNL     1      33.539 -21.994 -17.981  0.00  0.00    +0.068 C 
ATOM      7  C   UNL     1      35.516 -21.315 -16.640  0.00  0.00    +0.068 C 
ATOM      8  H   UNL     1      34.842 -19.798 -18.715  0.00  0.00    -0.079 HD
BRANCH   3   9
ATOM      9  C   UNL     1      33.912 -22.990 -15.763  0.00  0.00    +0.082 C 
ATOM     10  C   UNL     1      34.694 -23.914 -15.039  0.00  0.00    +0.152 C 
ATOM     11  C   UNL     1      32.576 -22.796 -15.357  0.00  0.00    +0.018 C 
ATOM     12  C   UNL     1      34.162 -24.612 -13.956  0.00  0.00    +0.038 C 
ATOM     13  C   UNL     1      32.045 -23.496 -14.274  0.00  0.00    +0.001 C 
ATOM     14  C   UNL     1      32.837 -24.404 -13.573  0.00  0.00    +0.003 C 
BRANCH  10  15
ATOM     15  O   UNL     1      35.991 -24.132 -15.398  0.00  0.00    -0.470 OA
ATOM     16  C   UNL     1      36.965 -24.092 -14.357  0.00  0.00    +0.253 C 
ENDBRANCH  10  15
ENDBRANCH   3   9
ENDBRANCH   1   2
BRANCH   1  17
ATOM     17  C   UNL     1      36.148 -18.831 -20.501  0.00  0.00    +0.133 C 
BRANCH  17  18
ATOM     18  O   UNL     1      37.195 -18.601 -21.448  0.00  0.00    -0.383 OA
ATOM     19  H   UNL     1      37.690 -19.423 -21.590  0.00  0.00    +0.210 HD
ENDBRANCH  17  18
BRANCH  17  20
ATOM     20  C   UNL     1      34.854 -18.237 -21.050  0.00  0.00    +0.232 C 
BRANCH  20  21
ATOM     21  O   UNL     1      34.959 -16.816 -21.037  0.00  0.00    -0.473 OA
BRANCH  21  22
ATOM     22  C   UNL     1      34.464 -16.153 -22.127  0.00  0.00    +0.139 C 
ATOM     23  C   UNL     1      33.842 -14.902 -21.998  0.00  0.00    +0.034 C 
ATOM     24  C   UNL     1      33.347 -14.254 -23.154  0.00  0.00    +0.003 C 
ATOM     25  C   UNL     1      34.599 -16.759 -23.375  0.00  0.00    +0.037 C 
ATOM     26  C   UNL     1      33.699 -14.278 -20.747  0.00  0.00    +0.003 C 
ATOM     27  C   UNL     1      33.489 -14.878 -24.405  0.00  0.00    +0.000 C 
ATOM     28  C   UNL     1      34.112 -16.122 -24.513  0.00  0.00    +0.003 C 
ATOM     29  C   UNL     1      32.723 -13.002 -23.027  0.00  0.00    +0.000 C 
ATOM     30  C   UNL     1      33.077 -13.034 -20.639  0.00  0.00    +0.000 C 
ATOM     31  C   UNL     1      32.590 -12.397 -21.777  0.00  0.00    +0.000 C 
ENDBRANCH  21  22
ENDBRANCH  20  21
ENDBRANCH  17  20
ENDBRANCH   1  17
TORSDOF 8
ENDMDL
MODEL 3
REMARK VINA RESULT:     -11.0      2.537      4.884
REMARK  Name = 4418
REMARK  8 active torsions:
REMARK  status: ('A' for Active; 'I' for Inactive)
REMARK    1  A    between atoms: C_1  and  N_2
REMARK    2  A    between atoms: C_1  and  C_17
REMARK    3  A    between atoms: N_3  and  C_9
REMARK    4  A    between atoms: C_10  and  O_15
REMARK    5  A    between atoms: C_17  and  O_18
REMARK    6  A    between atoms: C_17  and  C_20
REMARK    7  A    between atoms: C_20  and  O_21
REMARK    8  A    between atoms: O_21  and  C_22
REMARK                            x       y       z     vdW  Elec       q    Type
REMARK                         _______ _______ _______ _____ _____    ______ ____
ROOT
ATOM      1  C   UNL     1      35.300 -18.234 -22.585  0.00  0.00    -0.043 C 
ENDROOT
BRANCH   1   2
ATOM      2  N   UNL     1      35.067 -16.801 -22.414  0.00  0.00    +0.391 N 
ATOM      3  N   UNL     1      33.498 -14.432 -22.123  0.00  0.00    -0.309 N 
ATOM      4  C   UNL     1      34.318 -16.262 -23.556  0.00  0.00    -0.055 C 
ATOM      5  C   UNL     1      34.332 -16.544 -21.170  0.00  0.00    -0.055 C 
ATOM      6  C   UNL     1      34.117 -14.752 -23.416  0.00  0.00    +0.068 C 
ATOM      7  C   UNL     1      34.130 -15.043 -20.949  0.00  0.00    +0.068 C 
ATOM      8  H   UNL     1      35.973 -16.335 -22.364  0.00  0.00    -0.079 HD
BRANCH   3   9
ATOM      9  C   UNL     1      32.837 -13.204 -21.995  0.00  0.00    +0.082 C 
ATOM     10  C   UNL     1      32.785 -12.278 -23.057  0.00  0.00    +0.152 C 
ATOM     11  C   UNL     1      32.200 -12.859 -20.786  0.00  0.00    +0.018 C 
ATOM     12  C   UNL     1      32.122 -11.059 -22.915  0.00  0.00    +0.038 C 
ATOM     13  C   UNL     1      31.538 -11.640 -20.645  0.00  0.00    +0.001 C 
ATOM     14  C   UNL     1      31.498 -10.740 -21.709  0.00  0.00    +0.003 C 
BRANCH  10  15
ATOM     15  O   UNL     1      33.387 -12.572 -24.244  0.00  0.00    -0.470 OA
ATOM     16  C   UNL     1      32.545 -12.676 -25.389  0.00  0.00    +0.253 C 
ENDBRANCH  10  15
ENDBRANCH   3   9
ENDBRANCH   1   2
BRANCH   1  17
ATOM     17  C   UNL     1      36.449 -18.739 -21.708  0.00  0.00    +0.133 C 
BRANCH  17  18
ATOM     18  O   UNL     1      37.524 -17.798 -21.796  0.00  0.00    -0.383 OA
ATOM     19  H   UNL     1      37.189 -16.956 -22.144  0.00  0.00    +0.210 HD
ENDBRANCH  17  18
BRANCH  17  20
ATOM     20  C   UNL     1      36.063 -18.901 -20.240  0.00  0.00    +0.232 C 
BRANCH  20  21
ATOM     21  O   UNL     1      36.190 -20.273 -19.881  0.00  0.00    -0.473 OA
BRANCH  21  22
ATOM     22  C   UNL     1      35.112 -20.851 -19.266  0.00  0.00    +0.139 C 
ATOM     23  C   UNL     1      35.233 -21.470 -18.013  0.00  0.00    +0.034 C 
ATOM     24  C   UNL     1      34.090 -22.052 -17.417  0.00  0.00    +0.003 C 
ATOM     25  C   UNL     1      33.885 -20.804 -19.925  0.00  0.00    +0.037 C 
ATOM     26  C   UNL     1      36.464 -21.524 -17.336  0.00  0.00    +0.003 C 
ATOM     27  C   UNL     1      32.860 -21.998 -18.093  0.00  0.00    +0.000 C 
ATOM     28  C   UNL     1      32.759 -21.377 -19.339  0.00  0.00    +0.003 C 
ATOM     29  C   UNL     1      34.209 -22.673 -16.163  0.00  0.00    +0.000 C 
ATOM     30  C   UNL     1      36.564 -22.145 -16.090  0.00  0.00    +0.000 C 
ATOM     31  C   UNL     1      35.439 -22.718 -15.505  0.00  0.00    +0.000 C 
ENDBRANCH  21  22
ENDBRANCH  20  21
ENDBRANCH  17  20
ENDBRANCH   1  17
TORSDOF 8
ENDMDL
MODEL 4
REMARK VINA RESULT:     -10.8      5.939      9.837
REMARK  Name = 4418
REMARK  8 active torsions:
REMARK  status: ('A' for Active; 'I' for Inactive)
REMARK    1  A    between atoms: C_1  and  N_2
REMARK    2  A    between atoms: C_1  and  C_17
REMARK    3  A    between atoms: N_3  and  C_9
REMARK    4  A    between atoms: C_10  and  O_15
REMARK    5  A    between atoms: C_17  and  O_18
REMARK    6  A    between atoms: C_17  and  C_20
REMARK    7  A    between atoms: C_20  and  O_21
REMARK    8  A    between atoms: O_21  and  C_22
REMARK                            x       y       z     vdW  Elec       q    Type
REMARK                         _______ _______ _______ _____ _____    ______ ____
ROOT
ATOM      1  C   UNL     1      32.074 -12.811 -21.244  0.00  0.00    -0.043 C 
ENDROOT
BRANCH   1   2
ATOM      2  N   UNL     1      31.595 -11.579 -21.870  0.00  0.00    +0.391 N 
ATOM      3  N   UNL     1      31.593  -8.784 -22.460  0.00  0.00    -0.309 N 
ATOM      4  C   UNL     1      31.193 -10.605 -20.848  0.00  0.00    -0.055 C 
ATOM      5  C   UNL     1      32.633 -11.001 -22.730  0.00  0.00    -0.055 C 
ATOM      6  C   UNL     1      30.636  -9.333 -21.491  0.00  0.00    +0.068 C 
ATOM      7  C   UNL     1      32.126  -9.741 -23.436  0.00  0.00    +0.068 C 
ATOM      8  H   UNL     1      30.782 -11.809 -22.444  0.00  0.00    -0.079 HD
BRANCH   3   9
ATOM      9  C   UNL     1      31.479  -7.432 -22.805  0.00  0.00    +0.082 C 
ATOM     10  C   UNL     1      32.095  -6.420 -22.041  0.00  0.00    +0.152 C 
ATOM     11  C   UNL     1      30.737  -7.045 -23.939  0.00  0.00    +0.018 C 
ATOM     12  C   UNL     1      31.973  -5.077 -22.397  0.00  0.00    +0.038 C 
ATOM     13  C   UNL     1      30.615  -5.701 -24.294  0.00  0.00    +0.001 C 
ATOM     14  C   UNL     1      31.233  -4.717 -23.523  0.00  0.00    +0.003 C 
BRANCH  10  15
ATOM     15  O   UNL     1      32.822  -6.750 -20.937  0.00  0.00    -0.470 OA
ATOM     16  C   UNL     1      32.274  -6.392 -19.671  0.00  0.00    +0.253 C 
ENDBRANCH  10  15
ENDBRANCH   3   9
ENDBRANCH   1   2
BRANCH   1  17
ATOM     17  C   UNL     1      33.535 -13.102 -21.593  0.00  0.00    +0.133 C 
BRANCH  17  18
ATOM     18  O   UNL     1      34.062 -13.989 -20.601  0.00  0.00    -0.383 OA
ATOM     19  H   UNL     1      34.656 -14.630 -21.023  0.00  0.00    +0.210 HD
ENDBRANCH  17  18
BRANCH  17  20
ATOM     20  C   UNL     1      33.712 -13.746 -22.966  0.00  0.00    +0.232 C 
BRANCH  20  21
ATOM     21  O   UNL     1      34.661 -14.803 -22.859  0.00  0.00    -0.473 OA
BRANCH  21  22
ATOM     22  C   UNL     1      34.255 -16.040 -23.281  0.00  0.00    +0.139 C 
ATOM     23  C   UNL     1      34.544 -17.194 -22.538  0.00  0.00    +0.034 C 
ATOM     24  C   UNL     1      34.103 -18.451 -23.016  0.00  0.00    +0.003 C 
ATOM     25  C   UNL     1      33.542 -16.118 -24.477  0.00  0.00    +0.037 C 
ATOM     26  C   UNL     1      35.262 -17.131 -21.332  0.00  0.00    +0.003 C 
ATOM     27  C   UNL     1      33.385 -18.514 -24.222  0.00  0.00    +0.000 C 
ATOM     28  C   UNL     1      33.108 -17.354 -24.947  0.00  0.00    +0.003 C 
ATOM     29  C   UNL     1      34.391 -19.608 -22.274  0.00  0.00    +0.000 C 
ATOM     30  C   UNL     1      35.540 -18.290 -20.608  0.00  0.00    +0.000 C 
ATOM     31  C   UNL     1      35.105 -19.527 -21.078  0.00  0.00    +0.000 C 
ENDBRANCH  21  22
ENDBRANCH  20  21
ENDBRANCH  17  20
ENDBRANCH   1  17
TORSDOF 8
ENDMDL
MODEL 5
REMARK VINA RESULT:     -10.8      5.960     10.276
REMARK  Name = 4418
REMARK  8 active torsions:
REMARK  status: ('A' for Active; 'I' for Inactive)
REMARK    1  A    between atoms: C_1  and  N_2
REMARK    2  A    between atoms: C_1  and  C_17
REMARK    3  A    between atoms: N_3  and  C_9
REMARK    4  A    between atoms: C_10  and  O_15
REMARK    5  A    between atoms: C_17  and  O_18
REMARK    6  A    between atoms: C_17  and  C_20
REMARK    7  A    between atoms: C_20  and  O_21
REMARK    8  A    between atoms: O_21  and  C_22
REMARK                            x       y       z     vdW  Elec       q    Type
REMARK                         _______ _______ _______ _____ _____    ______ ____
ROOT
ATOM      1  C   UNL     1      31.984 -12.416 -22.323  0.00  0.00    -0.043 C 
ENDROOT
BRANCH   1   2
ATOM      2  N   UNL     1      32.065 -11.011 -21.927  0.00  0.00    +0.391 N 
ATOM      3  N   UNL     1      31.303  -8.258 -21.912  0.00  0.00    -0.309 N 
ATOM      4  C   UNL     1      32.328 -10.161 -23.095  0.00  0.00    -0.055 C 
ATOM      5  C   UNL     1      30.823 -10.588 -21.272  0.00  0.00    -0.055 C 
ATOM      6  C   UNL     1      32.472  -8.694 -22.686  0.00  0.00    +0.068 C 
ATOM      7  C   UNL     1      30.915  -9.134 -20.801  0.00  0.00    +0.068 C 
ATOM      8  H   UNL     1      32.837 -10.910 -21.266  0.00  0.00    -0.079 HD
BRANCH   3   9
ATOM      9  C   UNL     1      31.036  -6.886 -21.839  0.00  0.00    +0.082 C 
ATOM     10  C   UNL     1      30.464  -6.185 -22.921  0.00  0.00    +0.152 C 
ATOM     11  C   UNL     1      31.335  -6.161 -20.668  0.00  0.00    +0.018 C 
ATOM     12  C   UNL     1      30.203  -4.818 -22.834  0.00  0.00    +0.038 C 
ATOM     13  C   UNL     1      31.075  -4.794 -20.582  0.00  0.00    +0.001 C 
ATOM     14  C   UNL     1      30.508  -4.122 -21.665  0.00  0.00    +0.003 C 
BRANCH  10  15
ATOM     15  O   UNL     1      30.159  -6.847 -24.072  0.00  0.00    -0.470 OA
ATOM     16  C   UNL     1      30.997  -6.605 -25.200  0.00  0.00    +0.253 C 
ENDBRANCH  10  15
ENDBRANCH   3   9
ENDBRANCH   1   2
BRANCH   1  17
ATOM     17  C   UNL     1      33.324 -13.138 -22.156  0.00  0.00    +0.133 C 
BRANCH  17  18
ATOM     18  O   UNL     1      33.173 -14.127 -21.133  0.00  0.00    -0.383 OA
ATOM     19  H   UNL     1      33.841 -13.984 -20.444  0.00  0.00    +0.210 HD
ENDBRANCH  17  18
BRANCH  17  20
ATOM     20  C   UNL     1      33.803 -13.826 -23.432  0.00  0.00    +0.232 C 
BRANCH  20  21
ATOM     21  O   UNL     1      34.669 -14.901 -23.078  0.00  0.00    -0.473 OA
BRANCH  21  22
ATOM     22  C   UNL     1      34.243 -16.163 -23.392  0.00  0.00    +0.139 C 
ATOM     23  C   UNL     1      34.555 -17.261 -22.576  0.00  0.00    +0.034 C 
ATOM     24  C   UNL     1      34.092 -18.547 -22.943  0.00  0.00    +0.003 C 
ATOM     25  C   UNL     1      33.486 -16.325 -24.551  0.00  0.00    +0.037 C 
ATOM     26  C   UNL     1      35.316 -17.113 -21.405  0.00  0.00    +0.003 C 
ATOM     27  C   UNL     1      33.331 -18.694 -24.114  0.00  0.00    +0.000 C 
ATOM     28  C   UNL     1      33.031 -17.590 -24.912  0.00  0.00    +0.003 C 
ATOM     29  C   UNL     1      34.403 -19.648 -22.128  0.00  0.00    +0.000 C 
ATOM     30  C   UNL     1      35.616 -18.218 -20.607  0.00  0.00    +0.000 C 
ATOM     31  C   UNL     1      35.161 -19.483 -20.968  0.00  0.00    +0.000 C 
ENDBRANCH  21  22
ENDBRANCH  20  21
ENDBRANCH  17  20
ENDBRANCH   1  17
TORSDOF 8
ENDMDL
MODEL 6
REMARK VINA RESULT:     -10.7      2.143      3.956
REMARK  Name = 4418
REMARK  8 active torsions:
REMARK  status: ('A' for Active; 'I' for Inactive)
REMARK    1  A    between atoms: C_1  and  N_2
REMARK    2  A    between atoms: C_1  and  C_17
REMARK    3  A    between atoms: N_3  and  C_9
REMARK    4  A    between atoms: C_10  and  O_15
REMARK    5  A    between atoms: C_17  and  O_18
REMARK    6  A    between atoms: C_17  and  C_20
REMARK    7  A    between atoms: C_20  and  O_21
REMARK    8  A    between atoms: O_21  and  C_22
REMARK                            x       y       z     vdW  Elec       q    Type
REMARK                         _______ _______ _______ _____ _____    ______ ____
ROOT
ATOM      1  C   UNL     1      35.400 -18.292 -22.088  0.00  0.00    -0.043 C 
ENDROOT
BRANCH   1   2
ATOM      2  N   UNL     1      35.142 -16.853 -22.066  0.00  0.00    +0.391 N 
ATOM      3  N   UNL     1      33.534 -14.492 -22.041  0.00  0.00    -0.309 N 
ATOM      4  C   UNL     1      34.405 -16.444 -23.268  0.00  0.00    -0.055 C 
ATOM      5  C   UNL     1      34.384 -16.483 -20.866  0.00  0.00    -0.055 C 
ATOM      6  C   UNL     1      34.179 -14.931 -23.285  0.00  0.00    +0.068 C 
ATOM      7  C   UNL     1      34.156 -14.971 -20.802  0.00  0.00    +0.068 C 
ATOM      8  H   UNL     1      36.041 -16.369 -22.050  0.00  0.00    -0.079 HD
BRANCH   3   9
ATOM      9  C   UNL     1      32.853 -13.269 -22.048  0.00  0.00    +0.082 C 
ATOM     10  C   UNL     1      32.776 -12.472 -23.209  0.00  0.00    +0.152 C 
ATOM     11  C   UNL     1      32.220 -12.798 -20.881  0.00  0.00    +0.018 C 
ATOM     12  C   UNL     1      32.094 -11.256 -23.202  0.00  0.00    +0.038 C 
ATOM     13  C   UNL     1      31.538 -11.581 -20.874  0.00  0.00    +0.001 C 
ATOM     14  C   UNL     1      31.474 -10.810 -22.035  0.00  0.00    +0.003 C 
BRANCH  10  15
ATOM     15  O   UNL     1      33.374 -12.891 -24.360  0.00  0.00    -0.470 OA
ATOM     16  C   UNL     1      32.598 -12.823 -25.554  0.00  0.00    +0.253 C 
ENDBRANCH  10  15
ENDBRANCH   3   9
ENDBRANCH   1   2
BRANCH   1  17
ATOM     17  C   UNL     1      34.602 -19.035 -21.014  0.00  0.00    +0.133 C 
BRANCH  17  18
ATOM     18  O   UNL     1      33.472 -19.648 -21.641  0.00  0.00    -0.383 OA
ATOM     19  H   UNL     1      32.717 -19.039 -21.613  0.00  0.00    +0.210 HD
ENDBRANCH  17  18
BRANCH  17  20
ATOM     20  C   UNL     1      35.410 -20.117 -20.301  0.00  0.00    +0.232 C 
BRANCH  20  21
ATOM     21  O   UNL     1      34.511 -20.993 -19.627  0.00  0.00    -0.473 OA
BRANCH  21  22
ATOM     22  C   UNL     1      34.887 -21.424 -18.384  0.00  0.00    +0.139 C 
ATOM     23  C   UNL     1      33.956 -21.974 -17.490  0.00  0.00    +0.034 C 
ATOM     24  C   UNL     1      34.394 -22.405 -16.216  0.00  0.00    +0.003 C 
ATOM     25  C   UNL     1      36.230 -21.299 -18.031  0.00  0.00    +0.037 C 
ATOM     26  C   UNL     1      32.600 -22.106 -17.832  0.00  0.00    +0.003 C 
ATOM     27  C   UNL     1      35.750 -22.273 -15.874  0.00  0.00    +0.000 C 
ATOM     28  C   UNL     1      36.661 -21.723 -16.777  0.00  0.00    +0.003 C 
ATOM     29  C   UNL     1      33.463 -22.956 -15.320  0.00  0.00    +0.000 C 
ATOM     30  C   UNL     1      31.689 -22.656 -16.929  0.00  0.00    +0.000 C 
ATOM     31  C   UNL     1      32.120 -23.080 -15.676  0.00  0.00    +0.000 C 
ENDBRANCH  21  22
ENDBRANCH  20  21
ENDBRANCH  17  20
ENDBRANCH   1  17
TORSDOF 8
ENDMDL
MODEL 7
REMARK VINA RESULT:     -10.6      4.203     11.249
REMARK  Name = 4418
REMARK  8 active torsions:
REMARK  status: ('A' for Active; 'I' for Inactive)
REMARK    1  A    between atoms: C_1  and  N_2
REMARK    2  A    between atoms: C_1  and  C_17
REMARK    3  A    between atoms: N_3  and  C_9
REMARK    4  A    between atoms: C_10  and  O_15
REMARK    5  A    between atoms: C_17  and  O_18
REMARK    6  A    between atoms: C_17  and  C_20
REMARK    7  A    between atoms: C_20  and  O_21
REMARK    8  A    between atoms: O_21  and  C_22
REMARK                            x       y       z     vdW  Elec       q    Type
REMARK                         _______ _______ _______ _____ _____    ______ ____
ROOT
ATOM      1  C   UNL     1      33.470 -13.790 -23.723  0.00  0.00    -0.043 C 
ENDROOT
BRANCH   1   2
ATOM      2  N   UNL     1      34.108 -14.946 -23.094  0.00  0.00    +0.391 N 
ATOM      3  N   UNL     1      34.198 -17.425 -21.679  0.00  0.00    -0.309 N 
ATOM      4  C   UNL     1      33.786 -14.995 -21.662  0.00  0.00    -0.055 C 
ATOM      5  C   UNL     1      33.680 -16.189 -23.745  0.00  0.00    -0.055 C 
ATOM      6  C   UNL     1      34.495 -16.168 -20.981  0.00  0.00    +0.068 C 
ATOM      7  C   UNL     1      34.384 -17.402 -23.134  0.00  0.00    +0.068 C 
ATOM      8  H   UNL     1      35.119 -14.849 -23.201  0.00  0.00    -0.079 HD
BRANCH   3   9
ATOM      9  C   UNL     1      34.368 -18.624 -20.976  0.00  0.00    +0.082 C 
ATOM     10  C   UNL     1      35.628 -19.017 -20.478  0.00  0.00    +0.152 C 
ATOM     11  C   UNL     1      33.271 -19.479 -20.747  0.00  0.00    +0.018 C 
ATOM     12  C   UNL     1      35.782 -20.214 -19.779  0.00  0.00    +0.038 C 
ATOM     13  C   UNL     1      33.427 -20.676 -20.049  0.00  0.00    +0.001 C 
ATOM     14  C   UNL     1      34.682 -21.044 -19.564  0.00  0.00    +0.003 C 
BRANCH  10  15
ATOM     15  O   UNL     1      36.715 -18.220 -20.677  0.00  0.00    -0.470 OA
ATOM     16  C   UNL     1      37.344 -18.292 -21.955  0.00  0.00    +0.253 C 
ENDBRANCH  10  15
ENDBRANCH   3   9
ENDBRANCH   1   2
BRANCH   1  17
ATOM     17  C   UNL     1      33.405 -12.586 -22.780  0.00  0.00    +0.133 C 
BRANCH  17  18
ATOM     18  O   UNL     1      33.963 -11.457 -23.458  0.00  0.00    -0.383 OA
ATOM     19  H   UNL     1      34.213 -11.712 -24.360  0.00  0.00    +0.210 HD
ENDBRANCH  17  18
BRANCH  17  20
ATOM     20  C   UNL     1      31.985 -12.237 -22.340  0.00  0.00    +0.232 C 
BRANCH  20  21
ATOM     21  O   UNL     1      31.710 -10.887 -22.702  0.00  0.00    -0.473 OA
BRANCH  21  22
ATOM     22  C   UNL     1      31.610  -9.984 -21.678  0.00  0.00    +0.139 C 
ATOM     23  C   UNL     1      32.040  -8.658 -21.833  0.00  0.00    +0.034 C 
ATOM     24  C   UNL     1      31.916  -7.761 -20.746  0.00  0.00    +0.003 C 
ATOM     25  C   UNL     1      31.065 -10.424 -20.473  0.00  0.00    +0.037 C 
ATOM     26  C   UNL     1      32.591  -8.200 -23.041  0.00  0.00    +0.003 C 
ATOM     27  C   UNL     1      31.365  -8.219 -19.537  0.00  0.00    +0.000 C 
ATOM     28  C   UNL     1      30.943  -9.542 -19.403  0.00  0.00    +0.003 C 
ATOM     29  C   UNL     1      32.346  -6.433 -20.897  0.00  0.00    +0.000 C 
ATOM     30  C   UNL     1      33.014  -6.877 -23.175  0.00  0.00    +0.000 C 
ATOM     31  C   UNL     1      32.891  -5.995 -22.105  0.00  0.00    +0.000 C 
ENDBRANCH  21  22
ENDBRANCH  20  21
ENDBRANCH  17  20
ENDBRANCH   1  17
TORSDOF 8
ENDMDL
MODEL 8
REMARK VINA RESULT:     -10.6      1.618      9.776
REMARK  Name = 4418
REMARK  8 active torsions:
REMARK  status: ('A' for Active; 'I' for Inactive)
REMARK    1  A    between atoms: C_1  and  N_2
REMARK    2  A    between atoms: C_1  and  C_17
REMARK    3  A    between atoms: N_3  and  C_9
REMARK    4  A    between atoms: C_10  and  O_15
REMARK    5  A    between atoms: C_17  and  O_18
REMARK    6  A    between atoms: C_17  and  C_20
REMARK    7  A    between atoms: C_20  and  O_21
REMARK    8  A    between atoms: O_21  and  C_22
REMARK                            x       y       z     vdW  Elec       q    Type
REMARK                         _______ _______ _______ _____ _____    ______ ____
ROOT
ATOM      1  C   UNL     1      35.649 -20.831 -20.518  0.00  0.00    -0.043 C 
ENDROOT
BRANCH   1   2
ATOM      2  N   UNL     1      35.275 -21.689 -19.395  0.00  0.00    +0.391 N 
ATOM      3  N   UNL     1      34.003 -22.341 -16.922  0.00  0.00    -0.309 N 
ATOM      4  C   UNL     1      35.776 -21.130 -18.133  0.00  0.00    -0.055 C 
ATOM      5  C   UNL     1      33.818 -21.846 -19.328  0.00  0.00    -0.055 C 
ATOM      6  C   UNL     1      35.442 -22.049 -16.956  0.00  0.00    +0.068 C 
ATOM      7  C   UNL     1      33.417 -22.789 -18.190  0.00  0.00    +0.068 C 
ATOM      8  H   UNL     1      35.700 -22.606 -19.541  0.00  0.00    -0.079 HD
BRANCH   3   9
ATOM      9  C   UNL     1      33.446 -22.769 -15.711  0.00  0.00    +0.082 C 
ATOM     10  C   UNL     1      32.051 -22.809 -15.512  0.00  0.00    +0.152 C 
ATOM     11  C   UNL     1      34.276 -23.177 -14.648  0.00  0.00    +0.018 C 
ATOM     12  C   UNL     1      31.509 -23.238 -14.301  0.00  0.00    +0.038 C 
ATOM     13  C   UNL     1      33.734 -23.605 -13.436  0.00  0.00    +0.001 C 
ATOM     14  C   UNL     1      32.351 -23.637 -13.262  0.00  0.00    +0.003 C 
BRANCH  10  15
ATOM     15  O   UNL     1      31.211 -22.423 -16.514  0.00  0.00    -0.470 OA
ATOM     16  C   UNL     1      29.812 -22.491 -16.248  0.00  0.00    +0.253 C 
ENDBRANCH  10  15
ENDBRANCH   3   9
ENDBRANCH   1   2
BRANCH   1  17
ATOM     17  C   UNL     1      35.365 -19.354 -20.232  0.00  0.00    +0.133 C 
BRANCH  17  18
ATOM     18  O   UNL     1      36.618 -18.678 -20.092  0.00  0.00    -0.383 OA
ATOM     19  H   UNL     1      37.097 -19.040 -19.331  0.00  0.00    +0.210 HD
ENDBRANCH  17  18
BRANCH  17  20
ATOM     20  C   UNL     1      34.561 -18.668 -21.334  0.00  0.00    +0.232 C 
BRANCH  20  21
ATOM     21  O   UNL     1      34.812 -17.267 -21.283  0.00  0.00    -0.473 OA
BRANCH  21  22
ATOM     22  C   UNL     1      34.382 -16.525 -22.349  0.00  0.00    +0.139 C 
ATOM     23  C   UNL     1      33.978 -15.191 -22.192  0.00  0.00    +0.034 C 
ATOM     24  C   UNL     1      33.541 -14.464 -23.324  0.00  0.00    +0.003 C 
ATOM     25  C   UNL     1      34.358 -17.137 -23.601  0.00  0.00    +0.037 C 
ATOM     26  C   UNL     1      33.997 -14.560 -20.936  0.00  0.00    +0.003 C 
ATOM     27  C   UNL     1      33.523 -15.094 -24.580  0.00  0.00    +0.000 C 
ATOM     28  C   UNL     1      33.929 -16.422 -24.715  0.00  0.00    +0.003 C 
ATOM     29  C   UNL     1      33.136 -13.128 -23.170  0.00  0.00    +0.000 C 
ATOM     30  C   UNL     1      33.590 -13.232 -20.800  0.00  0.00    +0.000 C 
ATOM     31  C   UNL     1      33.161 -12.517 -21.915  0.00  0.00    +0.000 C 
ENDBRANCH  21  22
ENDBRANCH  20  21
ENDBRANCH  17  20
ENDBRANCH   1  17
TORSDOF 8
ENDMDL
MODEL 9
REMARK VINA RESULT:     -10.6      4.500      8.087
REMARK  Name = 4418
REMARK  8 active torsions:
REMARK  status: ('A' for Active; 'I' for Inactive)
REMARK    1  A    between atoms: C_1  and  N_2
REMARK    2  A    between atoms: C_1  and  C_17
REMARK    3  A    between atoms: N_3  and  C_9
REMARK    4  A    between atoms: C_10  and  O_15
REMARK    5  A    between atoms: C_17  and  O_18
REMARK    6  A    between atoms: C_17  and  C_20
REMARK    7  A    between atoms: C_20  and  O_21
REMARK    8  A    between atoms: O_21  and  C_22
REMARK                            x       y       z     vdW  Elec       q    Type
REMARK                         _______ _______ _______ _____ _____    ______ ____
ROOT
ATOM      1  C   UNL     1      33.472 -14.111 -22.418  0.00  0.00    -0.043 C 
ENDROOT
BRANCH   1   2
ATOM      2  N   UNL     1      32.709 -12.895 -22.699  0.00  0.00    +0.391 N 
ATOM      3  N   UNL     1      31.967 -10.154 -22.393  0.00  0.00    -0.309 N 
ATOM      4  C   UNL     1      31.990 -12.451 -21.498  0.00  0.00    -0.055 C 
ATOM      5  C   UNL     1      33.597 -11.828 -23.173  0.00  0.00    -0.055 C 
ATOM      6  C   UNL     1      31.143 -11.212 -21.794  0.00  0.00    +0.068 C 
ATOM      7  C   UNL     1      32.804 -10.567 -23.525  0.00  0.00    +0.068 C 
ATOM      8  H   UNL     1      32.030 -13.108 -23.430  0.00  0.00    -0.079 HD
BRANCH   3   9
ATOM      9  C   UNL     1      31.504  -8.836 -22.318  0.00  0.00    +0.082 C 
ATOM     10  C   UNL     1      31.576  -8.093 -21.121  0.00  0.00    +0.152 C 
ATOM     11  C   UNL     1      30.946  -8.209 -23.451  0.00  0.00    +0.018 C 
ATOM     12  C   UNL     1      31.110  -6.780 -21.061  0.00  0.00    +0.038 C 
ATOM     13  C   UNL     1      30.480  -6.896 -23.389  0.00  0.00    +0.001 C 
ATOM     14  C   UNL     1      30.563  -6.181 -22.195  0.00  0.00    +0.003 C 
BRANCH  10  15
ATOM     15  O   UNL     1      32.108  -8.661 -20.002  0.00  0.00    -0.470 OA
ATOM     16  C   UNL     1      31.201  -8.999 -18.955  0.00  0.00    +0.253 C 
ENDBRANCH  10  15
ENDBRANCH   3   9
ENDBRANCH   1   2
BRANCH   1  17
ATOM     17  C   UNL     1      33.186 -15.217 -23.437  0.00  0.00    +0.133 C 
BRANCH  17  18
ATOM     18  O   UNL     1      33.038 -14.611 -24.724  0.00  0.00    -0.383 OA
ATOM     19  H   UNL     1      32.842 -15.295 -25.384  0.00  0.00    +0.210 HD
ENDBRANCH  17  18
BRANCH  17  20
ATOM     20  C   UNL     1      34.292 -16.267 -23.517  0.00  0.00    +0.232 C 
BRANCH  20  21
ATOM     21  O   UNL     1      33.813 -17.484 -22.954  0.00  0.00    -0.473 OA
BRANCH  21  22
ATOM     22  C   UNL     1      34.662 -18.149 -22.111  0.00  0.00    +0.139 C 
ATOM     23  C   UNL     1      34.186 -19.108 -21.206  0.00  0.00    +0.034 C 
ATOM     24  C   UNL     1      35.103 -19.769 -20.355  0.00  0.00    +0.003 C 
ATOM     25  C   UNL     1      36.020 -17.843 -22.182  0.00  0.00    +0.037 C 
ATOM     26  C   UNL     1      32.820 -19.427 -21.124  0.00  0.00    +0.003 C 
ATOM     27  C   UNL     1      36.469 -19.450 -20.437  0.00  0.00    +0.000 C 
ATOM     28  C   UNL     1      36.923 -18.493 -21.345  0.00  0.00    +0.003 C 
ATOM     29  C   UNL     1      34.629 -20.730 -19.447  0.00  0.00    +0.000 C 
ATOM     30  C   UNL     1      32.366 -20.385 -20.216  0.00  0.00    +0.000 C 
ATOM     31  C   UNL     1      33.269 -21.035 -19.379  0.00  0.00    +0.000 C 
ENDBRANCH  21  22
ENDBRANCH  20  21
ENDBRANCH  17  20
ENDBRANCH   1  17
TORSDOF 8
ENDMDL
