MODEL 1
REMARK VINA RESULT:     -11.1      0.000      0.000
REMARK  Name = 24178119
REMARK  2 active torsions:
REMARK  status: ('A' for Active; 'I' for Inactive)
REMARK    1  A    between atoms: N_2  and  C_16
REMARK    2  A    between atoms: C_4  and  O_22
REMARK                            x       y       z     vdW  Elec       q    Type
REMARK                         _______ _______ _______ _____ _____    ______ ____
ROOT
ATOM      1  O   UNL     1      31.430 -21.463 -18.096  0.00  0.00    -0.292 OA
ATOM      2  N   UNL     1      34.401 -23.400 -15.204  0.00  0.00    -0.264 N 
ATOM      3  N   UNL     1      35.318 -22.111 -17.060  0.00  0.00    -0.392 NA
ATOM      4  C   UNL     1      33.004 -22.937 -17.053  0.00  0.00    +0.201 C 
ATOM      5  C   UNL     1      32.147 -23.140 -15.809  0.00  0.00    +0.064 C 
ATOM      6  C   UNL     1      33.069 -23.906 -14.853  0.00  0.00    +0.101 C 
ATOM      7  C   UNL     1      34.386 -22.761 -16.440  0.00  0.00    +0.194 C 
ATOM      8  C   UNL     1      32.595 -21.814 -17.964  0.00  0.00    +0.192 C 
ATOM      9  C   UNL     1      33.709 -21.208 -18.718  0.00  0.00    +0.131 C 
ATOM     10  C   UNL     1      35.019 -21.434 -18.260  0.00  0.00    +0.121 C 
ATOM     11  C   UNL     1      33.459 -20.459 -19.869  0.00  0.00    -0.031 C 
ATOM     12  C   UNL     1      36.078 -20.891 -18.997  0.00  0.00    +0.028 C 
ATOM     13  C   UNL     1      34.529 -19.930 -20.588  0.00  0.00    -0.008 C 
ATOM     14  C   UNL     1      35.837 -20.149 -20.155  0.00  0.00    +0.002 C 
ATOM     15  C   UNL     1      32.088 -20.205 -20.406  0.00  0.00    +0.027 C 
ENDROOT
BRANCH   2  16
ATOM     16  C   UNL     1      35.489 -23.593 -14.388  0.00  0.00    +0.053 C 
ATOM     17  C   UNL     1      35.668 -22.790 -13.261  0.00  0.00    +0.015 C 
ATOM     18  C   UNL     1      36.416 -24.593 -14.686  0.00  0.00    +0.015 C 
ATOM     19  C   UNL     1      36.773 -22.986 -12.434  0.00  0.00    +0.001 C 
ATOM     20  C   UNL     1      37.521 -24.789 -13.858  0.00  0.00    +0.001 C 
ATOM     21  C   UNL     1      37.700 -23.985 -12.732  0.00  0.00    +0.000 C 
ENDBRANCH   2  16
BRANCH   4  22
ATOM     22  O   UNL     1      33.031 -24.095 -17.871  0.00  0.00    -0.373 OA
ATOM     23  H   UNL     1      33.443 -24.825 -17.382  0.00  0.00    +0.211 HD
ENDBRANCH   4  22
TORSDOF 2
ENDMDL
MODEL 2
REMARK VINA RESULT:      -9.8     11.364     14.344
REMARK  Name = 24178119
REMARK  2 active torsions:
REMARK  status: ('A' for Active; 'I' for Inactive)
REMARK    1  A    between atoms: N_2  and  C_16
REMARK    2  A    between atoms: C_4  and  O_22
REMARK                            x       y       z     vdW  Elec       q    Type
REMARK                         _______ _______ _______ _____ _____    ______ ____
ROOT
ATOM      1  O   UNL     1      31.376  -7.472 -20.187  0.00  0.00    -0.292 OA
ATOM      2  N   UNL     1      32.112 -11.611 -21.997  0.00  0.00    -0.264 N 
ATOM      3  N   UNL     1      33.133  -9.697 -23.114  0.00  0.00    -0.392 NA
ATOM      4  C   UNL     1      31.271  -9.452 -21.531  0.00  0.00    +0.201 C 
ATOM      5  C   UNL     1      30.999 -10.368 -20.344  0.00  0.00    +0.064 C 
ATOM      6  C   UNL     1      31.109 -11.778 -20.939  0.00  0.00    +0.101 C 
ATOM      7  C   UNL     1      32.291 -10.266 -22.312  0.00  0.00    +0.194 C 
ATOM      8  C   UNL     1      31.727  -8.058 -21.202  0.00  0.00    +0.192 C 
ATOM      9  C   UNL     1      32.591  -7.445 -22.230  0.00  0.00    +0.131 C 
ATOM     10  C   UNL     1      33.205  -8.291 -23.169  0.00  0.00    +0.121 C 
ATOM     11  C   UNL     1      32.760  -6.060 -22.275  0.00  0.00    -0.031 C 
ATOM     12  C   UNL     1      33.994  -7.706 -24.167  0.00  0.00    +0.028 C 
ATOM     13  C   UNL     1      33.548  -5.499 -23.278  0.00  0.00    -0.008 C 
ATOM     14  C   UNL     1      34.161  -6.320 -24.225  0.00  0.00    +0.002 C 
ATOM     15  C   UNL     1      32.115  -5.118 -21.311  0.00  0.00    +0.027 C 
ENDROOT
BRANCH   2  16
ATOM     16  C   UNL     1      32.736 -12.685 -22.582  0.00  0.00    +0.053 C 
ATOM     17  C   UNL     1      32.572 -12.931 -23.946  0.00  0.00    +0.015 C 
ATOM     18  C   UNL     1      33.535 -13.531 -21.813  0.00  0.00    +0.015 C 
ATOM     19  C   UNL     1      33.205 -14.021 -24.539  0.00  0.00    +0.001 C 
ATOM     20  C   UNL     1      34.170 -14.622 -22.407  0.00  0.00    +0.001 C 
ATOM     21  C   UNL     1      34.005 -14.867 -23.770  0.00  0.00    +0.000 C 
ENDBRANCH   2  16
BRANCH   4  22
ATOM     22  O   UNL     1      30.122  -9.289 -22.346  0.00  0.00    -0.373 OA
ATOM     23  H   UNL     1      29.718  -8.425 -22.166  0.00  0.00    +0.211 HD
ENDBRANCH   4  22
TORSDOF 2
ENDMDL
MODEL 3
REMARK VINA RESULT:      -9.7      1.419      1.961
REMARK  Name = 24178119
REMARK  2 active torsions:
REMARK  status: ('A' for Active; 'I' for Inactive)
REMARK    1  A    between atoms: N_2  and  C_16
REMARK    2  A    between atoms: C_4  and  O_22
REMARK                            x       y       z     vdW  Elec       q    Type
REMARK                         _______ _______ _______ _____ _____    ______ ____
ROOT
ATOM      1  O   UNL     1      31.919 -20.503 -20.166  0.00  0.00    -0.292 OA
ATOM      2  N   UNL     1      34.249 -22.404 -16.716  0.00  0.00    -0.264 N 
ATOM      3  N   UNL     1      35.488 -20.975 -18.257  0.00  0.00    -0.392 NA
ATOM      4  C   UNL     1      33.299 -21.932 -18.828  0.00  0.00    +0.201 C 
ATOM      5  C   UNL     1      32.189 -22.245 -17.832  0.00  0.00    +0.064 C 
ATOM      6  C   UNL     1      32.909 -23.002 -16.710  0.00  0.00    +0.101 C 
ATOM      7  C   UNL     1      34.482 -21.707 -17.899  0.00  0.00    +0.194 C 
ATOM      8  C   UNL     1      33.041 -20.792 -19.772  0.00  0.00    +0.192 C 
ATOM      9  C   UNL     1      34.258 -20.087 -20.218  0.00  0.00    +0.131 C 
ATOM     10  C   UNL     1      35.435 -20.259 -19.470  0.00  0.00    +0.121 C 
ATOM     11  C   UNL     1      34.236 -19.298 -21.371  0.00  0.00    -0.031 C 
ATOM     12  C   UNL     1      36.599 -19.621 -19.914  0.00  0.00    +0.028 C 
ATOM     13  C   UNL     1      35.407 -18.674 -21.795  0.00  0.00    -0.008 C 
ATOM     14  C   UNL     1      36.587 -18.838 -21.071  0.00  0.00    +0.002 C 
ATOM     15  C   UNL     1      33.016 -19.098 -22.209  0.00  0.00    +0.027 C 
ENDROOT
BRANCH   2  16
ATOM     16  C   UNL     1      35.125 -22.573 -15.672  0.00  0.00    +0.053 C 
ATOM     17  C   UNL     1      34.640 -22.817 -14.386  0.00  0.00    +0.015 C 
ATOM     18  C   UNL     1      36.500 -22.502 -15.897  0.00  0.00    +0.015 C 
ATOM     19  C   UNL     1      35.530 -22.988 -13.327  0.00  0.00    +0.001 C 
ATOM     20  C   UNL     1      37.390 -22.674 -14.836  0.00  0.00    +0.001 C 
ATOM     21  C   UNL     1      36.905 -22.917 -13.552  0.00  0.00    +0.000 C 
ENDBRANCH   2  16
BRANCH   4  22
ATOM     22  O   UNL     1      33.596 -23.045 -19.655  0.00  0.00    -0.373 OA
ATOM     23  H   UNL     1      34.373 -23.510 -19.303  0.00  0.00    +0.211 HD
ENDBRANCH   4  22
TORSDOF 2
ENDMDL
MODEL 4
REMARK VINA RESULT:      -9.6      5.334      8.074
REMARK  Name = 24178119
REMARK  2 active torsions:
REMARK  status: ('A' for Active; 'I' for Inactive)
REMARK    1  A    between atoms: N_2  and  C_16
REMARK    2  A    between atoms: C_4  and  O_22
REMARK                            x       y       z     vdW  Elec       q    Type
REMARK                         _______ _______ _______ _____ _____    ______ ____
ROOT
ATOM      1  O   UNL     1      32.952 -15.597 -24.935  0.00  0.00    -0.292 OA
ATOM      2  N   UNL     1      34.215 -18.930 -22.063  0.00  0.00    -0.264 N 
ATOM      3  N   UNL     1      34.078 -16.665 -21.167  0.00  0.00    -0.392 NA
ATOM      4  C   UNL     1      34.213 -17.115 -23.578  0.00  0.00    +0.201 C 
ATOM      5  C   UNL     1      33.665 -18.355 -24.273  0.00  0.00    +0.064 C 
ATOM      6  C   UNL     1      34.177 -19.514 -23.409  0.00  0.00    +0.101 C 
ATOM      7  C   UNL     1      34.157 -17.539 -22.118  0.00  0.00    +0.194 C 
ATOM      8  C   UNL     1      33.499 -15.824 -23.865  0.00  0.00    +0.192 C 
ATOM      9  C   UNL     1      33.559 -14.842 -22.765  0.00  0.00    +0.131 C 
ATOM     10  C   UNL     1      33.901 -15.303 -21.482  0.00  0.00    +0.121 C 
ATOM     11  C   UNL     1      33.311 -13.489 -23.012  0.00  0.00    -0.031 C 
ATOM     12  C   UNL     1      33.996 -14.365 -20.448  0.00  0.00    +0.028 C 
ATOM     13  C   UNL     1      33.413 -12.573 -21.967  0.00  0.00    -0.008 C 
ATOM     14  C   UNL     1      33.758 -13.009 -20.688  0.00  0.00    +0.002 C 
ATOM     15  C   UNL     1      32.963 -12.948 -24.359  0.00  0.00    +0.027 C 
ENDROOT
BRANCH   2  16
ATOM     16  C   UNL     1      34.325 -19.707 -20.937  0.00  0.00    +0.053 C 
ATOM     17  C   UNL     1      35.584 -20.010 -20.417  0.00  0.00    +0.015 C 
ATOM     18  C   UNL     1      33.177 -20.193 -20.311  0.00  0.00    +0.015 C 
ATOM     19  C   UNL     1      35.694 -20.799 -19.273  0.00  0.00    +0.001 C 
ATOM     20  C   UNL     1      33.288 -20.983 -19.165  0.00  0.00    +0.001 C 
ATOM     21  C   UNL     1      34.546 -21.286 -18.647  0.00  0.00    +0.000 C 
ENDBRANCH   2  16
BRANCH   4  22
ATOM     22  O   UNL     1      35.570 -16.878 -23.914  0.00  0.00    -0.373 OA
ATOM     23  H   UNL     1      35.637 -16.677 -24.861  0.00  0.00    +0.211 HD
ENDBRANCH   4  22
TORSDOF 2
ENDMDL
MODEL 5
REMARK VINA RESULT:      -9.3      2.132      6.183
REMARK  Name = 24178119
REMARK  2 active torsions:
REMARK  status: ('A' for Active; 'I' for Inactive)
REMARK    1  A    between atoms: N_2  and  C_16
REMARK    2  A    between atoms: C_4  and  O_22
REMARK                            x       y       z     vdW  Elec       q    Type
REMARK                         _______ _______ _______ _____ _____    ______ ____
ROOT
ATOM      1  O   UNL     1      32.997 -23.488 -13.139  0.00  0.00    -0.292 OA
ATOM      2  N   UNL     1      34.360 -21.960 -17.232  0.00  0.00    -0.264 N 
ATOM      3  N   UNL     1      31.994 -22.483 -16.959  0.00  0.00    -0.392 NA
ATOM      4  C   UNL     1      33.710 -23.331 -15.420  0.00  0.00    +0.201 C 
ATOM      5  C   UNL     1      35.011 -22.616 -15.073  0.00  0.00    +0.064 C 
ATOM      6  C   UNL     1      35.571 -22.196 -16.437  0.00  0.00    +0.101 C 
ATOM      7  C   UNL     1      33.245 -22.537 -16.631  0.00  0.00    +0.194 C 
ATOM      8  C   UNL     1      32.689 -23.421 -14.321  0.00  0.00    +0.192 C 
ATOM      9  C   UNL     1      31.293 -23.471 -14.795  0.00  0.00    +0.131 C 
ATOM     10  C   UNL     1      31.023 -23.053 -16.110  0.00  0.00    +0.121 C 
ATOM     11  C   UNL     1      30.280 -23.951 -13.961  0.00  0.00    -0.031 C 
ATOM     12  C   UNL     1      29.705 -23.136 -16.572  0.00  0.00    +0.028 C 
ATOM     13  C   UNL     1      28.975 -24.026 -14.443  0.00  0.00    -0.008 C 
ATOM     14  C   UNL     1      28.688 -23.623 -15.747  0.00  0.00    +0.002 C 
ATOM     15  C   UNL     1      30.518 -24.423 -12.564  0.00  0.00    +0.027 C 
ENDROOT
BRANCH   2  16
ATOM     16  C   UNL     1      34.395 -21.276 -18.422  0.00  0.00    +0.053 C 
ATOM     17  C   UNL     1      33.206 -20.952 -19.077  0.00  0.00    +0.015 C 
ATOM     18  C   UNL     1      35.620 -20.905 -18.977  0.00  0.00    +0.015 C 
ATOM     19  C   UNL     1      33.242 -20.258 -20.285  0.00  0.00    +0.001 C 
ATOM     20  C   UNL     1      35.655 -20.210 -20.187  0.00  0.00    +0.001 C 
ATOM     21  C   UNL     1      34.467 -19.886 -20.840  0.00  0.00    +0.000 C 
ENDBRANCH   2  16
BRANCH   4  22
ATOM     22  O   UNL     1      33.938 -24.668 -15.833  0.00  0.00    -0.373 OA
ATOM     23  H   UNL     1      34.662 -24.688 -16.480  0.00  0.00    +0.211 HD
ENDBRANCH   4  22
TORSDOF 2
ENDMDL
MODEL 6
REMARK VINA RESULT:      -9.3      1.682      6.106
REMARK  Name = 24178119
REMARK  2 active torsions:
REMARK  status: ('A' for Active; 'I' for Inactive)
REMARK    1  A    between atoms: N_2  and  C_16
REMARK    2  A    between atoms: C_4  and  O_22
REMARK                            x       y       z     vdW  Elec       q    Type
REMARK                         _______ _______ _______ _____ _____    ______ ____
ROOT
ATOM      1  O   UNL     1      34.110 -25.134 -14.189  0.00  0.00    -0.292 OA
ATOM      2  N   UNL     1      33.538 -22.017 -17.491  0.00  0.00    -0.264 N 
ATOM      3  N   UNL     1      35.805 -22.376 -16.664  0.00  0.00    -0.392 NA
ATOM      4  C   UNL     1      33.821 -23.090 -15.404  0.00  0.00    +0.201 C 
ATOM      5  C   UNL     1      32.496 -23.524 -16.021  0.00  0.00    +0.064 C 
ATOM      6  C   UNL     1      32.199 -22.428 -17.052  0.00  0.00    +0.101 C 
ATOM      7  C   UNL     1      34.514 -22.452 -16.598  0.00  0.00    +0.194 C 
ATOM      8  C   UNL     1      34.626 -24.170 -14.737  0.00  0.00    +0.192 C 
ATOM      9  C   UNL     1      36.083 -23.940 -14.760  0.00  0.00    +0.131 C 
ATOM     10  C   UNL     1      36.593 -23.012 -15.684  0.00  0.00    +0.121 C 
ATOM     11  C   UNL     1      36.918 -24.609 -13.862  0.00  0.00    -0.031 C 
ATOM     12  C   UNL     1      37.971 -22.765 -15.680  0.00  0.00    +0.028 C 
ATOM     13  C   UNL     1      38.287 -24.346 -13.875  0.00  0.00    -0.008 C 
ATOM     14  C   UNL     1      38.812 -23.423 -14.779  0.00  0.00    +0.002 C 
ATOM     15  C   UNL     1      36.423 -25.590 -12.851  0.00  0.00    +0.027 C 
ENDROOT
BRANCH   2  16
ATOM     16  C   UNL     1      33.733 -21.272 -18.627  0.00  0.00    +0.053 C 
ATOM     17  C   UNL     1      35.025 -21.054 -19.107  0.00  0.00    +0.015 C 
ATOM     18  C   UNL     1      32.638 -20.733 -19.304  0.00  0.00    +0.015 C 
ATOM     19  C   UNL     1      35.223 -20.298 -20.261  0.00  0.00    +0.001 C 
ATOM     20  C   UNL     1      32.837 -19.977 -20.460  0.00  0.00    +0.001 C 
ATOM     21  C   UNL     1      34.128 -19.759 -20.938  0.00  0.00    +0.000 C 
ENDBRANCH   2  16
BRANCH   4  22
ATOM     22  O   UNL     1      33.640 -22.090 -14.415  0.00  0.00    -0.373 OA
ATOM     23  H   UNL     1      33.786 -21.215 -14.811  0.00  0.00    +0.211 HD
ENDBRANCH   4  22
TORSDOF 2
ENDMDL
MODEL 7
REMARK VINA RESULT:      -9.2      2.210      6.461
REMARK  Name = 24178119
REMARK  2 active torsions:
REMARK  status: ('A' for Active; 'I' for Inactive)
REMARK    1  A    between atoms: N_2  and  C_16
REMARK    2  A    between atoms: C_4  and  O_22
REMARK                            x       y       z     vdW  Elec       q    Type
REMARK                         _______ _______ _______ _____ _____    ______ ____
ROOT
ATOM      1  O   UNL     1      35.271 -25.150 -12.430  0.00  0.00    -0.292 OA
ATOM      2  N   UNL     1      34.369 -22.501 -16.051  0.00  0.00    -0.264 N 
ATOM      3  N   UNL     1      36.675 -23.233 -15.740  0.00  0.00    -0.392 NA
ATOM      4  C   UNL     1      35.024 -23.294 -13.923  0.00  0.00    +0.201 C 
ATOM      5  C   UNL     1      33.525 -23.506 -14.103  0.00  0.00    +0.064 C 
ATOM      6  C   UNL     1      33.153 -22.534 -15.230  0.00  0.00    +0.101 C 
ATOM      7  C   UNL     1      35.461 -23.009 -15.352  0.00  0.00    +0.194 C 
ATOM      8  C   UNL     1      35.777 -24.417 -13.268  0.00  0.00    +0.192 C 
ATOM      9  C   UNL     1      37.188 -24.524 -13.687  0.00  0.00    +0.131 C 
ATOM     10  C   UNL     1      37.579 -23.879 -14.873  0.00  0.00    +0.121 C 
ATOM     11  C   UNL     1      38.107 -25.225 -12.901  0.00  0.00    -0.031 C 
ATOM     12  C   UNL     1      38.925 -23.949 -15.249  0.00  0.00    +0.028 C 
ATOM     13  C   UNL     1      39.442 -25.279 -13.295  0.00  0.00    -0.008 C 
ATOM     14  C   UNL     1      39.852 -24.640 -14.465  0.00  0.00    +0.002 C 
ATOM     15  C   UNL     1      37.746 -25.911 -11.625  0.00  0.00    +0.027 C 
ENDROOT
BRANCH   2  16
ATOM     16  C   UNL     1      34.371 -21.993 -17.327  0.00  0.00    +0.053 C 
ATOM     17  C   UNL     1      33.198 -22.002 -18.083  0.00  0.00    +0.015 C 
ATOM     18  C   UNL     1      35.545 -21.468 -17.867  0.00  0.00    +0.015 C 
ATOM     19  C   UNL     1      33.200 -21.487 -19.379  0.00  0.00    +0.001 C 
ATOM     20  C   UNL     1      35.546 -20.951 -19.163  0.00  0.00    +0.001 C 
ATOM     21  C   UNL     1      34.374 -20.961 -19.919  0.00  0.00    +0.000 C 
ENDBRANCH   2  16
BRANCH   4  22
ATOM     22  O   UNL     1      35.304 -22.145 -13.141  0.00  0.00    -0.373 OA
ATOM     23  H   UNL     1      36.102 -22.303 -12.610  0.00  0.00    +0.211 HD
ENDBRANCH   4  22
TORSDOF 2
ENDMDL
MODEL 8
REMARK VINA RESULT:      -8.8      2.066      6.499
REMARK  Name = 24178119
REMARK  2 active torsions:
REMARK  status: ('A' for Active; 'I' for Inactive)
REMARK    1  A    between atoms: N_2  and  C_16
REMARK    2  A    between atoms: C_4  and  O_22
REMARK                            x       y       z     vdW  Elec       q    Type
REMARK                         _______ _______ _______ _____ _____    ______ ____
ROOT
ATOM      1  O   UNL     1      36.022 -22.796 -12.990  0.00  0.00    -0.292 OA
ATOM      2  N   UNL     1      35.442 -21.606 -17.371  0.00  0.00    -0.264 N 
ATOM      3  N   UNL     1      33.533 -22.584 -16.209  0.00  0.00    -0.392 NA
ATOM      4  C   UNL     1      35.832 -22.814 -15.378  0.00  0.00    +0.201 C 
ATOM      5  C   UNL     1      36.946 -21.793 -15.578  0.00  0.00    +0.064 C 
ATOM      6  C   UNL     1      36.871 -21.460 -17.073  0.00  0.00    +0.101 C 
ATOM      7  C   UNL     1      34.790 -22.319 -16.369  0.00  0.00    +0.194 C 
ATOM      8  C   UNL     1      35.316 -22.965 -13.975  0.00  0.00    +0.192 C 
ATOM      9  C   UNL     1      33.903 -23.382 -13.891  0.00  0.00    +0.131 C 
ATOM     10  C   UNL     1      33.097 -23.223 -15.031  0.00  0.00    +0.121 C 
ATOM     11  C   UNL     1      33.401 -23.946 -12.716  0.00  0.00    -0.031 C 
ATOM     12  C   UNL     1      31.767 -23.653 -14.964  0.00  0.00    +0.028 C 
ATOM     13  C   UNL     1      32.074 -24.369 -12.672  0.00  0.00    -0.008 C 
ATOM     14  C   UNL     1      31.259 -24.227 -13.795  0.00  0.00    +0.002 C 
ATOM     15  C   UNL     1      34.221 -24.153 -11.485  0.00  0.00    +0.027 C 
ENDROOT
BRANCH   2  16
ATOM     16  C   UNL     1      34.886 -21.107 -18.523  0.00  0.00    +0.053 C 
ATOM     17  C   UNL     1      33.518 -21.254 -18.759  0.00  0.00    +0.015 C 
ATOM     18  C   UNL     1      35.688 -20.453 -19.458  0.00  0.00    +0.015 C 
ATOM     19  C   UNL     1      32.954 -20.747 -19.929  0.00  0.00    +0.001 C 
ATOM     20  C   UNL     1      35.123 -19.945 -20.628  0.00  0.00    +0.001 C 
ATOM     21  C   UNL     1      33.757 -20.093 -20.864  0.00  0.00    +0.000 C 
ENDBRANCH   2  16
BRANCH   4  22
ATOM     22  O   UNL     1      36.232 -24.116 -15.774  0.00  0.00    -0.373 OA
ATOM     23  H   UNL     1      36.654 -24.072 -16.647  0.00  0.00    +0.211 HD
ENDBRANCH   4  22
TORSDOF 2
ENDMDL
MODEL 9
REMARK VINA RESULT:      -8.5      2.813      6.856
REMARK  Name = 24178119
REMARK  2 active torsions:
REMARK  status: ('A' for Active; 'I' for Inactive)
REMARK    1  A    between atoms: N_2  and  C_16
REMARK    2  A    between atoms: C_4  and  O_22
REMARK                            x       y       z     vdW  Elec       q    Type
REMARK                         _______ _______ _______ _____ _____    ______ ____
ROOT
ATOM      1  O   UNL     1      36.971 -22.216 -14.618  0.00  0.00    -0.292 OA
ATOM      2  N   UNL     1      32.593 -23.125 -15.596  0.00  0.00    -0.264 N 
ATOM      3  N   UNL     1      33.356 -23.583 -13.325  0.00  0.00    -0.392 NA
ATOM      4  C   UNL     1      34.916 -23.302 -15.201  0.00  0.00    +0.201 C 
ATOM      5  C   UNL     1      34.676 -22.419 -16.420  0.00  0.00    +0.064 C 
ATOM      6  C   UNL     1      33.255 -22.788 -16.862  0.00  0.00    +0.101 C 
ATOM      7  C   UNL     1      33.525 -23.352 -14.587  0.00  0.00    +0.194 C 
ATOM      8  C   UNL     1      35.985 -22.841 -14.250  0.00  0.00    +0.192 C 
ATOM      9  C   UNL     1      35.766 -23.250 -12.849  0.00  0.00    +0.131 C 
ATOM     10  C   UNL     1      34.474 -23.654 -12.471  0.00  0.00    +0.121 C 
ATOM     11  C   UNL     1      36.828 -23.259 -11.941  0.00  0.00    -0.031 C 
ATOM     12  C   UNL     1      34.275 -24.078 -11.152  0.00  0.00    +0.028 C 
ATOM     13  C   UNL     1      36.607 -23.687 -10.634  0.00  0.00    -0.008 C 
ATOM     14  C   UNL     1      35.334 -24.099 -10.240  0.00  0.00    +0.002 C 
ATOM     15  C   UNL     1      38.221 -22.856 -12.299  0.00  0.00    +0.027 C 
ENDROOT
BRANCH   2  16
ATOM     16  C   UNL     1      31.227 -23.218 -15.493  0.00  0.00    +0.053 C 
ATOM     17  C   UNL     1      30.410 -22.393 -16.267  0.00  0.00    +0.015 C 
ATOM     18  C   UNL     1      30.655 -24.138 -14.615  0.00  0.00    +0.015 C 
ATOM     19  C   UNL     1      29.023 -22.487 -16.162  0.00  0.00    +0.001 C 
ATOM     20  C   UNL     1      29.267 -24.233 -14.510  0.00  0.00    +0.001 C 
ATOM     21  C   UNL     1      28.451 -23.408 -15.284  0.00  0.00    +0.000 C 
ENDBRANCH   2  16
BRANCH   4  22
ATOM     22  O   UNL     1      35.282 -24.621 -15.568  0.00  0.00    -0.373 OA
ATOM     23  H   UNL     1      35.028 -25.235 -14.860  0.00  0.00    +0.211 HD
ENDBRANCH   4  22
TORSDOF 2
ENDMDL
