MODEL 1
REMARK VINA RESULT:     -10.9      0.000      0.000
REMARK  Name = 11349170
REMARK  6 active torsions:
REMARK  status: ('A' for Active; 'I' for Inactive)
REMARK    1  A    between atoms: N_3  and  C_12
REMARK    2  A    between atoms: C_5  and  C_20
REMARK    3  A    between atoms: C_15  and  O_18
REMARK    4  A    between atoms: C_20  and  N_21
REMARK    5  A    between atoms: C_22  and  N_28
REMARK    6  A    between atoms: C_23  and  O_32
REMARK                            x       y       z     vdW  Elec       q    Type
REMARK                         _______ _______ _______ _____ _____    ______ ____
ROOT
ATOM      1  N   UNL     1      35.013 -21.588 -17.976  0.00  0.00    -0.185 N 
ATOM      2  N   UNL     1      34.393 -21.552 -19.180  0.00  0.00    -0.151 NA
ATOM      3  N   UNL     1      32.487 -23.278 -15.862  0.00  0.00    -0.297 N 
ATOM      4  N   UNL     1      32.547 -22.664 -18.102  0.00  0.00    -0.206 NA
ATOM      5  C   UNL     1      35.363 -21.990 -15.843  0.00  0.00    -0.024 C 
ATOM      6  C   UNL     1      34.456 -22.133 -16.847  0.00  0.00    +0.100 C 
ATOM      7  C   UNL     1      36.503 -21.346 -16.346  0.00  0.00    +0.013 C 
ATOM      8  C   UNL     1      36.260 -21.105 -17.681  0.00  0.00    +0.089 C 
ATOM      9  C   UNL     1      33.134 -22.707 -16.931  0.00  0.00    +0.149 C 
ATOM     10  C   UNL     1      33.205 -22.087 -19.173  0.00  0.00    +0.219 C 
ATOM     11  H   UNL     1      33.055 -23.699 -15.177  0.00  0.00    +0.154 HD
ENDROOT
BRANCH   3  12
ATOM     12  C   UNL     1      31.113 -23.322 -15.647  0.00  0.00    +0.052 C 
ATOM     13  C   UNL     1      30.257 -22.417 -16.295  0.00  0.00    +0.052 C 
ATOM     14  C   UNL     1      30.554 -24.273 -14.776  0.00  0.00    +0.015 C 
ATOM     15  C   UNL     1      28.880 -22.461 -16.080  0.00  0.00    +0.140 C 
ATOM     16  C   UNL     1      29.177 -24.316 -14.561  0.00  0.00    +0.004 C 
ATOM     17  C   UNL     1      28.340 -23.412 -15.212  0.00  0.00    +0.037 C 
BRANCH  15  18
ATOM     18  O   UNL     1      28.062 -21.577 -16.714  0.00  0.00    -0.471 OA
ATOM     19  C   UNL     1      26.680 -21.920 -16.803  0.00  0.00    +0.252 C 
ENDBRANCH  15  18
ENDBRANCH   3  12
BRANCH   5  20
ATOM     20  C   UNL     1      35.208 -22.433 -14.413  0.00  0.00    -0.048 C 
BRANCH  20  21
ATOM     21  N   UNL     1      36.002 -23.610 -14.062  0.00  0.00    +0.391 N 
ATOM     22  C   UNL     1      38.113 -25.602 -14.461  0.00  0.00    -0.042 C 
ATOM     23  C   UNL     1      36.632 -25.920 -14.710  0.00  0.00    +0.070 C 
ATOM     24  C   UNL     1      38.243 -24.455 -13.456  0.00  0.00    -0.042 C 
ATOM     25  C   UNL     1      35.853 -24.654 -15.082  0.00  0.00    -0.049 C 
ATOM     26  C   UNL     1      37.414 -23.244 -13.885  0.00  0.00    -0.079 C 
ATOM     27  H   UNL     1      35.659 -23.982 -13.176  0.00  0.00    -0.079 HD
BRANCH  22  28
ATOM     28  N   UNL     1      38.819 -26.779 -13.951  0.00  0.00    +0.383 N 
ATOM     29  H   UNL     1      38.142 -27.458 -13.605  0.00  0.00    -0.089 HD
ATOM     30  H   UNL     1      39.439 -26.500 -13.190  0.00  0.00    -0.089 HD
ATOM     31  H   UNL     1      39.368 -27.197 -14.701  0.00  0.00    -0.089 HD
ENDBRANCH  22  28
BRANCH  23  32
ATOM     32  O   UNL     1      36.502 -26.837 -15.796  0.00  0.00    -0.389 OA
ATOM     33  H   UNL     1      36.291 -27.719 -15.450  0.00  0.00    +0.210 HD
ENDBRANCH  23  32
ENDBRANCH  20  21
ENDBRANCH   5  20
TORSDOF 6
ENDMDL
MODEL 2
REMARK VINA RESULT:     -10.8      1.461      1.693
REMARK  Name = 11349170
REMARK  6 active torsions:
REMARK  status: ('A' for Active; 'I' for Inactive)
REMARK    1  A    between atoms: N_3  and  C_12
REMARK    2  A    between atoms: C_5  and  C_20
REMARK    3  A    between atoms: C_15  and  O_18
REMARK    4  A    between atoms: C_20  and  N_21
REMARK    5  A    between atoms: C_22  and  N_28
REMARK    6  A    between atoms: C_23  and  O_32
REMARK                            x       y       z     vdW  Elec       q    Type
REMARK                         _______ _______ _______ _____ _____    ______ ____
ROOT
ATOM      1  N   UNL     1      35.118 -21.737 -18.165  0.00  0.00    -0.185 N 
ATOM      2  N   UNL     1      34.513 -21.956 -19.358  0.00  0.00    -0.151 NA
ATOM      3  N   UNL     1      32.663 -23.157 -15.786  0.00  0.00    -0.297 N 
ATOM      4  N   UNL     1      32.719 -22.960 -18.101  0.00  0.00    -0.206 NA
ATOM      5  C   UNL     1      35.460 -21.721 -15.994  0.00  0.00    -0.024 C 
ATOM      6  C   UNL     1      34.577 -22.098 -16.958  0.00  0.00    +0.100 C 
ATOM      7  C   UNL     1      36.569 -21.115 -16.602  0.00  0.00    +0.013 C 
ATOM      8  C   UNL     1      36.332 -21.135 -17.959  0.00  0.00    +0.089 C 
ATOM      9  C   UNL     1      33.292 -22.754 -16.940  0.00  0.00    +0.149 C 
ATOM     10  C   UNL     1      33.358 -22.550 -19.257  0.00  0.00    +0.219 C 
ATOM     11  H   UNL     1      33.244 -23.413 -15.034  0.00  0.00    +0.154 HD
ENDROOT
BRANCH   3  12
ATOM     12  C   UNL     1      31.291 -23.241 -15.571  0.00  0.00    +0.052 C 
ATOM     13  C   UNL     1      30.405 -22.400 -16.262  0.00  0.00    +0.052 C 
ATOM     14  C   UNL     1      30.765 -24.170 -14.658  0.00  0.00    +0.015 C 
ATOM     15  C   UNL     1      29.030 -22.484 -16.046  0.00  0.00    +0.140 C 
ATOM     16  C   UNL     1      29.390 -24.254 -14.442  0.00  0.00    +0.004 C 
ATOM     17  C   UNL     1      28.521 -23.412 -15.136  0.00  0.00    +0.037 C 
BRANCH  15  18
ATOM     18  O   UNL     1      28.182 -21.661 -16.722  0.00  0.00    -0.471 OA
ATOM     19  C   UNL     1      26.789 -21.961 -16.648  0.00  0.00    +0.252 C 
ENDBRANCH  15  18
ENDBRANCH   3  12
BRANCH   5  20
ATOM     20  C   UNL     1      35.312 -21.906 -14.507  0.00  0.00    -0.048 C 
BRANCH  20  21
ATOM     21  N   UNL     1      36.249 -22.865 -13.926  0.00  0.00    +0.391 N 
ATOM     22  C   UNL     1      36.999 -25.287 -12.457  0.00  0.00    -0.042 C 
ATOM     23  C   UNL     1      37.090 -23.889 -11.829  0.00  0.00    +0.070 C 
ATOM     24  C   UNL     1      37.094 -25.185 -13.982  0.00  0.00    -0.042 C 
ATOM     25  C   UNL     1      36.080 -22.931 -12.470  0.00  0.00    -0.049 C 
ATOM     26  C   UNL     1      36.076 -24.189 -14.537  0.00  0.00    -0.079 C 
ATOM     27  H   UNL     1      37.201 -22.549 -14.119  0.00  0.00    -0.079 HD
BRANCH  22  28
ATOM     28  N   UNL     1      38.068 -26.152 -11.958  0.00  0.00    +0.383 N 
ATOM     29  H   UNL     1      38.903 -25.594 -11.782  0.00  0.00    -0.089 HD
ATOM     30  H   UNL     1      38.279 -26.869 -12.654  0.00  0.00    -0.089 HD
ATOM     31  H   UNL     1      37.768 -26.599 -11.092  0.00  0.00    -0.089 HD
ENDBRANCH  22  28
BRANCH  23  32
ATOM     32  O   UNL     1      36.791 -23.957 -10.435  0.00  0.00    -0.389 OA
ATOM     33  H   UNL     1      36.692 -24.885 -10.171  0.00  0.00    +0.210 HD
ENDBRANCH  23  32
ENDBRANCH  20  21
ENDBRANCH   5  20
TORSDOF 6
ENDMDL
MODEL 3
REMARK VINA RESULT:     -10.5      2.328      7.252
REMARK  Name = 11349170
REMARK  6 active torsions:
REMARK  status: ('A' for Active; 'I' for Inactive)
REMARK    1  A    between atoms: N_3  and  C_12
REMARK    2  A    between atoms: C_5  and  C_20
REMARK    3  A    between atoms: C_15  and  O_18
REMARK    4  A    between atoms: C_20  and  N_21
REMARK    5  A    between atoms: C_22  and  N_28
REMARK    6  A    between atoms: C_23  and  O_32
REMARK                            x       y       z     vdW  Elec       q    Type
REMARK                         _______ _______ _______ _____ _____    ______ ____
ROOT
ATOM      1  N   UNL     1      34.442 -21.674 -18.048  0.00  0.00    -0.185 N 
ATOM      2  N   UNL     1      35.731 -21.307 -18.246  0.00  0.00    -0.151 NA
ATOM      3  N   UNL     1      34.605 -23.293 -14.724  0.00  0.00    -0.297 N 
ATOM      4  N   UNL     1      36.188 -22.283 -16.090  0.00  0.00    -0.206 NA
ATOM      5  C   UNL     1      32.661 -22.525 -17.081  0.00  0.00    -0.024 C 
ATOM      6  C   UNL     1      33.997 -22.325 -16.926  0.00  0.00    +0.100 C 
ATOM      7  C   UNL     1      32.261 -21.994 -18.316  0.00  0.00    +0.013 C 
ATOM      8  C   UNL     1      33.391 -21.468 -18.902  0.00  0.00    +0.089 C 
ATOM      9  C   UNL     1      34.945 -22.644 -15.886  0.00  0.00    +0.149 C 
ATOM     10  C   UNL     1      36.523 -21.631 -17.263  0.00  0.00    +0.219 C 
ATOM     11  H   UNL     1      33.689 -23.149 -14.389  0.00  0.00    +0.154 HD
ENDROOT
BRANCH   3  12
ATOM     12  C   UNL     1      35.418 -24.134 -13.969  0.00  0.00    +0.052 C 
ATOM     13  C   UNL     1      35.699 -23.841 -12.626  0.00  0.00    +0.052 C 
ATOM     14  C   UNL     1      35.973 -25.292 -14.537  0.00  0.00    +0.015 C 
ATOM     15  C   UNL     1      36.514 -24.683 -11.869  0.00  0.00    +0.140 C 
ATOM     16  C   UNL     1      36.788 -26.134 -13.781  0.00  0.00    +0.004 C 
ATOM     17  C   UNL     1      37.059 -25.831 -12.447  0.00  0.00    +0.037 C 
BRANCH  15  18
ATOM     18  O   UNL     1      36.779 -24.387 -10.567  0.00  0.00    -0.471 OA
ATOM     19  C   UNL     1      35.807 -23.614  -9.866  0.00  0.00    +0.252 C 
ENDBRANCH  15  18
ENDBRANCH   3  12
BRANCH   5  20
ATOM     20  C   UNL     1      31.727 -23.201 -16.113  0.00  0.00    -0.048 C 
BRANCH  20  21
ATOM     21  N   UNL     1      30.380 -22.634 -16.085  0.00  0.00    +0.391 N 
ATOM     22  C   UNL     1      27.553 -22.547 -15.320  0.00  0.00    -0.042 C 
ATOM     23  C   UNL     1      28.007 -22.968 -16.725  0.00  0.00    +0.070 C 
ATOM     24  C   UNL     1      28.610 -21.647 -14.674  0.00  0.00    -0.042 C 
ATOM     25  C   UNL     1      29.419 -23.562 -16.691  0.00  0.00    -0.049 C 
ATOM     26  C   UNL     1      29.992 -22.299 -14.708  0.00  0.00    -0.079 C 
ATOM     27  H   UNL     1      30.377 -21.773 -16.633  0.00  0.00    -0.079 HD
BRANCH  22  28
ATOM     28  N   UNL     1      26.276 -21.836 -15.377  0.00  0.00    +0.383 N 
ATOM     29  H   UNL     1      25.515 -22.509 -15.469  0.00  0.00    -0.089 HD
ATOM     30  H   UNL     1      26.272 -21.207 -16.181  0.00  0.00    -0.089 HD
ATOM     31  H   UNL     1      26.150 -21.294 -14.522  0.00  0.00    -0.089 HD
ENDBRANCH  22  28
BRANCH  23  32
ATOM     32  O   UNL     1      27.133 -23.970 -17.243  0.00  0.00    -0.389 OA
ATOM     33  H   UNL     1      27.053 -23.863 -18.204  0.00  0.00    +0.210 HD
ENDBRANCH  23  32
ENDBRANCH  20  21
ENDBRANCH   5  20
TORSDOF 6
ENDMDL
MODEL 4
REMARK VINA RESULT:     -10.4      2.061      7.375
REMARK  Name = 11349170
REMARK  6 active torsions:
REMARK  status: ('A' for Active; 'I' for Inactive)
REMARK    1  A    between atoms: N_3  and  C_12
REMARK    2  A    between atoms: C_5  and  C_20
REMARK    3  A    between atoms: C_15  and  O_18
REMARK    4  A    between atoms: C_20  and  N_21
REMARK    5  A    between atoms: C_22  and  N_28
REMARK    6  A    between atoms: C_23  and  O_32
REMARK                            x       y       z     vdW  Elec       q    Type
REMARK                         _______ _______ _______ _____ _____    ______ ____
ROOT
ATOM      1  N   UNL     1      34.737 -21.787 -17.741  0.00  0.00    -0.185 N 
ATOM      2  N   UNL     1      36.000 -21.321 -17.903  0.00  0.00    -0.151 NA
ATOM      3  N   UNL     1      34.731 -22.771 -14.173  0.00  0.00    -0.297 N 
ATOM      4  N   UNL     1      36.337 -21.848 -15.575  0.00  0.00    -0.206 NA
ATOM      5  C   UNL     1      32.960 -22.647 -16.775  0.00  0.00    -0.024 C 
ATOM      6  C   UNL     1      34.250 -22.277 -16.556  0.00  0.00    +0.100 C 
ATOM      7  C   UNL     1      32.632 -22.388 -18.114  0.00  0.00    +0.013 C 
ATOM      8  C   UNL     1      33.759 -21.851 -18.697  0.00  0.00    +0.089 C 
ATOM      9  C   UNL     1      35.120 -22.302 -15.405  0.00  0.00    +0.149 C 
ATOM     10  C   UNL     1      36.720 -21.379 -16.819  0.00  0.00    +0.219 C 
ATOM     11  H   UNL     1      33.779 -22.671 -13.943  0.00  0.00    +0.154 HD
ENDROOT
BRANCH   3  12
ATOM     12  C   UNL     1      35.544 -23.372 -13.215  0.00  0.00    +0.052 C 
ATOM     13  C   UNL     1      36.517 -24.311 -13.591  0.00  0.00    +0.052 C 
ATOM     14  C   UNL     1      35.407 -23.050 -11.855  0.00  0.00    +0.015 C 
ATOM     15  C   UNL     1      37.331 -24.914 -12.632  0.00  0.00    +0.140 C 
ATOM     16  C   UNL     1      36.221 -23.652 -10.897  0.00  0.00    +0.004 C 
ATOM     17  C   UNL     1      37.184 -24.584 -11.284  0.00  0.00    +0.037 C 
BRANCH  15  18
ATOM     18  O   UNL     1      38.270 -25.824 -13.010  0.00  0.00    -0.471 OA
ATOM     19  C   UNL     1      39.346 -25.351 -13.819  0.00  0.00    +0.252 C 
ENDBRANCH  15  18
ENDBRANCH   3  12
BRANCH   5  20
ATOM     20  C   UNL     1      32.005 -23.241 -15.774  0.00  0.00    -0.048 C 
BRANCH  20  21
ATOM     21  N   UNL     1      30.652 -22.691 -15.837  0.00  0.00    +0.391 N 
ATOM     22  C   UNL     1      27.793 -22.599 -15.203  0.00  0.00    -0.042 C 
ATOM     23  C   UNL     1      28.313 -23.090 -16.562  0.00  0.00    +0.070 C 
ATOM     24  C   UNL     1      28.810 -21.650 -14.563  0.00  0.00    -0.042 C 
ATOM     25  C   UNL     1      29.729 -23.663 -16.433  0.00  0.00    -0.049 C 
ATOM     26  C   UNL     1      30.199 -22.285 -14.500  0.00  0.00    -0.079 C 
ATOM     27  H   UNL     1      30.665 -21.862 -16.432  0.00  0.00    -0.079 HD
BRANCH  22  28
ATOM     28  N   UNL     1      26.512 -21.909 -15.356  0.00  0.00    +0.383 N 
ATOM     29  H   UNL     1      25.757 -22.517 -15.039  0.00  0.00    -0.089 HD
ATOM     30  H   UNL     1      26.367 -21.673 -16.339  0.00  0.00    -0.089 HD
ATOM     31  H   UNL     1      26.517 -21.054 -14.800  0.00  0.00    -0.089 HD
ENDBRANCH  22  28
BRANCH  23  32
ATOM     32  O   UNL     1      27.474 -24.131 -17.062  0.00  0.00    -0.389 OA
ATOM     33  H   UNL     1      27.140 -23.883 -17.938  0.00  0.00    +0.210 HD
ENDBRANCH  23  32
ENDBRANCH  20  21
ENDBRANCH   5  20
TORSDOF 6
ENDMDL
MODEL 5
REMARK VINA RESULT:     -10.3      2.705      6.508
REMARK  Name = 11349170
REMARK  6 active torsions:
REMARK  status: ('A' for Active; 'I' for Inactive)
REMARK    1  A    between atoms: N_3  and  C_12
REMARK    2  A    between atoms: C_5  and  C_20
REMARK    3  A    between atoms: C_15  and  O_18
REMARK    4  A    between atoms: C_20  and  N_21
REMARK    5  A    between atoms: C_22  and  N_28
REMARK    6  A    between atoms: C_23  and  O_32
REMARK                            x       y       z     vdW  Elec       q    Type
REMARK                         _______ _______ _______ _____ _____    ______ ____
ROOT
ATOM      1  N   UNL     1      36.381 -22.414 -14.641  0.00  0.00    -0.185 N 
ATOM      2  N   UNL     1      37.455 -21.651 -14.960  0.00  0.00    -0.151 NA
ATOM      3  N   UNL     1      34.390 -22.281 -17.758  0.00  0.00    -0.297 N 
ATOM      4  N   UNL     1      36.423 -21.357 -17.118  0.00  0.00    -0.206 NA
ATOM      5  C   UNL     1      34.458 -23.461 -14.837  0.00  0.00    -0.024 C 
ATOM      6  C   UNL     1      35.341 -22.665 -15.499  0.00  0.00    +0.100 C 
ATOM      7  C   UNL     1      34.948 -23.712 -13.548  0.00  0.00    +0.013 C 
ATOM      8  C   UNL     1      36.151 -23.047 -13.448  0.00  0.00    +0.089 C 
ATOM      9  C   UNL     1      35.379 -22.092 -16.823  0.00  0.00    +0.149 C 
ATOM     10  C   UNL     1      37.413 -21.170 -16.170  0.00  0.00    +0.219 C 
ATOM     11  H   UNL     1      33.897 -23.133 -17.713  0.00  0.00    +0.154 HD
ENDROOT
BRANCH   3  12
ATOM     12  C   UNL     1      34.012 -21.395 -18.763  0.00  0.00    +0.052 C 
ATOM     13  C   UNL     1      34.979 -20.702 -19.507  0.00  0.00    +0.052 C 
ATOM     14  C   UNL     1      32.655 -21.176 -19.051  0.00  0.00    +0.015 C 
ATOM     15  C   UNL     1      34.602 -19.814 -20.513  0.00  0.00    +0.140 C 
ATOM     16  C   UNL     1      32.277 -20.288 -20.058  0.00  0.00    +0.004 C 
ATOM     17  C   UNL     1      33.249 -19.607 -20.789  0.00  0.00    +0.037 C 
BRANCH  15  18
ATOM     18  O   UNL     1      35.550 -19.148 -21.227  0.00  0.00    -0.471 OA
ATOM     19  C   UNL     1      35.385 -17.738 -21.371  0.00  0.00    +0.252 C 
ENDBRANCH  15  18
ENDBRANCH   3  12
BRANCH   5  20
ATOM     20  C   UNL     1      33.157 -24.004 -15.364  0.00  0.00    -0.048 C 
BRANCH  20  21
ATOM     21  N   UNL     1      31.994 -23.171 -15.062  0.00  0.00    +0.391 N 
ATOM     22  C   UNL     1      29.136 -22.634 -14.704  0.00  0.00    -0.042 C 
ATOM     23  C   UNL     1      29.902 -22.178 -15.953  0.00  0.00    +0.070 C 
ATOM     24  C   UNL     1      30.099 -22.791 -13.524  0.00  0.00    -0.042 C 
ATOM     25  C   UNL     1      31.103 -23.091 -16.225  0.00  0.00    -0.049 C 
ATOM     26  C   UNL     1      31.282 -23.690 -13.887  0.00  0.00    -0.079 C 
ATOM     27  H   UNL     1      32.316 -22.228 -14.846  0.00  0.00    -0.079 HD
BRANCH  22  28
ATOM     28  N   UNL     1      28.091 -21.672 -14.355  0.00  0.00    +0.383 N 
ATOM     29  H   UNL     1      28.225 -20.814 -14.890  0.00  0.00    -0.089 HD
ATOM     30  H   UNL     1      28.142 -21.460 -13.357  0.00  0.00    -0.089 HD
ATOM     31  H   UNL     1      27.177 -22.069 -14.571  0.00  0.00    -0.089 HD
ENDBRANCH  22  28
BRANCH  23  32
ATOM     32  O   UNL     1      29.053 -22.235 -17.098  0.00  0.00    -0.389 OA
ATOM     33  H   UNL     1      29.406 -22.881 -17.730  0.00  0.00    +0.210 HD
ENDBRANCH  23  32
ENDBRANCH  20  21
ENDBRANCH   5  20
TORSDOF 6
ENDMDL
MODEL 6
REMARK VINA RESULT:     -10.0     14.147     16.794
REMARK  Name = 11349170
REMARK  6 active torsions:
REMARK  status: ('A' for Active; 'I' for Inactive)
REMARK    1  A    between atoms: N_3  and  C_12
REMARK    2  A    between atoms: C_5  and  C_20
REMARK    3  A    between atoms: C_15  and  O_18
REMARK    4  A    between atoms: C_20  and  N_21
REMARK    5  A    between atoms: C_22  and  N_28
REMARK    6  A    between atoms: C_23  and  O_32
REMARK                            x       y       z     vdW  Elec       q    Type
REMARK                         _______ _______ _______ _____ _____    ______ ____
ROOT
ATOM      1  N   UNL     1      31.454  -8.837 -20.138  0.00  0.00    -0.185 N 
ATOM      2  N   UNL     1      31.446  -7.679 -19.434  0.00  0.00    -0.151 NA
ATOM      3  N   UNL     1      32.934  -7.769 -23.358  0.00  0.00    -0.297 N 
ATOM      4  N   UNL     1      32.427  -6.656 -21.383  0.00  0.00    -0.206 NA
ATOM      5  C   UNL     1      31.771 -10.246 -21.795  0.00  0.00    -0.024 C 
ATOM      6  C   UNL     1      31.922  -8.946 -21.422  0.00  0.00    +0.100 C 
ATOM      7  C   UNL     1      31.201 -10.962 -20.732  0.00  0.00    +0.013 C 
ATOM      8  C   UNL     1      31.011 -10.060 -19.708  0.00  0.00    +0.089 C 
ATOM      9  C   UNL     1      32.441  -7.768 -22.076  0.00  0.00    +0.149 C 
ATOM     10  C   UNL     1      31.928  -6.664 -20.093  0.00  0.00    +0.219 C 
ATOM     11  H   UNL     1      33.348  -8.606 -23.671  0.00  0.00    +0.154 HD
ENDROOT
BRANCH   3  12
ATOM     12  C   UNL     1      32.909  -6.710 -24.261  0.00  0.00    +0.052 C 
ATOM     13  C   UNL     1      34.076  -5.986 -24.548  0.00  0.00    +0.052 C 
ATOM     14  C   UNL     1      31.714  -6.345 -24.904  0.00  0.00    +0.015 C 
ATOM     15  C   UNL     1      34.052  -4.926 -25.452  0.00  0.00    +0.140 C 
ATOM     16  C   UNL     1      31.690  -5.284 -25.808  0.00  0.00    +0.004 C 
ATOM     17  C   UNL     1      32.858  -4.574 -26.083  0.00  0.00    +0.037 C 
BRANCH  15  18
ATOM     18  O   UNL     1      35.192  -4.231 -25.721  0.00  0.00    -0.471 OA
ATOM     19  C   UNL     1      35.724  -4.341 -27.040  0.00  0.00    +0.252 C 
ENDBRANCH  15  18
ENDBRANCH   3  12
BRANCH   5  20
ATOM     20  C   UNL     1      32.142 -10.857 -23.120  0.00  0.00    -0.048 C 
BRANCH  20  21
ATOM     21  N   UNL     1      32.473 -12.279 -23.051  0.00  0.00    +0.391 N 
ATOM     22  C   UNL     1      34.178 -14.629 -23.448  0.00  0.00    -0.042 C 
ATOM     23  C   UNL     1      32.979 -14.327 -24.358  0.00  0.00    +0.070 C 
ATOM     24  C   UNL     1      33.973 -13.982 -22.075  0.00  0.00    -0.042 C 
ATOM     25  C   UNL     1      32.685 -12.823 -24.398  0.00  0.00    -0.049 C 
ATOM     26  C   UNL     1      33.655 -12.492 -22.205  0.00  0.00    -0.079 C 
ATOM     27  H   UNL     1      31.688 -12.777 -22.630  0.00  0.00    -0.079 HD
BRANCH  22  28
ATOM     28  N   UNL     1      34.356 -16.072 -23.285  0.00  0.00    +0.383 N 
ATOM     29  H   UNL     1      34.146 -16.543 -24.165  0.00  0.00    -0.089 HD
ATOM     30  H   UNL     1      33.724 -16.413 -22.559  0.00  0.00    -0.089 HD
ATOM     31  H   UNL     1      35.319 -16.268 -23.016  0.00  0.00    -0.089 HD
ENDBRANCH  22  28
BRANCH  23  32
ATOM     32  O   UNL     1      33.259 -14.743 -25.694  0.00  0.00    -0.389 OA
ATOM     33  H   UNL     1      32.551 -15.328 -26.005  0.00  0.00    +0.210 HD
ENDBRANCH  23  32
ENDBRANCH  20  21
ENDBRANCH   5  20
TORSDOF 6
ENDMDL
MODEL 7
REMARK VINA RESULT:      -9.9      7.182     10.661
REMARK  Name = 11349170
REMARK  6 active torsions:
REMARK  status: ('A' for Active; 'I' for Inactive)
REMARK    1  A    between atoms: N_3  and  C_12
REMARK    2  A    between atoms: C_5  and  C_20
REMARK    3  A    between atoms: C_15  and  O_18
REMARK    4  A    between atoms: C_20  and  N_21
REMARK    5  A    between atoms: C_22  and  N_28
REMARK    6  A    between atoms: C_23  and  O_32
REMARK                            x       y       z     vdW  Elec       q    Type
REMARK                         _______ _______ _______ _____ _____    ______ ____
ROOT
ATOM      1  N   UNL     1      33.625 -17.159 -24.516  0.00  0.00    -0.185 N 
ATOM      2  N   UNL     1      33.560 -18.301 -25.243  0.00  0.00    -0.151 NA
ATOM      3  N   UNL     1      34.902 -18.390 -21.267  0.00  0.00    -0.297 N 
ATOM      4  N   UNL     1      34.391 -19.428 -23.282  0.00  0.00    -0.206 NA
ATOM      5  C   UNL     1      33.982 -15.808 -22.819  0.00  0.00    -0.024 C 
ATOM      6  C   UNL     1      34.052 -17.108 -23.213  0.00  0.00    +0.100 C 
ATOM      7  C   UNL     1      33.505 -15.033 -23.887  0.00  0.00    +0.013 C 
ATOM      8  C   UNL     1      33.289 -15.899 -24.935  0.00  0.00    +0.089 C 
ATOM      9  C   UNL     1      34.459 -18.332 -22.566  0.00  0.00    +0.149 C 
ATOM     10  C   UNL     1      33.943 -19.360 -24.589  0.00  0.00    +0.219 C 
ATOM     11  H   UNL     1      35.364 -17.592 -20.922  0.00  0.00    +0.154 HD
ENDROOT
BRANCH   3  12
ATOM     12  C   UNL     1      34.767 -19.461 -20.388  0.00  0.00    +0.052 C 
ATOM     13  C   UNL     1      33.498 -19.965 -20.064  0.00  0.00    +0.052 C 
ATOM     14  C   UNL     1      35.898 -20.058 -19.806  0.00  0.00    +0.015 C 
ATOM     15  C   UNL     1      33.361 -21.037 -19.183  0.00  0.00    +0.140 C 
ATOM     16  C   UNL     1      35.762 -21.130 -18.926  0.00  0.00    +0.004 C 
ATOM     17  C   UNL     1      34.494 -21.621 -18.614  0.00  0.00    +0.037 C 
BRANCH  15  18
ATOM     18  O   UNL     1      32.124 -21.516 -18.878  0.00  0.00    -0.471 OA
ATOM     19  C   UNL     1      31.950 -22.083 -17.580  0.00  0.00    +0.252 C 
ENDBRANCH  15  18
ENDBRANCH   3  12
BRANCH   5  20
ATOM     20  C   UNL     1      34.346 -15.249 -21.470  0.00  0.00    -0.048 C 
BRANCH  20  21
ATOM     21  N   UNL     1      33.776 -13.932 -21.193  0.00  0.00    +0.391 N 
ATOM     22  C   UNL     1      31.774 -11.804 -21.425  0.00  0.00    -0.042 C 
ATOM     23  C   UNL     1      33.121 -11.742 -22.159  0.00  0.00    +0.070 C 
ATOM     24  C   UNL     1      31.893 -12.692 -20.183  0.00  0.00    -0.042 C 
ATOM     25  C   UNL     1      33.665 -13.150 -22.430  0.00  0.00    -0.049 C 
ATOM     26  C   UNL     1      32.469 -14.064 -20.535  0.00  0.00    -0.079 C 
ATOM     27  H   UNL     1      34.401 -13.433 -20.559  0.00  0.00    -0.079 HD
BRANCH  22  28
ATOM     28  N   UNL     1      31.337 -10.465 -21.027  0.00  0.00    +0.383 N 
ATOM     29  H   UNL     1      30.462 -10.533 -20.508  0.00  0.00    -0.089 HD
ATOM     30  H   UNL     1      31.195  -9.892 -21.859  0.00  0.00    -0.089 HD
ATOM     31  H   UNL     1      32.050 -10.036 -20.437  0.00  0.00    -0.089 HD
ENDBRANCH  22  28
BRANCH  23  32
ATOM     32  O   UNL     1      32.963 -11.094 -23.421  0.00  0.00    -0.389 OA
ATOM     33  H   UNL     1      33.482 -11.564 -24.092  0.00  0.00    +0.210 HD
ENDBRANCH  23  32
ENDBRANCH  20  21
ENDBRANCH   5  20
TORSDOF 6
ENDMDL
MODEL 8
REMARK VINA RESULT:      -9.8      3.089      6.844
REMARK  Name = 11349170
REMARK  6 active torsions:
REMARK  status: ('A' for Active; 'I' for Inactive)
REMARK    1  A    between atoms: N_3  and  C_12
REMARK    2  A    between atoms: C_5  and  C_20
REMARK    3  A    between atoms: C_15  and  O_18
REMARK    4  A    between atoms: C_20  and  N_21
REMARK    5  A    between atoms: C_22  and  N_28
REMARK    6  A    between atoms: C_23  and  O_32
REMARK                            x       y       z     vdW  Elec       q    Type
REMARK                         _______ _______ _______ _____ _____    ______ ____
ROOT
ATOM      1  N   UNL     1      35.716 -22.638 -14.836  0.00  0.00    -0.185 N 
ATOM      2  N   UNL     1      37.028 -22.430 -15.101  0.00  0.00    -0.151 NA
ATOM      3  N   UNL     1      34.135 -21.814 -18.080  0.00  0.00    -0.297 N 
ATOM      4  N   UNL     1      36.334 -21.826 -17.329  0.00  0.00    -0.206 NA
ATOM      5  C   UNL     1      33.541 -22.761 -15.134  0.00  0.00    -0.024 C 
ATOM      6  C   UNL     1      34.713 -22.458 -15.755  0.00  0.00    +0.100 C 
ATOM      7  C   UNL     1      33.810 -23.135 -13.810  0.00  0.00    +0.013 C 
ATOM      8  C   UNL     1      35.175 -23.050 -13.647  0.00  0.00    +0.089 C 
ATOM      9  C   UNL     1      35.061 -22.024 -17.086  0.00  0.00    +0.149 C 
ATOM     10  C   UNL     1      37.258 -22.038 -16.322  0.00  0.00    +0.219 C 
ATOM     11  H   UNL     1      33.321 -22.367 -18.048  0.00  0.00    +0.154 HD
ENDROOT
BRANCH   3  12
ATOM     12  C   UNL     1      34.229 -20.903 -19.128  0.00  0.00    +0.052 C 
ATOM     13  C   UNL     1      35.470 -20.358 -19.494  0.00  0.00    +0.052 C 
ATOM     14  C   UNL     1      33.084 -20.509 -19.840  0.00  0.00    +0.015 C 
ATOM     15  C   UNL     1      35.565 -19.445 -20.543  0.00  0.00    +0.140 C 
ATOM     16  C   UNL     1      33.179 -19.596 -20.889  0.00  0.00    +0.004 C 
ATOM     17  C   UNL     1      34.418 -19.063 -21.242  0.00  0.00    +0.037 C 
BRANCH  15  18
ATOM     18  O   UNL     1      36.774 -18.924 -20.887  0.00  0.00    -0.471 OA
ATOM     19  C   UNL     1      36.827 -18.130 -22.071  0.00  0.00    +0.252 C 
ENDBRANCH  15  18
ENDBRANCH   3  12
BRANCH   5  20
ATOM     20  C   UNL     1      32.161 -22.716 -15.734  0.00  0.00    -0.048 C 
BRANCH  20  21
ATOM     21  N   UNL     1      31.266 -23.769 -15.258  0.00  0.00    +0.391 N 
ATOM     22  C   UNL     1      28.796 -24.826 -14.089  0.00  0.00    -0.042 C 
ATOM     23  C   UNL     1      30.102 -24.730 -13.288  0.00  0.00    +0.070 C 
ATOM     24  C   UNL     1      29.102 -24.914 -15.586  0.00  0.00    -0.042 C 
ATOM     25  C   UNL     1      30.994 -23.604 -13.825  0.00  0.00    -0.049 C 
ATOM     26  C   UNL     1      30.020 -23.775 -16.034  0.00  0.00    -0.079 C 
ATOM     27  H   UNL     1      31.726 -24.671 -15.390  0.00  0.00    -0.079 HD
BRANCH  22  28
ATOM     28  N   UNL     1      28.021 -25.998 -13.680  0.00  0.00    +0.383 N 
ATOM     29  H   UNL     1      27.394 -26.272 -14.436  0.00  0.00    -0.089 HD
ATOM     30  H   UNL     1      27.473 -25.771 -12.850  0.00  0.00    -0.089 HD
ATOM     31  H   UNL     1      28.655 -26.768 -13.468  0.00  0.00    -0.089 HD
ENDBRANCH  22  28
BRANCH  23  32
ATOM     32  O   UNL     1      29.820 -24.436 -11.921  0.00  0.00    -0.389 OA
ATOM     33  H   UNL     1      29.115 -25.022 -11.603  0.00  0.00    +0.210 HD
ENDBRANCH  23  32
ENDBRANCH  20  21
ENDBRANCH   5  20
TORSDOF 6
ENDMDL
MODEL 9
REMARK VINA RESULT:      -9.8      2.675      7.545
REMARK  Name = 11349170
REMARK  6 active torsions:
REMARK  status: ('A' for Active; 'I' for Inactive)
REMARK    1  A    between atoms: N_3  and  C_12
REMARK    2  A    between atoms: C_5  and  C_20
REMARK    3  A    between atoms: C_15  and  O_18
REMARK    4  A    between atoms: C_20  and  N_21
REMARK    5  A    between atoms: C_22  and  N_28
REMARK    6  A    between atoms: C_23  and  O_32
REMARK                            x       y       z     vdW  Elec       q    Type
REMARK                         _______ _______ _______ _____ _____    ______ ____
ROOT
ATOM      1  N   UNL     1      30.984 -22.952 -14.676  0.00  0.00    -0.185 N 
ATOM      2  N   UNL     1      30.729 -23.220 -13.372  0.00  0.00    -0.151 NA
ATOM      3  N   UNL     1      34.461 -24.167 -15.045  0.00  0.00    -0.297 N 
ATOM      4  N   UNL     1      32.970 -24.100 -13.264  0.00  0.00    -0.206 NA
ATOM      5  C   UNL     1      32.062 -22.826 -16.587  0.00  0.00    -0.024 C 
ATOM      6  C   UNL     1      32.176 -23.231 -15.293  0.00  0.00    +0.100 C 
ATOM      7  C   UNL     1      30.783 -22.287 -16.785  0.00  0.00    +0.013 C 
ATOM      8  C   UNL     1      30.128 -22.376 -15.577  0.00  0.00    +0.089 C 
ATOM      9  C   UNL     1      33.230 -23.846 -14.523  0.00  0.00    +0.149 C 
ATOM     10  C   UNL     1      31.729 -23.773 -12.747  0.00  0.00    +0.219 C 
ATOM     11  H   UNL     1      34.488 -24.397 -16.002  0.00  0.00    +0.154 HD
ENDROOT
BRANCH   3  12
ATOM     12  C   UNL     1      35.673 -24.200 -14.361  0.00  0.00    +0.052 C 
ATOM     13  C   UNL     1      36.619 -25.201 -14.630  0.00  0.00    +0.052 C 
ATOM     14  C   UNL     1      35.973 -23.231 -13.389  0.00  0.00    +0.015 C 
ATOM     15  C   UNL     1      37.833 -25.235 -13.945  0.00  0.00    +0.140 C 
ATOM     16  C   UNL     1      37.187 -23.265 -12.705  0.00  0.00    +0.004 C 
ATOM     17  C   UNL     1      38.118 -24.265 -12.982  0.00  0.00    +0.037 C 
BRANCH  15  18
ATOM     18  O   UNL     1      38.742 -26.212 -14.215  0.00  0.00    -0.471 OA
ATOM     19  C   UNL     1      40.116 -25.830 -14.251  0.00  0.00    +0.252 C 
ENDBRANCH  15  18
ENDBRANCH   3  12
BRANCH   5  20
ATOM     20  C   UNL     1      33.111 -22.923 -17.662  0.00  0.00    -0.048 C 
BRANCH  20  21
ATOM     21  N   UNL     1      33.391 -21.660 -18.341  0.00  0.00    +0.391 N 
ATOM     22  C   UNL     1      34.108 -19.981 -20.633  0.00  0.00    -0.042 C 
ATOM     23  C   UNL     1      35.107 -20.303 -19.513  0.00  0.00    +0.070 C 
ATOM     24  C   UNL     1      32.674 -20.087 -20.106  0.00  0.00    -0.042 C 
ATOM     25  C   UNL     1      34.769 -21.641 -18.845  0.00  0.00    -0.049 C 
ATOM     26  C   UNL     1      32.430 -21.436 -19.429  0.00  0.00    -0.079 C 
ATOM     27  H   UNL     1      33.290 -20.899 -17.669  0.00  0.00    -0.079 HD
BRANCH  22  28
ATOM     28  N   UNL     1      34.335 -18.634 -21.160  0.00  0.00    +0.383 N 
ATOM     29  H   UNL     1      33.539 -18.354 -21.733  0.00  0.00    -0.089 HD
ATOM     30  H   UNL     1      35.182 -18.630 -21.730  0.00  0.00    -0.089 HD
ATOM     31  H   UNL     1      34.444 -17.980 -20.386  0.00  0.00    -0.089 HD
ENDBRANCH  22  28
BRANCH  23  32
ATOM     32  O   UNL     1      36.426 -20.412 -20.047  0.00  0.00    -0.389 OA
ATOM     33  H   UNL     1      36.398 -20.920 -20.873  0.00  0.00    +0.210 HD
ENDBRANCH  23  32
ENDBRANCH  20  21
ENDBRANCH   5  20
TORSDOF 6
ENDMDL
