MODEL 1
REMARK VINA RESULT:     -12.2      0.000      0.000
REMARK  Name = 6918848
REMARK  6 active torsions:
REMARK  status: ('A' for Active; 'I' for Inactive)
REMARK    1  A    between atoms: N_2  and  C_5
REMARK    2  A    between atoms: C_3  and  C_17
REMARK    3  A    between atoms: C_10  and  C_13
REMARK    4  A    between atoms: N_12  and  O_15
REMARK    5  A    between atoms: C_17  and  C_18
REMARK    6  A    between atoms: C_17  and  C_24
REMARK                            x       y       z     vdW  Elec       q    Type
REMARK                         _______ _______ _______ _____ _____    ______ ____
ROOT
ATOM      1  O   UNL     1      35.943 -18.145 -20.569  0.00  0.00    -0.274 OA
ATOM      2  N   UNL     1      33.955 -19.249 -21.148  0.00  0.00    -0.284 N 
ATOM      3  C   UNL     1      34.982 -18.325 -21.313  0.00  0.00    +0.230 C 
ATOM      4  H   UNL     1      33.276 -19.276 -21.860  0.00  0.00    +0.155 HD
ENDROOT
BRANCH   2   5
ATOM      5  C   UNL     1      33.772 -20.154 -20.076  0.00  0.00    +0.050 C 
ATOM      6  C   UNL     1      34.879 -20.760 -19.505  0.00  0.00    +0.015 C 
ATOM      7  C   UNL     1      32.491 -20.412 -19.617  0.00  0.00    +0.015 C 
ATOM      8  C   UNL     1      34.699 -21.651 -18.446  0.00  0.00    +0.006 C 
ATOM      9  C   UNL     1      32.311 -21.302 -18.559  0.00  0.00    +0.006 C 
ATOM     10  C   UNL     1      33.415 -21.922 -17.973  0.00  0.00    +0.055 C 
BRANCH  10  13
ATOM     11  O   UNL     1      34.162 -23.576 -16.482  0.00  0.00    -0.268 OA
ATOM     12  N   UNL     1      31.969 -22.893 -16.285  0.00  0.00    -0.193 N 
ATOM     13  C   UNL     1      33.228 -22.849 -16.869  0.00  0.00    +0.268 C 
ATOM     14  H   UNL     1      31.236 -22.315 -16.598  0.00  0.00    +0.183 HD
BRANCH  12  15
ATOM     15  O   UNL     1      31.792 -23.799 -15.230  0.00  0.00    -0.295 OA
ATOM     16  H   UNL     1      32.581 -24.358 -15.148  0.00  0.00    +0.241 HD
ENDBRANCH  12  15
ENDBRANCH  10  13
ENDBRANCH   2   5
BRANCH   3  17
ATOM     17  C   UNL     1      34.819 -17.526 -22.620  0.00  0.00    +0.099 C 
BRANCH  17  18
ATOM     18  C   UNL     1      34.431 -16.096 -22.265  0.00  0.00    -0.014 C 
ATOM     19  C   UNL     1      34.365 -15.156 -23.272  0.00  0.00    -0.004 C 
ATOM     20  C   UNL     1      34.159 -15.787 -20.949  0.00  0.00    -0.004 C 
ATOM     21  C   UNL     1      34.010 -13.847 -22.948  0.00  0.00    -0.000 C 
ATOM     22  C   UNL     1      33.803 -14.478 -20.625  0.00  0.00    -0.000 C 
ATOM     23  C   UNL     1      33.729 -13.508 -21.624  0.00  0.00    -0.000 C 
ENDBRANCH  17  18
BRANCH  17  24
ATOM     24  C   UNL     1      33.822 -18.215 -23.598  0.00  0.00    +0.013 C 
ATOM     25  C   UNL     1      33.380 -17.272 -24.726  0.00  0.00    +0.001 C 
ATOM     26  C   UNL     1      34.449 -19.465 -24.232  0.00  0.00    +0.001 C 
ENDBRANCH  17  24
ENDBRANCH   3  17
TORSDOF 6
ENDMDL
MODEL 2
REMARK VINA RESULT:     -11.1      2.883      8.966
REMARK  Name = 6918848
REMARK  6 active torsions:
REMARK  status: ('A' for Active; 'I' for Inactive)
REMARK    1  A    between atoms: N_2  and  C_5
REMARK    2  A    between atoms: C_3  and  C_17
REMARK    3  A    between atoms: C_10  and  C_13
REMARK    4  A    between atoms: N_12  and  O_15
REMARK    5  A    between atoms: C_17  and  C_18
REMARK    6  A    between atoms: C_17  and  C_24
REMARK                            x       y       z     vdW  Elec       q    Type
REMARK                         _______ _______ _______ _____ _____    ______ ____
ROOT
ATOM      1  O   UNL     1      34.970 -21.776 -15.421  0.00  0.00    -0.274 OA
ATOM      2  N   UNL     1      33.851 -22.782 -17.221  0.00  0.00    -0.284 N 
ATOM      3  C   UNL     1      34.335 -22.702 -15.919  0.00  0.00    +0.230 C 
ATOM      4  H   UNL     1      33.336 -23.590 -17.445  0.00  0.00    +0.155 HD
ENDROOT
BRANCH   2   5
ATOM      5  C   UNL     1      34.013 -21.837 -18.261  0.00  0.00    +0.050 C 
ATOM      6  C   UNL     1      32.892 -21.327 -18.894  0.00  0.00    +0.015 C 
ATOM      7  C   UNL     1      35.290 -21.439 -18.623  0.00  0.00    +0.015 C 
ATOM      8  C   UNL     1      33.053 -20.393 -19.919  0.00  0.00    +0.006 C 
ATOM      9  C   UNL     1      35.450 -20.507 -19.648  0.00  0.00    +0.006 C 
ATOM     10  C   UNL     1      34.332 -19.984 -20.295  0.00  0.00    +0.055 C 
BRANCH  10  13
ATOM     11  O   UNL     1      33.858 -19.115 -22.426  0.00  0.00    -0.268 OA
ATOM     12  N   UNL     1      35.405 -17.981 -21.146  0.00  0.00    -0.193 N 
ATOM     13  C   UNL     1      34.498 -19.010 -21.363  0.00  0.00    +0.268 C 
ATOM     14  H   UNL     1      35.907 -17.907 -20.302  0.00  0.00    +0.183 HD
BRANCH  12  15
ATOM     15  O   UNL     1      35.570 -17.055 -22.184  0.00  0.00    -0.295 OA
ATOM     16  H   UNL     1      34.704 -16.828 -22.556  0.00  0.00    +0.241 HD
ENDBRANCH  12  15
ENDBRANCH  10  13
ENDBRANCH   2   5
BRANCH   3  17
ATOM     17  C   UNL     1      33.941 -23.941 -15.093  0.00  0.00    +0.099 C 
BRANCH  17  18
ATOM     18  C   UNL     1      32.573 -23.691 -14.470  0.00  0.00    -0.014 C 
ATOM     19  C   UNL     1      31.936 -22.494 -14.724  0.00  0.00    -0.004 C 
ATOM     20  C   UNL     1      32.016 -24.669 -13.673  0.00  0.00    -0.004 C 
ATOM     21  C   UNL     1      30.684 -22.264 -14.154  0.00  0.00    -0.000 C 
ATOM     22  C   UNL     1      30.763 -24.439 -13.104  0.00  0.00    -0.000 C 
ATOM     23  C   UNL     1      30.098 -23.237 -13.344  0.00  0.00    -0.000 C 
ENDBRANCH  17  18
BRANCH  17  24
ATOM     24  C   UNL     1      35.037 -24.315 -14.052  0.00  0.00    +0.013 C 
ATOM     25  C   UNL     1      36.403 -24.543 -14.714  0.00  0.00    +0.001 C 
ATOM     26  C   UNL     1      35.191 -23.213 -12.995  0.00  0.00    +0.001 C 
ENDBRANCH  17  24
ENDBRANCH   3  17
TORSDOF 6
ENDMDL
MODEL 3
REMARK VINA RESULT:     -10.7      2.489      3.712
REMARK  Name = 6918848
REMARK  6 active torsions:
REMARK  status: ('A' for Active; 'I' for Inactive)
REMARK    1  A    between atoms: N_2  and  C_5
REMARK    2  A    between atoms: C_3  and  C_17
REMARK    3  A    between atoms: C_10  and  C_13
REMARK    4  A    between atoms: N_12  and  O_15
REMARK    5  A    between atoms: C_17  and  C_18
REMARK    6  A    between atoms: C_17  and  C_24
REMARK                            x       y       z     vdW  Elec       q    Type
REMARK                         _______ _______ _______ _____ _____    ______ ____
ROOT
ATOM      1  O   UNL     1      34.263 -14.900 -20.706  0.00  0.00    -0.274 OA
ATOM      2  N   UNL     1      34.420 -16.606 -22.310  0.00  0.00    -0.284 N 
ATOM      3  C   UNL     1      34.225 -15.301 -21.866  0.00  0.00    +0.230 C 
ATOM      4  H   UNL     1      34.381 -16.745 -23.283  0.00  0.00    +0.155 HD
ENDROOT
BRANCH   2   5
ATOM      5  C   UNL     1      34.667 -17.756 -21.524  0.00  0.00    +0.050 C 
ATOM      6  C   UNL     1      33.618 -18.612 -21.228  0.00  0.00    +0.015 C 
ATOM      7  C   UNL     1      35.951 -18.004 -21.068  0.00  0.00    +0.015 C 
ATOM      8  C   UNL     1      33.863 -19.748 -20.454  0.00  0.00    +0.006 C 
ATOM      9  C   UNL     1      36.194 -19.138 -20.295  0.00  0.00    +0.006 C 
ATOM     10  C   UNL     1      35.150 -20.010 -19.988  0.00  0.00    +0.055 C 
BRANCH  10  13
ATOM     11  O   UNL     1      34.868 -22.282 -19.464  0.00  0.00    -0.268 OA
ATOM     12  N   UNL     1      36.252 -21.049 -18.092  0.00  0.00    -0.193 N 
ATOM     13  C   UNL     1      35.404 -21.194 -19.182  0.00  0.00    +0.268 C 
ATOM     14  H   UNL     1      36.671 -20.184 -17.877  0.00  0.00    +0.183 HD
BRANCH  12  15
ATOM     15  O   UNL     1      36.481 -22.191 -17.313  0.00  0.00    -0.295 OA
ATOM     16  H   UNL     1      37.418 -22.435 -17.364  0.00  0.00    +0.241 HD
ENDBRANCH  12  15
ENDBRANCH  10  13
ENDBRANCH   2   5
BRANCH   3  17
ATOM     17  C   UNL     1      33.984 -14.335 -23.042  0.00  0.00    +0.099 C 
BRANCH  17  18
ATOM     18  C   UNL     1      33.164 -13.155 -22.537  0.00  0.00    -0.014 C 
ATOM     19  C   UNL     1      32.320 -13.343 -21.462  0.00  0.00    -0.004 C 
ATOM     20  C   UNL     1      33.291 -11.937 -23.170  0.00  0.00    -0.004 C 
ATOM     21  C   UNL     1      31.569 -12.264 -20.999  0.00  0.00    -0.000 C 
ATOM     22  C   UNL     1      32.540 -10.857 -22.707  0.00  0.00    -0.000 C 
ATOM     23  C   UNL     1      31.679 -11.020 -21.622  0.00  0.00    -0.000 C 
ENDBRANCH  17  18
BRANCH  17  24
ATOM     24  C   UNL     1      33.344 -15.059 -24.263  0.00  0.00    +0.013 C 
ATOM     25  C   UNL     1      32.945 -14.074 -25.370  0.00  0.00    +0.001 C 
ATOM     26  C   UNL     1      34.312 -16.090 -24.861  0.00  0.00    +0.001 C 
ENDBRANCH  17  24
ENDBRANCH   3  17
TORSDOF 6
ENDMDL
MODEL 4
REMARK VINA RESULT:     -10.6      5.910      9.640
REMARK  Name = 6918848
REMARK  6 active torsions:
REMARK  status: ('A' for Active; 'I' for Inactive)
REMARK    1  A    between atoms: N_2  and  C_5
REMARK    2  A    between atoms: C_3  and  C_17
REMARK    3  A    between atoms: C_10  and  C_13
REMARK    4  A    between atoms: N_12  and  O_15
REMARK    5  A    between atoms: C_17  and  C_18
REMARK    6  A    between atoms: C_17  and  C_24
REMARK                            x       y       z     vdW  Elec       q    Type
REMARK                         _______ _______ _______ _____ _____    ______ ____
ROOT
ATOM      1  O   UNL     1      30.118 -10.673 -21.732  0.00  0.00    -0.274 OA
ATOM      2  N   UNL     1      32.361 -10.374 -22.353  0.00  0.00    -0.284 N 
ATOM      3  C   UNL     1      31.109  -9.967 -21.902  0.00  0.00    +0.230 C 
ATOM      4  H   UNL     1      33.052  -9.675 -22.405  0.00  0.00    +0.155 HD
ENDROOT
BRANCH   2   5
ATOM      5  C   UNL     1      32.756 -11.675 -22.746  0.00  0.00    +0.050 C 
ATOM      6  C   UNL     1      32.641 -12.045 -24.075  0.00  0.00    +0.015 C 
ATOM      7  C   UNL     1      33.251 -12.550 -21.793  0.00  0.00    +0.015 C 
ATOM      8  C   UNL     1      33.033 -13.327 -24.463  0.00  0.00    +0.006 C 
ATOM      9  C   UNL     1      33.641 -13.831 -22.181  0.00  0.00    +0.006 C 
ATOM     10  C   UNL     1      33.532 -14.220 -23.515  0.00  0.00    +0.055 C 
BRANCH  10  13
ATOM     11  O   UNL     1      33.980 -15.872 -25.123  0.00  0.00    -0.268 OA
ATOM     12  N   UNL     1      34.266 -16.451 -22.910  0.00  0.00    -0.193 N 
ATOM     13  C   UNL     1      33.941 -15.556 -23.919  0.00  0.00    +0.268 C 
ATOM     14  H   UNL     1      34.231 -16.193 -21.960  0.00  0.00    +0.183 HD
BRANCH  12  15
ATOM     15  O   UNL     1      34.645 -17.741 -23.307  0.00  0.00    -0.295 OA
ATOM     16  H   UNL     1      33.933 -18.141 -23.831  0.00  0.00    +0.241 HD
ENDBRANCH  12  15
ENDBRANCH  10  13
ENDBRANCH   2   5
BRANCH   3  17
ATOM     17  C   UNL     1      31.088  -8.462 -21.575  0.00  0.00    +0.099 C 
BRANCH  17  18
ATOM     18  C   UNL     1      31.620  -7.699 -22.781  0.00  0.00    -0.014 C 
ATOM     19  C   UNL     1      30.738  -7.323 -23.773  0.00  0.00    -0.004 C 
ATOM     20  C   UNL     1      32.967  -7.408 -22.844  0.00  0.00    -0.004 C 
ATOM     21  C   UNL     1      31.224  -6.624 -24.877  0.00  0.00    -0.000 C 
ATOM     22  C   UNL     1      33.453  -6.709 -23.948  0.00  0.00    -0.000 C 
ATOM     23  C   UNL     1      32.582  -6.317 -24.965  0.00  0.00    -0.000 C 
ENDBRANCH  17  18
BRANCH  17  24
ATOM     24  C   UNL     1      31.851  -8.146 -20.255  0.00  0.00    +0.013 C 
ATOM     25  C   UNL     1      31.557  -6.728 -19.746  0.00  0.00    +0.001 C 
ATOM     26  C   UNL     1      31.474  -9.143 -19.150  0.00  0.00    +0.001 C 
ENDBRANCH  17  24
ENDBRANCH   3  17
TORSDOF 6
ENDMDL
MODEL 5
REMARK VINA RESULT:     -10.6      2.700      8.547
REMARK  Name = 6918848
REMARK  6 active torsions:
REMARK  status: ('A' for Active; 'I' for Inactive)
REMARK    1  A    between atoms: N_2  and  C_5
REMARK    2  A    between atoms: C_3  and  C_17
REMARK    3  A    between atoms: C_10  and  C_13
REMARK    4  A    between atoms: N_12  and  O_15
REMARK    5  A    between atoms: C_17  and  C_18
REMARK    6  A    between atoms: C_17  and  C_24
REMARK                            x       y       z     vdW  Elec       q    Type
REMARK                         _______ _______ _______ _____ _____    ______ ____
ROOT
ATOM      1  O   UNL     1      35.317 -21.355 -16.000  0.00  0.00    -0.274 OA
ATOM      2  N   UNL     1      34.216 -22.299 -17.845  0.00  0.00    -0.284 N 
ATOM      3  C   UNL     1      34.681 -22.260 -16.534  0.00  0.00    +0.230 C 
ATOM      4  H   UNL     1      33.698 -23.095 -18.100  0.00  0.00    +0.155 HD
ENDROOT
BRANCH   2   5
ATOM      5  C   UNL     1      34.404 -21.326 -18.856  0.00  0.00    +0.050 C 
ATOM      6  C   UNL     1      35.691 -20.944 -19.198  0.00  0.00    +0.015 C 
ATOM      7  C   UNL     1      33.298 -20.778 -19.484  0.00  0.00    +0.015 C 
ATOM      8  C   UNL     1      35.876 -19.987 -20.196  0.00  0.00    +0.006 C 
ATOM      9  C   UNL     1      33.483 -19.821 -20.481  0.00  0.00    +0.006 C 
ATOM     10  C   UNL     1      34.772 -19.425 -20.837  0.00  0.00    +0.055 C 
BRANCH  10  13
ATOM     11  O   UNL     1      35.953 -17.670 -21.857  0.00  0.00    -0.268 OA
ATOM     12  N   UNL     1      33.999 -18.355 -22.872  0.00  0.00    -0.193 N 
ATOM     13  C   UNL     1      34.965 -18.428 -21.878  0.00  0.00    +0.268 C 
ATOM     14  H   UNL     1      33.221 -18.958 -22.880  0.00  0.00    +0.183 HD
BRANCH  12  15
ATOM     15  O   UNL     1      34.185 -17.382 -23.864  0.00  0.00    -0.295 OA
ATOM     16  H   UNL     1      34.403 -16.533 -23.448  0.00  0.00    +0.241 HD
ENDBRANCH  12  15
ENDBRANCH  10  13
ENDBRANCH   2   5
BRANCH   3  17
ATOM     17  C   UNL     1      34.262 -23.518 -15.749  0.00  0.00    +0.099 C 
BRANCH  17  18
ATOM     18  C   UNL     1      32.915 -23.250 -15.091  0.00  0.00    -0.014 C 
ATOM     19  C   UNL     1      31.837 -22.929 -15.888  0.00  0.00    -0.004 C 
ATOM     20  C   UNL     1      32.817 -23.336 -13.718  0.00  0.00    -0.004 C 
ATOM     21  C   UNL     1      30.604 -22.684 -15.286  0.00  0.00    -0.000 C 
ATOM     22  C   UNL     1      31.583 -23.091 -13.115  0.00  0.00    -0.000 C 
ATOM     23  C   UNL     1      30.477 -22.764 -13.899  0.00  0.00    -0.000 C 
ENDBRANCH  17  18
BRANCH  17  24
ATOM     24  C   UNL     1      35.365 -23.967 -14.746  0.00  0.00    +0.013 C 
ATOM     25  C   UNL     1      35.546 -25.492 -14.736  0.00  0.00    +0.001 C 
ATOM     26  C   UNL     1      36.717 -23.324 -15.090  0.00  0.00    +0.001 C 
ENDBRANCH  17  24
ENDBRANCH   3  17
TORSDOF 6
ENDMDL
MODEL 6
REMARK VINA RESULT:     -10.5      6.413     10.187
REMARK  Name = 6918848
REMARK  6 active torsions:
REMARK  status: ('A' for Active; 'I' for Inactive)
REMARK    1  A    between atoms: N_2  and  C_5
REMARK    2  A    between atoms: C_3  and  C_17
REMARK    3  A    between atoms: C_10  and  C_13
REMARK    4  A    between atoms: N_12  and  O_15
REMARK    5  A    between atoms: C_17  and  C_18
REMARK    6  A    between atoms: C_17  and  C_24
REMARK                            x       y       z     vdW  Elec       q    Type
REMARK                         _______ _______ _______ _____ _____    ______ ____
ROOT
ATOM      1  O   UNL     1      33.656  -8.577 -23.230  0.00  0.00    -0.274 OA
ATOM      2  N   UNL     1      31.792  -9.945 -22.830  0.00  0.00    -0.284 N 
ATOM      3  C   UNL     1      32.445  -8.753 -23.129  0.00  0.00    +0.230 C 
ATOM      4  H   UNL     1      30.809  -9.911 -22.816  0.00  0.00    +0.155 HD
ENDROOT
BRANCH   2   5
ATOM      5  C   UNL     1      32.378 -11.200 -22.543  0.00  0.00    +0.050 C 
ATOM      6  C   UNL     1      33.200 -11.796 -23.486  0.00  0.00    +0.015 C 
ATOM      7  C   UNL     1      32.120 -11.807 -21.325  0.00  0.00    +0.015 C 
ATOM      8  C   UNL     1      33.779 -13.033 -23.202  0.00  0.00    +0.006 C 
ATOM      9  C   UNL     1      32.699 -13.044 -21.042  0.00  0.00    +0.006 C 
ATOM     10  C   UNL     1      33.528 -13.657 -21.980  0.00  0.00    +0.055 C 
BRANCH  10  13
ATOM     11  O   UNL     1      34.152 -15.387 -20.519  0.00  0.00    -0.268 OA
ATOM     12  N   UNL     1      34.690 -15.643 -22.747  0.00  0.00    -0.193 N 
ATOM     13  C   UNL     1      34.133 -14.946 -21.684  0.00  0.00    +0.268 C 
ATOM     14  H   UNL     1      34.670 -15.286 -23.664  0.00  0.00    +0.183 HD
BRANCH  12  15
ATOM     15  O   UNL     1      35.284 -16.878 -22.452  0.00  0.00    -0.295 OA
ATOM     16  H   UNL     1      35.933 -17.098 -23.139  0.00  0.00    +0.241 HD
ENDBRANCH  12  15
ENDBRANCH  10  13
ENDBRANCH   2   5
BRANCH   3  17
ATOM     17  C   UNL     1      31.444  -7.609 -23.380  0.00  0.00    +0.099 C 
BRANCH  17  18
ATOM     18  C   UNL     1      32.145  -6.522 -24.185  0.00  0.00    -0.014 C 
ATOM     19  C   UNL     1      33.188  -5.832 -23.604  0.00  0.00    -0.004 C 
ATOM     20  C   UNL     1      31.714  -6.263 -25.469  0.00  0.00    -0.004 C 
ATOM     21  C   UNL     1      33.831  -4.838 -24.340  0.00  0.00    -0.000 C 
ATOM     22  C   UNL     1      32.357  -5.268 -26.206  0.00  0.00    -0.000 C 
ATOM     23  C   UNL     1      33.415  -4.555 -25.642  0.00  0.00    -0.000 C 
ENDBRANCH  17  18
BRANCH  17  24
ATOM     24  C   UNL     1      30.815  -7.090 -22.054  0.00  0.00    +0.013 C 
ATOM     25  C   UNL     1      31.840  -7.042 -20.911  0.00  0.00    +0.001 C 
ATOM     26  C   UNL     1      30.230  -5.681 -22.236  0.00  0.00    +0.001 C 
ENDBRANCH  17  24
ENDBRANCH   3  17
TORSDOF 6
ENDMDL
MODEL 7
REMARK VINA RESULT:     -10.5      5.024      8.588
REMARK  Name = 6918848
REMARK  6 active torsions:
REMARK  status: ('A' for Active; 'I' for Inactive)
REMARK    1  A    between atoms: N_2  and  C_5
REMARK    2  A    between atoms: C_3  and  C_17
REMARK    3  A    between atoms: C_10  and  C_13
REMARK    4  A    between atoms: N_12  and  O_15
REMARK    5  A    between atoms: C_17  and  C_18
REMARK    6  A    between atoms: C_17  and  C_24
REMARK                            x       y       z     vdW  Elec       q    Type
REMARK                         _______ _______ _______ _____ _____    ______ ____
ROOT
ATOM      1  O   UNL     1      32.356 -10.918 -23.960  0.00  0.00    -0.274 OA
ATOM      2  N   UNL     1      32.386 -11.454 -21.675  0.00  0.00    -0.284 N 
ATOM      3  C   UNL     1      32.130 -10.650 -22.783  0.00  0.00    +0.230 C 
ATOM      4  H   UNL     1      32.114 -11.090 -20.802  0.00  0.00    +0.155 HD
ENDROOT
BRANCH   2   5
ATOM      5  C   UNL     1      32.992 -12.732 -21.658  0.00  0.00    +0.050 C 
ATOM      6  C   UNL     1      33.005 -13.460 -20.480  0.00  0.00    +0.015 C 
ATOM      7  C   UNL     1      33.558 -13.229 -22.821  0.00  0.00    +0.015 C 
ATOM      8  C   UNL     1      33.601 -14.721 -20.464  0.00  0.00    +0.006 C 
ATOM      9  C   UNL     1      34.155 -14.490 -22.804  0.00  0.00    +0.006 C 
ATOM     10  C   UNL     1      34.176 -15.235 -21.626  0.00  0.00    +0.055 C 
BRANCH  10  13
ATOM     11  O   UNL     1      35.127 -17.085 -20.534  0.00  0.00    -0.268 OA
ATOM     12  N   UNL     1      35.013 -17.165 -22.835  0.00  0.00    -0.193 N 
ATOM     13  C   UNL     1      34.797 -16.551 -21.609  0.00  0.00    +0.268 C 
ATOM     14  H   UNL     1      34.749 -16.735 -23.681  0.00  0.00    +0.183 HD
BRANCH  12  15
ATOM     15  O   UNL     1      35.624 -18.426 -22.812  0.00  0.00    -0.295 OA
ATOM     16  H   UNL     1      34.979 -19.093 -22.527  0.00  0.00    +0.241 HD
ENDBRANCH  12  15
ENDBRANCH  10  13
ENDBRANCH   2   5
BRANCH   3  17
ATOM     17  C   UNL     1      31.454  -9.327 -22.376  0.00  0.00    +0.099 C 
BRANCH  17  18
ATOM     18  C   UNL     1      32.029  -8.208 -23.235  0.00  0.00    -0.014 C 
ATOM     19  C   UNL     1      31.178  -7.486 -24.044  0.00  0.00    -0.004 C 
ATOM     20  C   UNL     1      33.384  -7.952 -23.175  0.00  0.00    -0.004 C 
ATOM     21  C   UNL     1      31.704  -6.462 -24.831  0.00  0.00    -0.000 C 
ATOM     22  C   UNL     1      33.910  -6.927 -23.961  0.00  0.00    -0.000 C 
ATOM     23  C   UNL     1      33.070  -6.182 -24.789  0.00  0.00    -0.000 C 
ENDBRANCH  17  18
BRANCH  17  24
ATOM     24  C   UNL     1      31.576  -9.061 -20.847  0.00  0.00    +0.013 C 
ATOM     25  C   UNL     1      31.486  -7.565 -20.514  0.00  0.00    +0.001 C 
ATOM     26  C   UNL     1      30.472  -9.795 -20.071  0.00  0.00    +0.001 C 
ENDBRANCH  17  24
ENDBRANCH   3  17
TORSDOF 6
ENDMDL
MODEL 8
REMARK VINA RESULT:     -10.4      2.744      8.564
REMARK  Name = 6918848
REMARK  6 active torsions:
REMARK  status: ('A' for Active; 'I' for Inactive)
REMARK    1  A    between atoms: N_2  and  C_5
REMARK    2  A    between atoms: C_3  and  C_17
REMARK    3  A    between atoms: C_10  and  C_13
REMARK    4  A    between atoms: N_12  and  O_15
REMARK    5  A    between atoms: C_17  and  C_18
REMARK    6  A    between atoms: C_17  and  C_24
REMARK                            x       y       z     vdW  Elec       q    Type
REMARK                         _______ _______ _______ _____ _____    ______ ____
ROOT
ATOM      1  O   UNL     1      33.036 -23.996 -18.450  0.00  0.00    -0.274 OA
ATOM      2  N   UNL     1      33.234 -21.804 -17.636  0.00  0.00    -0.284 N 
ATOM      3  C   UNL     1      32.998 -23.172 -17.539  0.00  0.00    +0.230 C 
ATOM      4  H   UNL     1      33.188 -21.295 -16.795  0.00  0.00    +0.155 HD
ENDROOT
BRANCH   2   5
ATOM      5  C   UNL     1      33.531 -21.060 -18.802  0.00  0.00    +0.050 C 
ATOM      6  C   UNL     1      34.850 -20.927 -19.203  0.00  0.00    +0.015 C 
ATOM      7  C   UNL     1      32.497 -20.482 -19.520  0.00  0.00    +0.015 C 
ATOM      8  C   UNL     1      35.143 -20.195 -20.354  0.00  0.00    +0.006 C 
ATOM      9  C   UNL     1      32.790 -19.750 -20.670  0.00  0.00    +0.006 C 
ATOM     10  C   UNL     1      34.112 -19.606 -21.087  0.00  0.00    +0.055 C 
BRANCH  10  13
ATOM     11  O   UNL     1      34.445 -19.397 -23.403  0.00  0.00    -0.268 OA
ATOM     12  N   UNL     1      34.687 -17.492 -22.127  0.00  0.00    -0.193 N 
ATOM     13  C   UNL     1      34.418 -18.844 -22.287  0.00  0.00    +0.268 C 
ATOM     14  H   UNL     1      34.664 -17.063 -21.241  0.00  0.00    +0.183 HD
BRANCH  12  15
ATOM     15  O   UNL     1      34.994 -16.766 -23.287  0.00  0.00    -0.295 OA
ATOM     16  H   UNL     1      34.514 -17.144 -24.041  0.00  0.00    +0.241 HD
ENDBRANCH  12  15
ENDBRANCH  10  13
ENDBRANCH   2   5
BRANCH   3  17
ATOM     17  C   UNL     1      32.709 -23.594 -16.086  0.00  0.00    +0.099 C 
BRANCH  17  18
ATOM     18  C   UNL     1      31.214 -23.453 -15.831  0.00  0.00    -0.014 C 
ATOM     19  C   UNL     1      30.574 -24.413 -15.076  0.00  0.00    -0.004 C 
ATOM     20  C   UNL     1      30.548 -22.368 -16.364  0.00  0.00    -0.004 C 
ATOM     21  C   UNL     1      29.206 -24.284 -14.842  0.00  0.00    -0.000 C 
ATOM     22  C   UNL     1      29.179 -22.239 -16.129  0.00  0.00    -0.000 C 
ATOM     23  C   UNL     1      28.508 -23.196 -15.369  0.00  0.00    -0.000 C 
ENDBRANCH  17  18
BRANCH  17  24
ATOM     24  C   UNL     1      33.589 -22.809 -15.070  0.00  0.00    +0.013 C 
ATOM     25  C   UNL     1      33.231 -23.149 -13.616  0.00  0.00    +0.001 C 
ATOM     26  C   UNL     1      35.079 -23.113 -15.283  0.00  0.00    +0.001 C 
ENDBRANCH  17  24
ENDBRANCH   3  17
TORSDOF 6
ENDMDL
MODEL 9
REMARK VINA RESULT:     -10.2      3.289      9.495
REMARK  Name = 6918848
REMARK  6 active torsions:
REMARK  status: ('A' for Active; 'I' for Inactive)
REMARK    1  A    between atoms: N_2  and  C_5
REMARK    2  A    between atoms: C_3  and  C_17
REMARK    3  A    between atoms: C_10  and  C_13
REMARK    4  A    between atoms: N_12  and  O_15
REMARK    5  A    between atoms: C_17  and  C_18
REMARK    6  A    between atoms: C_17  and  C_24
REMARK                            x       y       z     vdW  Elec       q    Type
REMARK                         _______ _______ _______ _____ _____    ______ ____
ROOT
ATOM      1  O   UNL     1      35.677 -21.597 -15.022  0.00  0.00    -0.274 OA
ATOM      2  N   UNL     1      34.091 -22.489 -16.503  0.00  0.00    -0.284 N 
ATOM      3  C   UNL     1      34.771 -22.380 -15.294  0.00  0.00    +0.230 C 
ATOM      4  H   UNL     1      33.369 -23.157 -16.538  0.00  0.00    +0.155 HD
ENDROOT
BRANCH   2   5
ATOM      5  C   UNL     1      34.318 -21.752 -17.690  0.00  0.00    +0.050 C 
ATOM      6  C   UNL     1      33.240 -21.394 -18.482  0.00  0.00    +0.015 C 
ATOM      7  C   UNL     1      35.614 -21.402 -18.033  0.00  0.00    +0.015 C 
ATOM      8  C   UNL     1      33.464 -20.666 -19.651  0.00  0.00    +0.006 C 
ATOM      9  C   UNL     1      35.837 -20.675 -19.202  0.00  0.00    +0.006 C 
ATOM     10  C   UNL     1      34.762 -20.307 -20.010  0.00  0.00    +0.055 C 
BRANCH  10  13
ATOM     11  O   UNL     1      34.218 -19.643 -22.197  0.00  0.00    -0.268 OA
ATOM     12  N   UNL     1      36.119 -18.732 -21.262  0.00  0.00    -0.193 N 
ATOM     13  C   UNL     1      34.995 -19.547 -21.229  0.00  0.00    +0.268 C 
ATOM     14  H   UNL     1      36.728 -18.663 -20.491  0.00  0.00    +0.183 HD
BRANCH  12  15
ATOM     15  O   UNL     1      36.344 -18.014 -22.444  0.00  0.00    -0.295 OA
ATOM     16  H   UNL     1      35.493 -17.758 -22.835  0.00  0.00    +0.241 HD
ENDBRANCH  12  15
ENDBRANCH  10  13
ENDBRANCH   2   5
BRANCH   3  17
ATOM     17  C   UNL     1      34.218 -23.364 -14.245  0.00  0.00    +0.099 C 
BRANCH  17  18
ATOM     18  C   UNL     1      35.222 -24.497 -14.071  0.00  0.00    -0.014 C 
ATOM     19  C   UNL     1      35.884 -24.620 -12.868  0.00  0.00    -0.004 C 
ATOM     20  C   UNL     1      35.436 -25.363 -15.122  0.00  0.00    -0.004 C 
ATOM     21  C   UNL     1      36.802 -25.656 -12.707  0.00  0.00    -0.000 C 
ATOM     22  C   UNL     1      36.355 -26.401 -14.962  0.00  0.00    -0.000 C 
ATOM     23  C   UNL     1      37.038 -26.547 -13.755  0.00  0.00    -0.000 C 
ENDBRANCH  17  18
BRANCH  17  24
ATOM     24  C   UNL     1      32.786 -23.855 -14.610  0.00  0.00    +0.013 C 
ATOM     25  C   UNL     1      32.180 -24.731 -13.505  0.00  0.00    +0.001 C 
ATOM     26  C   UNL     1      31.844 -22.667 -14.855  0.00  0.00    +0.001 C 
ENDBRANCH  17  24
ENDBRANCH   3  17
TORSDOF 6
ENDMDL
