MODEL 1
REMARK VINA RESULT:     -10.6      0.000      0.000
REMARK  Name = 9818878
REMARK  6 active torsions:
REMARK  status: ('A' for Active; 'I' for Inactive)
REMARK    1  A    between atoms: C_5  and  O_20
REMARK    2  A    between atoms: C_6  and  O_24
REMARK    3  A    between atoms: C_7  and  C_12
REMARK    4  A    between atoms: C_9  and  O_22
REMARK    5  A    between atoms: C_10  and  O_26
REMARK    6  A    between atoms: C_13  and  O_18
REMARK                            x       y       z     vdW  Elec       q    Type
REMARK                         _______ _______ _______ _____ _____    ______ ____
ROOT
ATOM      1  O   UNL     1      33.168 -12.891 -22.237  0.00  0.00    -0.450 OA
ATOM      2  O   UNL     1      33.126 -14.332 -26.048  0.00  0.00    -0.286 OA
ATOM      3  C   UNL     1      33.624 -14.720 -23.771  0.00  0.00    +0.113 A 
ATOM      4  C   UNL     1      33.612 -14.164 -22.492  0.00  0.00    +0.188 A 
ATOM      5  C   UNL     1      34.068 -14.910 -21.405  0.00  0.00    +0.210 A 
ATOM      6  C   UNL     1      34.089 -16.021 -23.971  0.00  0.00    +0.177 A 
ATOM      7  C   UNL     1      32.704 -12.129 -23.297  0.00  0.00    +0.151 C 
ATOM      8  C   UNL     1      33.140 -13.910 -24.900  0.00  0.00    +0.205 C 
ATOM      9  C   UNL     1      34.542 -16.765 -22.882  0.00  0.00    +0.209 A 
ATOM     10  C   UNL     1      34.532 -16.210 -21.601  0.00  0.00    +0.209 A 
ATOM     11  C   UNL     1      32.669 -12.549 -24.573  0.00  0.00    +0.080 C 
ENDROOT
BRANCH   7  12
ATOM     12  C   UNL     1      32.255 -10.775 -22.913  0.00  0.00    +0.068 C 
ATOM     13  C   UNL     1      31.203 -10.588 -22.011  0.00  0.00    +0.137 C 
ATOM     14  C   UNL     1      32.897  -9.663 -23.464  0.00  0.00    +0.006 C 
ATOM     15  C   UNL     1      30.799  -9.299 -21.663  0.00  0.00    +0.037 C 
ATOM     16  C   UNL     1      32.492  -8.375 -23.117  0.00  0.00    +0.000 C 
ATOM     17  C   UNL     1      31.443  -8.192 -22.216  0.00  0.00    +0.003 C 
BRANCH  13  18
ATOM     18  O   UNL     1      30.556 -11.652 -21.456  0.00  0.00    -0.505 OA
ATOM     19  H   UNL     1      30.400 -11.676 -20.532  0.00  0.00    +0.292 HD
ENDBRANCH  13  18
ENDBRANCH   7  12
BRANCH   5  20
ATOM     20  O   UNL     1      34.060 -14.373 -20.151  0.00  0.00    -0.465 OA
ATOM     21  C   UNL     1      32.789 -14.207 -19.527  0.00  0.00    +0.253 C 
ENDBRANCH   5  20
BRANCH   9  22
ATOM     22  O   UNL     1      34.998 -18.038 -23.066  0.00  0.00    -0.465 OA
ATOM     23  C   UNL     1      34.064 -19.094 -22.865  0.00  0.00    +0.253 C 
ENDBRANCH   9  22
BRANCH   6  24
ATOM     24  O   UNL     1      34.114 -16.596 -25.207  0.00  0.00    -0.503 OA
ATOM     25  H   UNL     1      33.835 -16.108 -25.957  0.00  0.00    +0.292 HD
ENDBRANCH   6  24
BRANCH  10  26
ATOM     26  O   UNL     1      34.977 -16.942 -20.540  0.00  0.00    -0.501 OA
ATOM     27  H   UNL     1      35.895 -16.999 -20.362  0.00  0.00    +0.292 HD
ENDBRANCH  10  26
TORSDOF 6
ENDMDL
MODEL 2
REMARK VINA RESULT:     -10.4      8.263     11.871
REMARK  Name = 9818878
REMARK  6 active torsions:
REMARK  status: ('A' for Active; 'I' for Inactive)
REMARK    1  A    between atoms: C_5  and  O_20
REMARK    2  A    between atoms: C_6  and  O_24
REMARK    3  A    between atoms: C_7  and  C_12
REMARK    4  A    between atoms: C_9  and  O_22
REMARK    5  A    between atoms: C_10  and  O_26
REMARK    6  A    between atoms: C_13  and  O_18
REMARK                            x       y       z     vdW  Elec       q    Type
REMARK                         _______ _______ _______ _____ _____    ______ ____
ROOT
ATOM      1  O   UNL     1      34.035 -22.260 -16.647  0.00  0.00    -0.450 OA
ATOM      2  O   UNL     1      37.994 -22.326 -15.685  0.00  0.00    -0.286 OA
ATOM      3  C   UNL     1      35.784 -22.916 -15.093  0.00  0.00    +0.113 A 
ATOM      4  C   UNL     1      34.446 -22.856 -15.482  0.00  0.00    +0.188 A 
ATOM      5  C   UNL     1      33.459 -23.417 -14.671  0.00  0.00    +0.210 A 
ATOM      6  C   UNL     1      36.143 -23.536 -13.894  0.00  0.00    +0.177 A 
ATOM      7  C   UNL     1      34.994 -21.700 -17.476  0.00  0.00    +0.151 C 
ATOM      8  C   UNL     1      36.803 -22.315 -15.966  0.00  0.00    +0.205 C 
ATOM      9  C   UNL     1      35.154 -24.097 -13.086  0.00  0.00    +0.209 A 
ATOM     10  C   UNL     1      33.815 -24.038 -13.473  0.00  0.00    +0.209 A 
ATOM     11  C   UNL     1      36.311 -21.689 -17.209  0.00  0.00    +0.080 C 
ENDROOT
BRANCH   7  12
ATOM     12  C   UNL     1      34.444 -21.081 -18.699  0.00  0.00    +0.068 C 
ATOM     13  C   UNL     1      33.079 -21.149 -18.996  0.00  0.00    +0.137 C 
ATOM     14  C   UNL     1      35.308 -20.415 -19.573  0.00  0.00    +0.006 C 
ATOM     15  C   UNL     1      32.583 -20.556 -20.157  0.00  0.00    +0.037 C 
ATOM     16  C   UNL     1      34.812 -19.823 -20.734  0.00  0.00    +0.000 C 
ATOM     17  C   UNL     1      33.450 -19.893 -21.027  0.00  0.00    +0.003 C 
BRANCH  13  18
ATOM     18  O   UNL     1      32.211 -21.791 -18.164  0.00  0.00    -0.505 OA
ATOM     19  H   UNL     1      32.208 -21.594 -17.248  0.00  0.00    +0.292 HD
ENDBRANCH  13  18
ENDBRANCH   7  12
BRANCH   5  20
ATOM     20  O   UNL     1      32.149 -23.363 -15.044  0.00  0.00    -0.465 OA
ATOM     21  C   UNL     1      31.348 -22.344 -14.450  0.00  0.00    +0.253 C 
ENDBRANCH   5  20
BRANCH   9  22
ATOM     22  O   UNL     1      35.495 -24.705 -11.913  0.00  0.00    -0.465 OA
ATOM     23  C   UNL     1      35.492 -23.895 -10.741  0.00  0.00    +0.253 C 
ENDBRANCH   9  22
BRANCH   6  24
ATOM     24  O   UNL     1      37.441 -23.613 -13.483  0.00  0.00    -0.503 OA
ATOM     25  H   UNL     1      37.642 -23.643 -12.568  0.00  0.00    +0.292 HD
ENDBRANCH   6  24
BRANCH  10  26
ATOM     26  O   UNL     1      32.852 -24.588 -12.679  0.00  0.00    -0.501 OA
ATOM     27  H   UNL     1      32.551 -25.460 -12.844  0.00  0.00    +0.292 HD
ENDBRANCH  10  26
TORSDOF 6
ENDMDL
MODEL 3
REMARK VINA RESULT:      -9.9      2.637      7.081
REMARK  Name = 9818878
REMARK  6 active torsions:
REMARK  status: ('A' for Active; 'I' for Inactive)
REMARK    1  A    between atoms: C_5  and  O_20
REMARK    2  A    between atoms: C_6  and  O_24
REMARK    3  A    between atoms: C_7  and  C_12
REMARK    4  A    between atoms: C_9  and  O_22
REMARK    5  A    between atoms: C_10  and  O_26
REMARK    6  A    between atoms: C_13  and  O_18
REMARK                            x       y       z     vdW  Elec       q    Type
REMARK                         _______ _______ _______ _____ _____    ______ ____
ROOT
ATOM      1  O   UNL     1      34.306 -17.050 -21.287  0.00  0.00    -0.450 OA
ATOM      2  O   UNL     1      33.707 -17.909 -25.224  0.00  0.00    -0.286 OA
ATOM      3  C   UNL     1      33.862 -16.258 -23.541  0.00  0.00    +0.113 A 
ATOM      4  C   UNL     1      34.074 -16.036 -22.181  0.00  0.00    +0.188 A 
ATOM      5  C   UNL     1      34.051 -14.735 -21.677  0.00  0.00    +0.210 A 
ATOM      6  C   UNL     1      33.629 -15.186 -24.405  0.00  0.00    +0.177 A 
ATOM      7  C   UNL     1      34.340 -18.352 -21.761  0.00  0.00    +0.151 C 
ATOM      8  C   UNL     1      33.889 -17.640 -24.045  0.00  0.00    +0.205 C 
ATOM      9  C   UNL     1      33.608 -13.887 -23.898  0.00  0.00    +0.209 A 
ATOM     10  C   UNL     1      33.819 -13.661 -22.536  0.00  0.00    +0.209 A 
ATOM     11  C   UNL     1      34.147 -18.695 -23.045  0.00  0.00    +0.080 C 
ENDROOT
BRANCH   7  12
ATOM     12  C   UNL     1      34.593 -19.365 -20.715  0.00  0.00    +0.068 C 
ATOM     13  C   UNL     1      35.849 -19.492 -20.116  0.00  0.00    +0.137 C 
ATOM     14  C   UNL     1      33.552 -20.210 -20.321  0.00  0.00    +0.006 C 
ATOM     15  C   UNL     1      36.063 -20.456 -19.130  0.00  0.00    +0.037 C 
ATOM     16  C   UNL     1      33.765 -21.174 -19.336  0.00  0.00    +0.000 C 
ATOM     17  C   UNL     1      35.020 -21.297 -18.741  0.00  0.00    +0.003 C 
BRANCH  13  18
ATOM     18  O   UNL     1      36.885 -18.682 -20.478  0.00  0.00    -0.505 OA
ATOM     19  H   UNL     1      36.720 -17.903 -20.972  0.00  0.00    +0.292 HD
ENDBRANCH  13  18
ENDBRANCH   7  12
BRANCH   5  20
ATOM     20  O   UNL     1      34.257 -14.508 -20.348  0.00  0.00    -0.465 OA
ATOM     21  C   UNL     1      33.100 -14.418 -19.520  0.00  0.00    +0.253 C 
ENDBRANCH   5  20
BRANCH   9  22
ATOM     22  O   UNL     1      33.382 -12.831 -24.733  0.00  0.00    -0.465 OA
ATOM     23  C   UNL     1      32.315 -12.966 -25.668  0.00  0.00    +0.253 C 
ENDBRANCH   9  22
BRANCH   6  24
ATOM     24  O   UNL     1      33.419 -15.367 -25.739  0.00  0.00    -0.503 OA
ATOM     25  H   UNL     1      34.112 -15.203 -26.350  0.00  0.00    +0.292 HD
ENDBRANCH   6  24
BRANCH  10  26
ATOM     26  O   UNL     1      33.798 -12.389 -22.047  0.00  0.00    -0.501 OA
ATOM     27  H   UNL     1      34.491 -11.794 -22.258  0.00  0.00    +0.292 HD
ENDBRANCH  10  26
TORSDOF 6
ENDMDL
MODEL 4
REMARK VINA RESULT:      -9.8      8.810     12.544
REMARK  Name = 9818878
REMARK  6 active torsions:
REMARK  status: ('A' for Active; 'I' for Inactive)
REMARK    1  A    between atoms: C_5  and  O_20
REMARK    2  A    between atoms: C_6  and  O_24
REMARK    3  A    between atoms: C_7  and  C_12
REMARK    4  A    between atoms: C_9  and  O_22
REMARK    5  A    between atoms: C_10  and  O_26
REMARK    6  A    between atoms: C_13  and  O_18
REMARK                            x       y       z     vdW  Elec       q    Type
REMARK                         _______ _______ _______ _____ _____    ______ ____
ROOT
ATOM      1  O   UNL     1      35.022 -22.312 -16.103  0.00  0.00    -0.450 OA
ATOM      2  O   UNL     1      31.591 -23.890 -14.574  0.00  0.00    -0.286 OA
ATOM      3  C   UNL     1      33.901 -23.480 -14.291  0.00  0.00    +0.113 A 
ATOM      4  C   UNL     1      35.038 -22.921 -14.874  0.00  0.00    +0.188 A 
ATOM      5  C   UNL     1      36.260 -22.970 -14.203  0.00  0.00    +0.210 A 
ATOM      6  C   UNL     1      33.977 -24.089 -13.037  0.00  0.00    +0.177 A 
ATOM      7  C   UNL     1      33.820 -22.243 -16.790  0.00  0.00    +0.151 C 
ATOM      8  C   UNL     1      32.626 -23.416 -15.022  0.00  0.00    +0.205 C 
ATOM      9  C   UNL     1      35.200 -24.135 -12.368  0.00  0.00    +0.209 A 
ATOM     10  C   UNL     1      36.340 -23.576 -12.949  0.00  0.00    +0.209 A 
ATOM     11  C   UNL     1      32.661 -22.748 -16.338  0.00  0.00    +0.080 C 
ENDROOT
BRANCH   7  12
ATOM     12  C   UNL     1      33.916 -21.572 -18.102  0.00  0.00    +0.068 C 
ATOM     13  C   UNL     1      35.156 -21.253 -18.666  0.00  0.00    +0.137 C 
ATOM     14  C   UNL     1      32.743 -21.251 -18.791  0.00  0.00    +0.006 C 
ATOM     15  C   UNL     1      35.220 -20.620 -19.907  0.00  0.00    +0.037 C 
ATOM     16  C   UNL     1      32.808 -20.618 -20.032  0.00  0.00    +0.000 C 
ATOM     17  C   UNL     1      34.046 -20.302 -20.590  0.00  0.00    +0.003 C 
BRANCH  13  18
ATOM     18  O   UNL     1      36.318 -21.552 -18.019  0.00  0.00    -0.505 OA
ATOM     19  H   UNL     1      36.698 -20.934 -17.426  0.00  0.00    +0.292 HD
ENDBRANCH  13  18
ENDBRANCH   7  12
BRANCH   5  20
ATOM     20  O   UNL     1      37.376 -22.425 -14.766  0.00  0.00    -0.465 OA
ATOM     21  C   UNL     1      38.254 -23.314 -15.452  0.00  0.00    +0.253 C 
ENDBRANCH   5  20
BRANCH   9  22
ATOM     22  O   UNL     1      35.286 -24.727 -11.141  0.00  0.00    -0.465 OA
ATOM     23  C   UNL     1      35.279 -23.866 -10.006  0.00  0.00    +0.253 C 
ENDBRANCH   9  22
BRANCH   6  24
ATOM     24  O   UNL     1      32.887 -24.645 -12.437  0.00  0.00    -0.503 OA
ATOM     25  H   UNL     1      32.179 -24.971 -12.959  0.00  0.00    +0.292 HD
ENDBRANCH   6  24
BRANCH  10  26
ATOM     26  O   UNL     1      37.532 -23.624 -12.291  0.00  0.00    -0.501 OA
ATOM     27  H   UNL     1      38.334 -23.668 -12.775  0.00  0.00    +0.292 HD
ENDBRANCH  10  26
TORSDOF 6
ENDMDL
MODEL 5
REMARK VINA RESULT:      -9.6      9.878     13.746
REMARK  Name = 9818878
REMARK  6 active torsions:
REMARK  status: ('A' for Active; 'I' for Inactive)
REMARK    1  A    between atoms: C_5  and  O_20
REMARK    2  A    between atoms: C_6  and  O_24
REMARK    3  A    between atoms: C_7  and  C_12
REMARK    4  A    between atoms: C_9  and  O_22
REMARK    5  A    between atoms: C_10  and  O_26
REMARK    6  A    between atoms: C_13  and  O_18
REMARK                            x       y       z     vdW  Elec       q    Type
REMARK                         _______ _______ _______ _____ _____    ______ ____
ROOT
ATOM      1  O   UNL     1      35.103 -23.460 -15.725  0.00  0.00    -0.450 OA
ATOM      2  O   UNL     1      32.395 -23.703 -12.691  0.00  0.00    -0.286 OA
ATOM      3  C   UNL     1      32.825 -23.138 -14.944  0.00  0.00    +0.113 A 
ATOM      4  C   UNL     1      33.803 -23.079 -15.937  0.00  0.00    +0.188 A 
ATOM      5  C   UNL     1      33.474 -22.616 -17.211  0.00  0.00    +0.210 A 
ATOM      6  C   UNL     1      31.516 -22.736 -15.218  0.00  0.00    +0.177 A 
ATOM      7  C   UNL     1      35.457 -23.931 -14.470  0.00  0.00    +0.151 C 
ATOM      8  C   UNL     1      33.199 -23.629 -13.610  0.00  0.00    +0.205 C 
ATOM      9  C   UNL     1      31.191 -22.274 -16.494  0.00  0.00    +0.209 A 
ATOM     10  C   UNL     1      32.168 -22.214 -17.488  0.00  0.00    +0.209 A 
ATOM     11  C   UNL     1      34.609 -24.029 -13.433  0.00  0.00    +0.080 C 
ENDROOT
BRANCH   7  12
ATOM     12  C   UNL     1      36.880 -24.308 -14.350  0.00  0.00    +0.068 C 
ATOM     13  C   UNL     1      37.875 -23.625 -15.056  0.00  0.00    +0.137 C 
ATOM     14  C   UNL     1      37.235 -25.369 -13.511  0.00  0.00    +0.006 C 
ATOM     15  C   UNL     1      39.212 -23.999 -14.924  0.00  0.00    +0.037 C 
ATOM     16  C   UNL     1      38.572 -25.744 -13.381  0.00  0.00    +0.000 C 
ATOM     17  C   UNL     1      39.560 -25.059 -14.087  0.00  0.00    +0.003 C 
BRANCH  13  18
ATOM     18  O   UNL     1      37.561 -22.586 -15.881  0.00  0.00    -0.505 OA
ATOM     19  H   UNL     1      38.069 -22.431 -16.654  0.00  0.00    +0.292 HD
ENDBRANCH  13  18
ENDBRANCH   7  12
BRANCH   5  20
ATOM     20  O   UNL     1      34.425 -22.555 -18.187  0.00  0.00    -0.465 OA
ATOM     21  C   UNL     1      35.201 -21.362 -18.262  0.00  0.00    +0.253 C 
ENDBRANCH   5  20
BRANCH   9  22
ATOM     22  O   UNL     1      29.914 -21.879 -16.771  0.00  0.00    -0.465 OA
ATOM     23  C   UNL     1      28.873 -22.807 -16.481  0.00  0.00    +0.253 C 
ENDBRANCH   9  22
BRANCH   6  24
ATOM     24  O   UNL     1      30.535 -22.780 -14.273  0.00  0.00    -0.503 OA
ATOM     25  H   UNL     1      30.536 -23.460 -13.627  0.00  0.00    +0.292 HD
ENDBRANCH   6  24
BRANCH  10  26
ATOM     26  O   UNL     1      31.844 -21.762 -18.733  0.00  0.00    -0.501 OA
ATOM     27  H   UNL     1      30.949 -21.762 -19.014  0.00  0.00    +0.292 HD
ENDBRANCH  10  26
TORSDOF 6
ENDMDL
MODEL 6
REMARK VINA RESULT:      -9.1      1.017      3.288
REMARK  Name = 9818878
REMARK  6 active torsions:
REMARK  status: ('A' for Active; 'I' for Inactive)
REMARK    1  A    between atoms: C_5  and  O_20
REMARK    2  A    between atoms: C_6  and  O_24
REMARK    3  A    between atoms: C_7  and  C_12
REMARK    4  A    between atoms: C_9  and  O_22
REMARK    5  A    between atoms: C_10  and  O_26
REMARK    6  A    between atoms: C_13  and  O_18
REMARK                            x       y       z     vdW  Elec       q    Type
REMARK                         _______ _______ _______ _____ _____    ______ ____
ROOT
ATOM      1  O   UNL     1      32.763 -13.167 -23.254  0.00  0.00    -0.450 OA
ATOM      2  O   UNL     1      34.099 -14.508 -19.646  0.00  0.00    -0.286 OA
ATOM      3  C   UNL     1      33.814 -14.930 -21.953  0.00  0.00    +0.113 A 
ATOM      4  C   UNL     1      33.335 -14.410 -23.155  0.00  0.00    +0.188 A 
ATOM      5  C   UNL     1      33.425 -15.164 -24.326  0.00  0.00    +0.210 A 
ATOM      6  C   UNL     1      34.386 -16.203 -21.913  0.00  0.00    +0.177 A 
ATOM      7  C   UNL     1      32.666 -12.392 -22.109  0.00  0.00    +0.151 C 
ATOM      8  C   UNL     1      33.704 -14.114 -20.735  0.00  0.00    +0.205 C 
ATOM      9  C   UNL     1      34.476 -16.954 -23.085  0.00  0.00    +0.209 A 
ATOM     10  C   UNL     1      33.997 -16.436 -24.289  0.00  0.00    +0.209 A 
ATOM     11  C   UNL     1      33.085 -12.783 -20.894  0.00  0.00    +0.080 C 
ENDROOT
BRANCH   7  12
ATOM     12  C   UNL     1      32.030 -11.076 -22.326  0.00  0.00    +0.068 C 
ATOM     13  C   UNL     1      32.640 -10.097 -23.115  0.00  0.00    +0.137 C 
ATOM     14  C   UNL     1      30.795 -10.809 -21.728  0.00  0.00    +0.006 C 
ATOM     15  C   UNL     1      32.020  -8.862 -23.306  0.00  0.00    +0.037 C 
ATOM     16  C   UNL     1      30.176  -9.575 -21.918  0.00  0.00    +0.000 C 
ATOM     17  C   UNL     1      30.787  -8.601 -22.707  0.00  0.00    +0.003 C 
BRANCH  13  18
ATOM     18  O   UNL     1      33.845 -10.326 -23.712  0.00  0.00    -0.505 OA
ATOM     19  H   UNL     1      34.434 -10.960 -23.351  0.00  0.00    +0.292 HD
ENDBRANCH  13  18
ENDBRANCH   7  12
BRANCH   5  20
ATOM     20  O   UNL     1      32.959 -14.663 -25.505  0.00  0.00    -0.465 OA
ATOM     21  C   UNL     1      33.091 -13.258 -25.708  0.00  0.00    +0.253 C 
ENDBRANCH   5  20
BRANCH   9  22
ATOM     22  O   UNL     1      35.034 -18.199 -23.057  0.00  0.00    -0.465 OA
ATOM     23  C   UNL     1      34.192 -19.275 -22.650  0.00  0.00    +0.253 C 
ENDBRANCH   9  22
BRANCH   6  24
ATOM     24  O   UNL     1      34.865 -16.742 -20.757  0.00  0.00    -0.503 OA
ATOM     25  H   UNL     1      34.594 -17.600 -20.491  0.00  0.00    +0.292 HD
ENDBRANCH   6  24
BRANCH  10  26
ATOM     26  O   UNL     1      34.088 -17.174 -25.432  0.00  0.00    -0.501 OA
ATOM     27  H   UNL     1      33.455 -17.062 -26.114  0.00  0.00    +0.292 HD
ENDBRANCH  10  26
TORSDOF 6
ENDMDL
MODEL 7
REMARK VINA RESULT:      -8.7     11.017     13.831
REMARK  Name = 9818878
REMARK  6 active torsions:
REMARK  status: ('A' for Active; 'I' for Inactive)
REMARK    1  A    between atoms: C_5  and  O_20
REMARK    2  A    between atoms: C_6  and  O_24
REMARK    3  A    between atoms: C_7  and  C_12
REMARK    4  A    between atoms: C_9  and  O_22
REMARK    5  A    between atoms: C_10  and  O_26
REMARK    6  A    between atoms: C_13  and  O_18
REMARK                            x       y       z     vdW  Elec       q    Type
REMARK                         _______ _______ _______ _____ _____    ______ ____
ROOT
ATOM      1  O   UNL     1      33.322 -23.463 -13.826  0.00  0.00    -0.450 OA
ATOM      2  O   UNL     1      34.041 -22.368 -17.683  0.00  0.00    -0.286 OA
ATOM      3  C   UNL     1      32.456 -22.694 -15.962  0.00  0.00    +0.113 A 
ATOM      4  C   UNL     1      32.281 -23.082 -14.634  0.00  0.00    +0.188 A 
ATOM      5  C   UNL     1      31.003 -23.095 -14.075  0.00  0.00    +0.210 A 
ATOM      6  C   UNL     1      31.358 -22.316 -16.738  0.00  0.00    +0.177 A 
ATOM      7  C   UNL     1      34.604 -23.454 -14.352  0.00  0.00    +0.151 C 
ATOM      8  C   UNL     1      33.815 -22.691 -16.526  0.00  0.00    +0.205 C 
ATOM      9  C   UNL     1      30.082 -22.329 -16.176  0.00  0.00    +0.209 A 
ATOM     10  C   UNL     1      29.904 -22.717 -14.847  0.00  0.00    +0.209 A 
ATOM     11  C   UNL     1      34.900 -23.106 -15.615  0.00  0.00    +0.080 C 
ENDROOT
BRANCH   7  12
ATOM     12  C   UNL     1      35.647 -23.886 -13.400  0.00  0.00    +0.068 C 
ATOM     13  C   UNL     1      35.519 -23.654 -12.027  0.00  0.00    +0.137 C 
ATOM     14  C   UNL     1      36.784 -24.540 -13.885  0.00  0.00    +0.006 C 
ATOM     15  C   UNL     1      36.517 -24.072 -11.148  0.00  0.00    +0.037 C 
ATOM     16  C   UNL     1      37.782 -24.958 -13.006  0.00  0.00    +0.000 C 
ATOM     17  C   UNL     1      37.650 -24.724 -11.637  0.00  0.00    +0.003 C 
BRANCH  13  18
ATOM     18  O   UNL     1      34.423 -23.019 -11.522  0.00  0.00    -0.505 OA
ATOM     19  H   UNL     1      34.439 -22.678 -10.650  0.00  0.00    +0.292 HD
ENDBRANCH  13  18
ENDBRANCH   7  12
BRANCH   5  20
ATOM     20  O   UNL     1      30.823 -23.473 -12.777  0.00  0.00    -0.465 OA
ATOM     21  C   UNL     1      30.235 -24.751 -12.551  0.00  0.00    +0.253 C 
ENDBRANCH   5  20
BRANCH   9  22
ATOM     22  O   UNL     1      29.002 -21.962 -16.926  0.00  0.00    -0.465 OA
ATOM     23  C   UNL     1      27.906 -22.871 -16.968  0.00  0.00    +0.253 C 
ENDBRANCH   9  22
BRANCH   6  24
ATOM     24  O   UNL     1      31.493 -21.931 -18.039  0.00  0.00    -0.503 OA
ATOM     25  H   UNL     1      30.734 -21.716 -18.545  0.00  0.00    +0.292 HD
ENDBRANCH   6  24
BRANCH  10  26
ATOM     26  O   UNL     1      28.654 -22.728 -14.303  0.00  0.00    -0.501 OA
ATOM     27  H   UNL     1      27.993 -23.291 -14.657  0.00  0.00    +0.292 HD
ENDBRANCH  10  26
TORSDOF 6
ENDMDL
MODEL 8
REMARK VINA RESULT:      -8.4      1.936      7.414
REMARK  Name = 9818878
REMARK  6 active torsions:
REMARK  status: ('A' for Active; 'I' for Inactive)
REMARK    1  A    between atoms: C_5  and  O_20
REMARK    2  A    between atoms: C_6  and  O_24
REMARK    3  A    between atoms: C_7  and  C_12
REMARK    4  A    between atoms: C_9  and  O_22
REMARK    5  A    between atoms: C_10  and  O_26
REMARK    6  A    between atoms: C_13  and  O_18
REMARK                            x       y       z     vdW  Elec       q    Type
REMARK                         _______ _______ _______ _____ _____    ______ ____
ROOT
ATOM      1  O   UNL     1      34.141 -17.126 -22.525  0.00  0.00    -0.450 OA
ATOM      2  O   UNL     1      34.127 -13.871 -20.075  0.00  0.00    -0.286 OA
ATOM      3  C   UNL     1      33.840 -14.729 -22.257  0.00  0.00    +0.113 A 
ATOM      4  C   UNL     1      33.863 -15.885 -23.038  0.00  0.00    +0.188 A 
ATOM      5  C   UNL     1      33.598 -15.806 -24.406  0.00  0.00    +0.210 A 
ATOM      6  C   UNL     1      33.552 -13.491 -22.836  0.00  0.00    +0.177 A 
ATOM      7  C   UNL     1      34.401 -17.236 -21.168  0.00  0.00    +0.151 C 
ATOM      8  C   UNL     1      34.125 -14.842 -20.819  0.00  0.00    +0.205 C 
ATOM      9  C   UNL     1      33.286 -13.416 -24.203  0.00  0.00    +0.209 A 
ATOM     10  C   UNL     1      33.309 -14.571 -24.987  0.00  0.00    +0.209 A 
ATOM     11  C   UNL     1      34.414 -16.199 -20.315  0.00  0.00    +0.080 C 
ENDROOT
BRANCH   7  12
ATOM     12  C   UNL     1      34.692 -18.614 -20.722  0.00  0.00    +0.068 C 
ATOM     13  C   UNL     1      36.006 -19.058 -20.547  0.00  0.00    +0.137 C 
ATOM     14  C   UNL     1      33.630 -19.487 -20.472  0.00  0.00    +0.006 C 
ATOM     15  C   UNL     1      36.255 -20.364 -20.124  0.00  0.00    +0.037 C 
ATOM     16  C   UNL     1      33.879 -20.792 -20.050  0.00  0.00    +0.000 C 
ATOM     17  C   UNL     1      35.191 -21.231 -19.876  0.00  0.00    +0.003 C 
BRANCH  13  18
ATOM     18  O   UNL     1      37.064 -18.231 -20.783  0.00  0.00    -0.505 OA
ATOM     19  H   UNL     1      36.947 -17.455 -21.295  0.00  0.00    +0.292 HD
ENDBRANCH  13  18
ENDBRANCH   7  12
BRANCH   5  20
ATOM     20  O   UNL     1      33.618 -16.930 -25.177  0.00  0.00    -0.465 OA
ATOM     21  C   UNL     1      32.716 -17.975 -24.821  0.00  0.00    +0.253 C 
ENDBRANCH   5  20
BRANCH   9  22
ATOM     22  O   UNL     1      33.003 -12.211 -24.778  0.00  0.00    -0.465 OA
ATOM     23  C   UNL     1      32.305 -11.261 -23.977  0.00  0.00    +0.253 C 
ENDBRANCH   9  22
BRANCH   6  24
ATOM     24  O   UNL     1      33.520 -12.343 -22.102  0.00  0.00    -0.503 OA
ATOM     25  H   UNL     1      34.166 -11.678 -22.243  0.00  0.00    +0.292 HD
ENDBRANCH   6  24
BRANCH  10  26
ATOM     26  O   UNL     1      33.048 -14.491 -26.323  0.00  0.00    -0.501 OA
ATOM     27  H   UNL     1      32.856 -13.661 -26.714  0.00  0.00    +0.292 HD
ENDBRANCH  10  26
TORSDOF 6
ENDMDL
MODEL 9
REMARK VINA RESULT:      -8.2      8.059     12.265
REMARK  Name = 9818878
REMARK  6 active torsions:
REMARK  status: ('A' for Active; 'I' for Inactive)
REMARK    1  A    between atoms: C_5  and  O_20
REMARK    2  A    between atoms: C_6  and  O_24
REMARK    3  A    between atoms: C_7  and  C_12
REMARK    4  A    between atoms: C_9  and  O_22
REMARK    5  A    between atoms: C_10  and  O_26
REMARK    6  A    between atoms: C_13  and  O_18
REMARK                            x       y       z     vdW  Elec       q    Type
REMARK                         _______ _______ _______ _____ _____    ______ ____
ROOT
ATOM      1  O   UNL     1      34.740 -22.752 -15.739  0.00  0.00    -0.450 OA
ATOM      2  O   UNL     1      37.718 -20.220 -16.887  0.00  0.00    -0.286 OA
ATOM      3  C   UNL     1      35.665 -21.261 -17.420  0.00  0.00    +0.113 A 
ATOM      4  C   UNL     1      34.682 -22.140 -16.965  0.00  0.00    +0.188 A 
ATOM      5  C   UNL     1      33.580 -22.429 -17.771  0.00  0.00    +0.210 A 
ATOM      6  C   UNL     1      35.554 -20.667 -18.679  0.00  0.00    +0.177 A 
ATOM      7  C   UNL     1      35.820 -22.479 -14.915  0.00  0.00    +0.151 C 
ATOM      8  C   UNL     1      36.817 -20.976 -16.551  0.00  0.00    +0.205 C 
ATOM      9  C   UNL     1      34.450 -20.958 -19.481  0.00  0.00    +0.209 A 
ATOM     10  C   UNL     1      33.465 -21.837 -19.028  0.00  0.00    +0.209 A 
ATOM     11  C   UNL     1      36.831 -21.657 -15.241  0.00  0.00    +0.080 C 
ENDROOT
BRANCH   7  12
ATOM     12  C   UNL     1      35.786 -23.194 -13.623  0.00  0.00    +0.068 C 
ATOM     13  C   UNL     1      34.591 -23.359 -12.916  0.00  0.00    +0.137 C 
ATOM     14  C   UNL     1      36.974 -23.715 -13.101  0.00  0.00    +0.006 C 
ATOM     15  C   UNL     1      34.584 -24.039 -11.698  0.00  0.00    +0.037 C 
ATOM     16  C   UNL     1      36.967 -24.394 -11.883  0.00  0.00    +0.000 C 
ATOM     17  C   UNL     1      35.773 -24.556 -11.181  0.00  0.00    +0.003 C 
BRANCH  13  18
ATOM     18  O   UNL     1      33.416 -22.863 -13.398  0.00  0.00    -0.505 OA
ATOM     19  H   UNL     1      32.605 -23.104 -12.995  0.00  0.00    +0.292 HD
ENDBRANCH  13  18
ENDBRANCH   7  12
BRANCH   5  20
ATOM     20  O   UNL     1      32.615 -23.287 -17.333  0.00  0.00    -0.465 OA
ATOM     21  C   UNL     1      31.587 -22.739 -16.511  0.00  0.00    +0.253 C 
ENDBRANCH   5  20
BRANCH   9  22
ATOM     22  O   UNL     1      34.331 -20.382 -20.713  0.00  0.00    -0.465 OA
ATOM     23  C   UNL     1      33.808 -19.058 -20.759  0.00  0.00    +0.253 C 
ENDBRANCH   9  22
BRANCH   6  24
ATOM     24  O   UNL     1      36.495 -19.804 -19.155  0.00  0.00    -0.503 OA
ATOM     25  H   UNL     1      36.803 -19.885 -20.037  0.00  0.00    +0.292 HD
ENDBRANCH   6  24
BRANCH  10  26
ATOM     26  O   UNL     1      32.389 -22.117 -19.817  0.00  0.00    -0.501 OA
ATOM     27  H   UNL     1      32.271 -22.981 -20.159  0.00  0.00    +0.292 HD
ENDBRANCH  10  26
TORSDOF 6
ENDMDL
