MODEL 1
REMARK VINA RESULT:     -12.5      0.000      0.000
REMARK  Name = 5287739
REMARK  3 active torsions:
REMARK  status: ('A' for Active; 'I' for Inactive)
REMARK    1  A    between atoms: C_2  and  O_21
REMARK    2  A    between atoms: C_3  and  O_23
REMARK    3  A    between atoms: C_4  and  O_25
REMARK                            x       y       z     vdW  Elec       q    Type
REMARK                         _______ _______ _______ _____ _____    ______ ____
ROOT
ATOM      1  C   UNL     1      35.171 -23.341 -13.364  0.00  0.00    -0.021 C 
ATOM      2  C   UNL     1      36.832 -24.371 -11.195  0.00  0.00    +0.168 C 
ATOM      3  C   UNL     1      37.464 -23.419 -12.212  0.00  0.00    +0.162 C 
ATOM      4  C   UNL     1      35.406 -23.926 -10.882  0.00  0.00    +0.144 C 
ATOM      5  C   UNL     1      34.529 -23.955 -12.133  0.00  0.00    +0.058 C 
ATOM      6  C   UNL     1      36.561 -23.104 -13.387  0.00  0.00    +0.003 C 
ATOM      7  C   UNL     1      34.380 -23.045 -14.516  0.00  0.00    -0.004 C 
ATOM      8  C   UNL     1      35.001 -22.474 -15.657  0.00  0.00    -0.000 C 
ATOM      9  C   UNL     1      36.388 -22.214 -15.655  0.00  0.00    -0.000 C 
ATOM     10  C   UNL     1      37.148 -22.534 -14.527  0.00  0.00    -0.002 C 
ATOM     11  C   UNL     1      34.241 -22.157 -16.818  0.00  0.00    -0.000 C 
ATOM     12  C   UNL     1      32.993 -23.296 -14.593  0.00  0.00    -0.000 C 
ATOM     13  C   UNL     1      32.853 -22.417 -16.851  0.00  0.00    -0.000 C 
ATOM     14  C   UNL     1      34.867 -21.582 -17.950  0.00  0.00    -0.000 C 
ATOM     15  C   UNL     1      36.993 -21.645 -16.784  0.00  0.00    -0.000 C 
ATOM     16  C   UNL     1      32.245 -22.988 -15.732  0.00  0.00    -0.000 C 
ATOM     17  C   UNL     1      36.243 -21.331 -17.917  0.00  0.00    -0.000 C 
ATOM     18  C   UNL     1      32.113 -22.101 -17.999  0.00  0.00    -0.000 C 
ATOM     19  C   UNL     1      34.103 -21.276 -19.086  0.00  0.00    -0.000 C 
ATOM     20  C   UNL     1      32.734 -21.533 -19.108  0.00  0.00    +0.000 C 
ENDROOT
BRANCH   2  21
ATOM     21  O   UNL     1      36.817 -25.698 -11.721  0.00  0.00    -0.379 OA
ATOM     22  H   UNL     1      36.054 -26.178 -11.364  0.00  0.00    +0.211 HD
ENDBRANCH   2  21
BRANCH   3  23
ATOM     23  O   UNL     1      37.783 -22.184 -11.573  0.00  0.00    -0.377 OA
ATOM     24  H   UNL     1      37.957 -21.508 -12.247  0.00  0.00    +0.211 HD
ENDBRANCH   3  23
BRANCH   4  25
ATOM     25  O   UNL     1      34.828 -24.785  -9.902  0.00  0.00    -0.382 OA
ATOM     26  H   UNL     1      33.861 -24.738  -9.960  0.00  0.00    +0.210 HD
ENDBRANCH   4  25
TORSDOF 3
ENDMDL
MODEL 2
REMARK VINA RESULT:     -11.7      0.973      3.187
REMARK  Name = 5287739
REMARK  3 active torsions:
REMARK  status: ('A' for Active; 'I' for Inactive)
REMARK    1  A    between atoms: C_2  and  O_21
REMARK    2  A    between atoms: C_3  and  O_23
REMARK    3  A    between atoms: C_4  and  O_25
REMARK                            x       y       z     vdW  Elec       q    Type
REMARK                         _______ _______ _______ _____ _____    ______ ____
ROOT
ATOM      1  C   UNL     1      36.021 -22.842 -14.323  0.00  0.00    -0.021 C 
ATOM      2  C   UNL     1      36.528 -23.406 -11.503  0.00  0.00    +0.168 C 
ATOM      3  C   UNL     1      35.181 -23.817 -12.101  0.00  0.00    +0.162 C 
ATOM      4  C   UNL     1      37.643 -23.652 -12.515  0.00  0.00    +0.144 C 
ATOM      5  C   UNL     1      37.438 -22.820 -13.779  0.00  0.00    +0.058 C 
ATOM      6  C   UNL     1      34.964 -23.307 -13.511  0.00  0.00    +0.003 C 
ATOM      7  C   UNL     1      35.745 -22.349 -15.634  0.00  0.00    -0.004 C 
ATOM      8  C   UNL     1      34.413 -22.376 -16.122  0.00  0.00    -0.000 C 
ATOM      9  C   UNL     1      33.370 -22.872 -15.310  0.00  0.00    -0.000 C 
ATOM     10  C   UNL     1      33.657 -23.327 -14.020  0.00  0.00    -0.002 C 
ATOM     11  C   UNL     1      34.105 -21.903 -17.428  0.00  0.00    -0.000 C 
ATOM     12  C   UNL     1      36.736 -21.823 -16.492  0.00  0.00    -0.000 C 
ATOM     13  C   UNL     1      35.127 -21.391 -18.257  0.00  0.00    -0.000 C 
ATOM     14  C   UNL     1      32.773 -21.938 -17.908  0.00  0.00    -0.000 C 
ATOM     15  C   UNL     1      32.057 -22.900 -15.799  0.00  0.00    -0.000 C 
ATOM     16  C   UNL     1      36.436 -21.355 -17.774  0.00  0.00    -0.000 C 
ATOM     17  C   UNL     1      31.762 -22.441 -17.083  0.00  0.00    -0.000 C 
ATOM     18  C   UNL     1      34.814 -20.928 -19.543  0.00  0.00    -0.000 C 
ATOM     19  C   UNL     1      32.487 -21.468 -19.198  0.00  0.00    -0.000 C 
ATOM     20  C   UNL     1      33.502 -20.967 -20.010  0.00  0.00    +0.000 C 
ENDROOT
BRANCH   2  21
ATOM     21  O   UNL     1      36.496 -22.023 -11.149  0.00  0.00    -0.379 OA
ATOM     22  H   UNL     1      36.921 -21.901 -10.286  0.00  0.00    +0.211 HD
ENDBRANCH   2  21
BRANCH   3  23
ATOM     23  O   UNL     1      35.093 -25.241 -12.142  0.00  0.00    -0.377 OA
ATOM     24  H   UNL     1      34.213 -25.518 -11.842  0.00  0.00    +0.211 HD
ENDBRANCH   3  23
BRANCH   4  25
ATOM     25  O   UNL     1      38.904 -23.311 -11.946  0.00  0.00    -0.382 OA
ATOM     26  H   UNL     1      38.819 -23.249 -10.982  0.00  0.00    +0.210 HD
ENDBRANCH   4  25
TORSDOF 3
ENDMDL
MODEL 3
REMARK VINA RESULT:     -11.0      1.520      3.750
REMARK  Name = 5287739
REMARK  3 active torsions:
REMARK  status: ('A' for Active; 'I' for Inactive)
REMARK    1  A    between atoms: C_2  and  O_21
REMARK    2  A    between atoms: C_3  and  O_23
REMARK    3  A    between atoms: C_4  and  O_25
REMARK                            x       y       z     vdW  Elec       q    Type
REMARK                         _______ _______ _______ _____ _____    ______ ____
ROOT
ATOM      1  C   UNL     1      35.812 -22.902 -15.779  0.00  0.00    -0.021 C 
ATOM      2  C   UNL     1      36.374 -24.013 -13.137  0.00  0.00    +0.168 C 
ATOM      3  C   UNL     1      34.976 -24.204 -13.729  0.00  0.00    +0.162 C 
ATOM      4  C   UNL     1      37.427 -24.152 -14.233  0.00  0.00    +0.144 C 
ATOM      5  C   UNL     1      37.245 -23.088 -15.315  0.00  0.00    +0.058 C 
ATOM      6  C   UNL     1      34.751 -23.427 -15.011  0.00  0.00    +0.003 C 
ATOM      7  C   UNL     1      35.530 -22.157 -16.964  0.00  0.00    -0.004 C 
ATOM      8  C   UNL     1      34.183 -21.993 -17.378  0.00  0.00    -0.000 C 
ATOM      9  C   UNL     1      33.133 -22.550 -16.616  0.00  0.00    -0.000 C 
ATOM     10  C   UNL     1      33.429 -23.254 -15.446  0.00  0.00    -0.002 C 
ATOM     11  C   UNL     1      33.867 -21.265 -18.559  0.00  0.00    -0.000 C 
ATOM     12  C   UNL     1      36.528 -21.558 -17.762  0.00  0.00    -0.000 C 
ATOM     13  C   UNL     1      34.897 -20.687 -19.334  0.00  0.00    -0.000 C 
ATOM     14  C   UNL     1      32.520 -21.110 -18.968  0.00  0.00    -0.000 C 
ATOM     15  C   UNL     1      31.805 -22.387 -17.034  0.00  0.00    -0.000 C 
ATOM     16  C   UNL     1      36.221 -20.840 -18.921  0.00  0.00    -0.000 C 
ATOM     17  C   UNL     1      31.502 -21.679 -18.196  0.00  0.00    -0.000 C 
ATOM     18  C   UNL     1      34.576 -19.973 -20.497  0.00  0.00    -0.000 C 
ATOM     19  C   UNL     1      32.227 -20.391 -20.136  0.00  0.00    -0.000 C 
ATOM     20  C   UNL     1      33.249 -19.827 -20.895  0.00  0.00    +0.000 C 
ENDROOT
BRANCH   2  21
ATOM     21  O   UNL     1      36.472 -22.721 -12.538  0.00  0.00    -0.379 OA
ATOM     22  H   UNL     1      36.441 -22.041 -13.229  0.00  0.00    +0.211 HD
ENDBRANCH   2  21
BRANCH   3  23
ATOM     23  O   UNL     1      34.768 -25.584 -14.022  0.00  0.00    -0.377 OA
ATOM     24  H   UNL     1      33.921 -25.870 -13.646  0.00  0.00    +0.211 HD
ENDBRANCH   3  23
BRANCH   4  25
ATOM     25  O   UNL     1      38.733 -24.018 -13.679  0.00  0.00    -0.382 OA
ATOM     26  H   UNL     1      38.721 -23.345 -12.981  0.00  0.00    +0.210 HD
ENDBRANCH   4  25
TORSDOF 3
ENDMDL
MODEL 4
REMARK VINA RESULT:     -10.9      3.119      5.087
REMARK  Name = 5287739
REMARK  3 active torsions:
REMARK  status: ('A' for Active; 'I' for Inactive)
REMARK    1  A    between atoms: C_2  and  O_21
REMARK    2  A    between atoms: C_3  and  O_23
REMARK    3  A    between atoms: C_4  and  O_25
REMARK                            x       y       z     vdW  Elec       q    Type
REMARK                         _______ _______ _______ _____ _____    ______ ____
ROOT
ATOM      1  C   UNL     1      31.142 -23.368 -15.262  0.00  0.00    -0.021 C 
ATOM      2  C   UNL     1      29.170 -24.849 -13.698  0.00  0.00    +0.168 C 
ATOM      3  C   UNL     1      30.473 -24.421 -13.018  0.00  0.00    +0.162 C 
ATOM      4  C   UNL     1      28.688 -23.747 -14.637  0.00  0.00    +0.144 C 
ATOM      5  C   UNL     1      29.706 -23.476 -15.743  0.00  0.00    +0.058 C 
ATOM      6  C   UNL     1      31.488 -23.830 -13.975  0.00  0.00    +0.003 C 
ATOM      7  C   UNL     1      32.153 -22.846 -16.126  0.00  0.00    -0.004 C 
ATOM      8  C   UNL     1      33.489 -22.757 -15.657  0.00  0.00    -0.000 C 
ATOM      9  C   UNL     1      33.816 -23.194 -14.356  0.00  0.00    -0.000 C 
ATOM     10  C   UNL     1      32.817 -23.726 -13.536  0.00  0.00    -0.002 C 
ATOM     11  C   UNL     1      34.519 -22.231 -16.487  0.00  0.00    -0.000 C 
ATOM     12  C   UNL     1      31.900 -22.408 -17.444  0.00  0.00    -0.000 C 
ATOM     13  C   UNL     1      34.222 -21.797 -17.798  0.00  0.00    -0.000 C 
ATOM     14  C   UNL     1      35.849 -22.141 -16.010  0.00  0.00    -0.000 C 
ATOM     15  C   UNL     1      35.137 -23.099 -13.898  0.00  0.00    -0.000 C 
ATOM     16  C   UNL     1      32.909 -21.894 -18.262  0.00  0.00    -0.000 C 
ATOM     17  C   UNL     1      36.141 -22.578 -14.713  0.00  0.00    -0.000 C 
ATOM     18  C   UNL     1      35.243 -21.280 -18.607  0.00  0.00    -0.000 C 
ATOM     19  C   UNL     1      36.851 -21.620 -16.841  0.00  0.00    -0.000 C 
ATOM     20  C   UNL     1      36.549 -21.192 -18.131  0.00  0.00    +0.000 C 
ENDROOT
BRANCH   2  21
ATOM     21  O   UNL     1      29.384 -26.051 -14.437  0.00  0.00    -0.379 OA
ATOM     22  H   UNL     1      29.749 -26.730 -13.849  0.00  0.00    +0.211 HD
ENDBRANCH   2  21
BRANCH   3  23
ATOM     23  O   UNL     1      30.191 -23.434 -12.028  0.00  0.00    -0.377 OA
ATOM     24  H   UNL     1      29.734 -22.684 -12.441  0.00  0.00    +0.211 HD
ENDBRANCH   3  23
BRANCH   4  25
ATOM     25  O   UNL     1      27.452 -24.123 -15.239  0.00  0.00    -0.382 OA
ATOM     26  H   UNL     1      26.970 -23.327 -15.513  0.00  0.00    +0.210 HD
ENDBRANCH   4  25
TORSDOF 3
ENDMDL
MODEL 5
REMARK VINA RESULT:     -10.5      1.497      3.709
REMARK  Name = 5287739
REMARK  3 active torsions:
REMARK  status: ('A' for Active; 'I' for Inactive)
REMARK    1  A    between atoms: C_2  and  O_21
REMARK    2  A    between atoms: C_3  and  O_23
REMARK    3  A    between atoms: C_4  and  O_25
REMARK                            x       y       z     vdW  Elec       q    Type
REMARK                         _______ _______ _______ _____ _____    ______ ____
ROOT
ATOM      1  C   UNL     1      34.572 -23.130 -14.918  0.00  0.00    -0.021 C 
ATOM      2  C   UNL     1      33.759 -24.113 -12.291  0.00  0.00    +0.168 C 
ATOM      3  C   UNL     1      32.715 -24.059 -13.408  0.00  0.00    +0.162 C 
ATOM      4  C   UNL     1      35.105 -24.555 -12.858  0.00  0.00    +0.144 C 
ATOM      5  C   UNL     1      35.616 -23.569 -13.907  0.00  0.00    +0.058 C 
ATOM      6  C   UNL     1      33.204 -23.361 -14.661  0.00  0.00    +0.003 C 
ATOM      7  C   UNL     1      34.965 -22.442 -16.106  0.00  0.00    -0.004 C 
ATOM      8  C   UNL     1      33.973 -22.038 -17.037  0.00  0.00    -0.000 C 
ATOM      9  C   UNL     1      32.610 -22.302 -16.781  0.00  0.00    -0.000 C 
ATOM     10  C   UNL     1      32.244 -22.954 -15.600  0.00  0.00    -0.002 C 
ATOM     11  C   UNL     1      34.331 -21.360 -18.235  0.00  0.00    -0.000 C 
ATOM     12  C   UNL     1      36.307 -22.129 -16.417  0.00  0.00    -0.000 C 
ATOM     13  C   UNL     1      35.686 -21.073 -18.511  0.00  0.00    -0.000 C 
ATOM     14  C   UNL     1      33.335 -20.965 -19.160  0.00  0.00    -0.000 C 
ATOM     15  C   UNL     1      31.636 -21.904 -17.706  0.00  0.00    -0.000 C 
ATOM     16  C   UNL     1      36.661 -21.461 -17.591  0.00  0.00    -0.000 C 
ATOM     17  C   UNL     1      31.993 -21.246 -18.882  0.00  0.00    -0.000 C 
ATOM     18  C   UNL     1      36.028 -20.405 -19.696  0.00  0.00    -0.000 C 
ATOM     19  C   UNL     1      33.705 -20.298 -20.338  0.00  0.00    -0.000 C 
ATOM     20  C   UNL     1      35.044 -20.022 -20.603  0.00  0.00    +0.000 C 
ENDROOT
BRANCH   2  21
ATOM     21  O   UNL     1      33.890 -22.824 -11.692  0.00  0.00    -0.379 OA
ATOM     22  H   UNL     1      33.244 -22.218 -12.085  0.00  0.00    +0.211 HD
ENDBRANCH   2  21
BRANCH   3  23
ATOM     23  O   UNL     1      32.342 -25.386 -13.775  0.00  0.00    -0.377 OA
ATOM     24  H   UNL     1      31.862 -25.365 -14.618  0.00  0.00    +0.211 HD
ENDBRANCH   3  23
BRANCH   4  25
ATOM     25  O   UNL     1      36.070 -24.649 -11.814  0.00  0.00    -0.382 OA
ATOM     26  H   UNL     1      35.995 -25.513 -11.381  0.00  0.00    +0.210 HD
ENDBRANCH   4  25
TORSDOF 3
ENDMDL
MODEL 6
REMARK VINA RESULT:     -10.3      1.929      3.360
REMARK  Name = 5287739
REMARK  3 active torsions:
REMARK  status: ('A' for Active; 'I' for Inactive)
REMARK    1  A    between atoms: C_2  and  O_21
REMARK    2  A    between atoms: C_3  and  O_23
REMARK    3  A    between atoms: C_4  and  O_25
REMARK                            x       y       z     vdW  Elec       q    Type
REMARK                         _______ _______ _______ _____ _____    ______ ____
ROOT
ATOM      1  C   UNL     1      34.732 -23.991 -13.857  0.00  0.00    -0.021 C 
ATOM      2  C   UNL     1      37.595 -24.566 -13.812  0.00  0.00    +0.168 C 
ATOM      3  C   UNL     1      37.065 -23.568 -14.843  0.00  0.00    +0.162 C 
ATOM      4  C   UNL     1      36.860 -24.386 -12.487  0.00  0.00    +0.144 C 
ATOM      5  C   UNL     1      35.363 -24.649 -12.643  0.00  0.00    +0.058 C 
ATOM      6  C   UNL     1      35.552 -23.495 -14.892  0.00  0.00    +0.003 C 
ATOM      7  C   UNL     1      33.311 -23.915 -13.977  0.00  0.00    -0.004 C 
ATOM      8  C   UNL     1      32.743 -23.298 -15.121  0.00  0.00    -0.000 C 
ATOM      9  C   UNL     1      33.575 -22.778 -16.135  0.00  0.00    -0.000 C 
ATOM     10  C   UNL     1      34.963 -22.885 -16.010  0.00  0.00    -0.002 C 
ATOM     11  C   UNL     1      31.331 -23.196 -15.268  0.00  0.00    -0.000 C 
ATOM     12  C   UNL     1      32.420 -24.429 -13.011  0.00  0.00    -0.000 C 
ATOM     13  C   UNL     1      30.474 -23.717 -14.274  0.00  0.00    -0.000 C 
ATOM     14  C   UNL     1      30.772 -22.574 -16.411  0.00  0.00    -0.000 C 
ATOM     15  C   UNL     1      33.007 -22.166 -17.261  0.00  0.00    -0.000 C 
ATOM     16  C   UNL     1      31.034 -24.333 -13.153  0.00  0.00    -0.000 C 
ATOM     17  C   UNL     1      31.623 -22.063 -17.396  0.00  0.00    -0.000 C 
ATOM     18  C   UNL     1      29.084 -23.611 -14.427  0.00  0.00    -0.000 C 
ATOM     19  C   UNL     1      29.378 -22.481 -16.539  0.00  0.00    -0.000 C 
ATOM     20  C   UNL     1      28.541 -22.996 -15.552  0.00  0.00    +0.000 C 
ENDROOT
BRANCH   2  21
ATOM     21  O   UNL     1      37.405 -25.898 -14.290  0.00  0.00    -0.379 OA
ATOM     22  H   UNL     1      36.457 -26.071 -14.395  0.00  0.00    +0.211 HD
ENDBRANCH   2  21
BRANCH   3  23
ATOM     23  O   UNL     1      37.547 -22.262 -14.531  0.00  0.00    -0.377 OA
ATOM     24  H   UNL     1      38.451 -22.326 -14.184  0.00  0.00    +0.211 HD
ENDBRANCH   3  23
BRANCH   4  25
ATOM     25  O   UNL     1      37.380 -25.284 -11.511  0.00  0.00    -0.382 OA
ATOM     26  H   UNL     1      38.209 -25.671 -11.836  0.00  0.00    +0.210 HD
ENDBRANCH   4  25
TORSDOF 3
ENDMDL
MODEL 7
REMARK VINA RESULT:     -10.1      2.108      4.488
REMARK  Name = 5287739
REMARK  3 active torsions:
REMARK  status: ('A' for Active; 'I' for Inactive)
REMARK    1  A    between atoms: C_2  and  O_21
REMARK    2  A    between atoms: C_3  and  O_23
REMARK    3  A    between atoms: C_4  and  O_25
REMARK                            x       y       z     vdW  Elec       q    Type
REMARK                         _______ _______ _______ _____ _____    ______ ____
ROOT
ATOM      1  C   UNL     1      34.735 -23.442 -14.763  0.00  0.00    -0.021 C 
ATOM      2  C   UNL     1      37.317 -23.640 -13.414  0.00  0.00    +0.168 C 
ATOM      3  C   UNL     1      36.120 -24.382 -12.816  0.00  0.00    +0.162 C 
ATOM      4  C   UNL     1      37.274 -23.724 -14.937  0.00  0.00    +0.144 C 
ATOM      5  C   UNL     1      36.012 -23.068 -15.493  0.00  0.00    +0.058 C 
ATOM      6  C   UNL     1      34.805 -24.054 -13.493  0.00  0.00    +0.003 C 
ATOM      7  C   UNL     1      33.462 -23.135 -15.334  0.00  0.00    -0.004 C 
ATOM      8  C   UNL     1      32.281 -23.492 -14.633  0.00  0.00    -0.000 C 
ATOM      9  C   UNL     1      32.366 -24.131 -13.378  0.00  0.00    -0.000 C 
ATOM     10  C   UNL     1      33.621 -24.400 -12.825  0.00  0.00    -0.002 C 
ATOM     11  C   UNL     1      30.997 -23.210 -15.179  0.00  0.00    -0.000 C 
ATOM     12  C   UNL     1      33.304 -22.482 -16.576  0.00  0.00    -0.000 C 
ATOM     13  C   UNL     1      30.883 -22.561 -16.428  0.00  0.00    -0.000 C 
ATOM     14  C   UNL     1      29.824 -23.573 -14.475  0.00  0.00    -0.000 C 
ATOM     15  C   UNL     1      31.195 -24.483 -12.693  0.00  0.00    -0.000 C 
ATOM     16  C   UNL     1      32.045 -22.202 -17.112  0.00  0.00    -0.000 C 
ATOM     17  C   UNL     1      29.940 -24.211 -13.235  0.00  0.00    -0.000 C 
ATOM     18  C   UNL     1      29.614 -22.289 -16.957  0.00  0.00    -0.000 C 
ATOM     19  C   UNL     1      28.566 -23.289 -15.027  0.00  0.00    -0.000 C 
ATOM     20  C   UNL     1      28.463 -22.651 -16.261  0.00  0.00    +0.000 C 
ENDROOT
BRANCH   2  21
ATOM     21  O   UNL     1      37.287 -22.272 -13.007  0.00  0.00    -0.379 OA
ATOM     22  H   UNL     1      37.645 -21.716 -13.716  0.00  0.00    +0.211 HD
ENDBRANCH   2  21
BRANCH   3  23
ATOM     23  O   UNL     1      36.324 -25.789 -12.937  0.00  0.00    -0.377 OA
ATOM     24  H   UNL     1      35.963 -26.096 -13.784  0.00  0.00    +0.211 HD
ENDBRANCH   3  23
BRANCH   4  25
ATOM     25  O   UNL     1      38.410 -23.071 -15.496  0.00  0.00    -0.382 OA
ATOM     26  H   UNL     1      38.836 -23.658 -16.140  0.00  0.00    +0.210 HD
ENDBRANCH   4  25
TORSDOF 3
ENDMDL
MODEL 8
REMARK VINA RESULT:      -9.7     10.979     13.890
REMARK  Name = 5287739
REMARK  3 active torsions:
REMARK  status: ('A' for Active; 'I' for Inactive)
REMARK    1  A    between atoms: C_2  and  O_21
REMARK    2  A    between atoms: C_3  and  O_23
REMARK    3  A    between atoms: C_4  and  O_25
REMARK                            x       y       z     vdW  Elec       q    Type
REMARK                         _______ _______ _______ _____ _____    ______ ____
ROOT
ATOM      1  C   UNL     1      32.110 -11.349 -21.179  0.00  0.00    -0.021 C 
ATOM      2  C   UNL     1      31.277  -8.561 -20.930  0.00  0.00    +0.168 C 
ATOM      3  C   UNL     1      31.110  -9.257 -22.282  0.00  0.00    +0.162 C 
ATOM      4  C   UNL     1      30.945  -9.532 -19.800  0.00  0.00    +0.144 C 
ATOM      5  C   UNL     1      31.887 -10.735 -19.808  0.00  0.00    +0.058 C 
ATOM      6  C   UNL     1      31.746 -10.631 -22.338  0.00  0.00    +0.003 C 
ATOM      7  C   UNL     1      32.731 -12.629 -21.301  0.00  0.00    -0.004 C 
ATOM      8  C   UNL     1      32.932 -13.184 -22.592  0.00  0.00    -0.000 C 
ATOM      9  C   UNL     1      32.536 -12.468 -23.742  0.00  0.00    -0.000 C 
ATOM     10  C   UNL     1      31.953 -11.205 -23.601  0.00  0.00    -0.002 C 
ATOM     11  C   UNL     1      33.538 -14.461 -22.750  0.00  0.00    -0.000 C 
ATOM     12  C   UNL     1      33.168 -13.391 -20.196  0.00  0.00    -0.000 C 
ATOM     13  C   UNL     1      33.955 -15.194 -21.617  0.00  0.00    -0.000 C 
ATOM     14  C   UNL     1      33.731 -15.009 -24.041  0.00  0.00    -0.000 C 
ATOM     15  C   UNL     1      32.734 -13.023 -25.013  0.00  0.00    -0.000 C 
ATOM     16  C   UNL     1      33.766 -14.645 -20.348  0.00  0.00    -0.000 C 
ATOM     17  C   UNL     1      33.323 -14.278 -25.161  0.00  0.00    -0.000 C 
ATOM     18  C   UNL     1      34.550 -16.453 -21.782  0.00  0.00    -0.000 C 
ATOM     19  C   UNL     1      34.329 -16.270 -24.178  0.00  0.00    -0.000 C 
ATOM     20  C   UNL     1      34.735 -16.987 -23.055  0.00  0.00    +0.000 C 
ENDROOT
BRANCH   2  21
ATOM     21  O   UNL     1      32.621  -8.100 -20.788  0.00  0.00    -0.379 OA
ATOM     22  H   UNL     1      32.863  -7.570 -21.563  0.00  0.00    +0.211 HD
ENDBRANCH   2  21
BRANCH   3  23
ATOM     23  O   UNL     1      29.721  -9.416 -22.567  0.00  0.00    -0.377 OA
ATOM     24  H   UNL     1      29.198  -9.010 -21.858  0.00  0.00    +0.211 HD
ENDBRANCH   3  23
BRANCH   4  25
ATOM     25  O   UNL     1      31.057  -8.876 -18.541  0.00  0.00    -0.382 OA
ATOM     26  H   UNL     1      31.970  -8.943 -18.221  0.00  0.00    +0.210 HD
ENDBRANCH   4  25
TORSDOF 3
ENDMDL
