MODEL 1
REMARK VINA RESULT:     -13.8      0.000      0.000
REMARK  Name = 10224181
REMARK  7 active torsions:
REMARK  status: ('A' for Active; 'I' for Inactive)
REMARK    1  A    between atoms: N_3  and  C_23
REMARK    2  A    between atoms: C_12  and  C_14
REMARK    3  A    between atoms: C_15  and  C_16
REMARK    4  A    between atoms: C_16  and  C_17
REMARK    5  A    between atoms: C_23  and  C_24
REMARK    6  A    between atoms: C_29  and  C_31
REMARK    7  A    between atoms: C_31  and  O_32
REMARK                            x       y       z     vdW  Elec       q    Type
REMARK                         _______ _______ _______ _____ _____    ______ ____
ROOT
ATOM      1  O   UNL     1      31.919 -23.198 -16.880  0.00  0.00    -0.267 OA
ATOM      2  O   UNL     1      34.372 -24.053 -13.026  0.00  0.00    -0.246 OA
ATOM      3  N   UNL     1      33.127 -23.643 -14.933  0.00  0.00    -0.244 N 
ATOM      4  N   UNL     1      35.366 -22.841 -14.731  0.00  0.00    -0.279 N 
ATOM      5  C   UNL     1      35.278 -22.256 -16.029  0.00  0.00    +0.069 A 
ATOM      6  C   UNL     1      34.101 -22.376 -16.768  0.00  0.00    +0.073 A 
ATOM      7  C   UNL     1      32.947 -23.103 -16.213  0.00  0.00    +0.266 A 
ATOM      8  C   UNL     1      34.299 -23.545 -14.150  0.00  0.00    +0.334 A 
ATOM      9  C   UNL     1      33.994 -21.806 -18.048  0.00  0.00    +0.014 C 
ATOM     10  C   UNL     1      36.352 -21.551 -16.603  0.00  0.00    +0.018 C 
ATOM     11  C   UNL     1      36.613 -22.701 -13.978  0.00  0.00    +0.135 C 
ATOM     12  C   UNL     1      35.068 -21.113 -18.598  0.00  0.00    +0.042 C 
ATOM     13  C   UNL     1      36.246 -20.985 -17.875  0.00  0.00    +0.010 C 
ENDROOT
BRANCH  12  14
ATOM     14  C   UNL     1      34.957 -20.534 -19.900  0.00  0.00    -0.064 C 
ATOM     15  C   UNL     1      34.868 -20.046 -20.998  0.00  0.00    -0.082 C 
BRANCH  15  16
ATOM     16  C   UNL     1      34.762 -19.450 -22.335  0.00  0.00    +0.103 C 
BRANCH  16  17
ATOM     17  C   UNL     1      34.581 -17.955 -22.272  0.00  0.00    -0.009 C 
ATOM     18  C   UNL     1      34.607 -17.315 -21.042  0.00  0.00    -0.003 C 
ATOM     19  C   UNL     1      34.391 -17.242 -23.447  0.00  0.00    -0.003 C 
ATOM     20  C   UNL     1      34.441 -15.932 -20.985  0.00  0.00    -0.000 C 
ATOM     21  C   UNL     1      34.223 -15.859 -23.390  0.00  0.00    -0.000 C 
ATOM     22  C   UNL     1      34.248 -15.204 -22.159  0.00  0.00    -0.000 C 
ENDBRANCH  16  17
ENDBRANCH  15  16
ENDBRANCH  12  14
BRANCH   3  23
ATOM     23  C   UNL     1      32.000 -24.370 -14.355  0.00  0.00    +0.140 C 
BRANCH  23  24
ATOM     24  C   UNL     1      30.682 -23.738 -14.711  0.00  0.00    +0.001 C 
ATOM     25  C   UNL     1      29.728 -24.484 -15.391  0.00  0.00    -0.002 C 
ATOM     26  C   UNL     1      30.436 -22.419 -14.355  0.00  0.00    -0.002 C 
ATOM     27  C   UNL     1      28.506 -23.898 -15.721  0.00  0.00    +0.006 C 
ATOM     28  C   UNL     1      29.214 -21.834 -14.685  0.00  0.00    +0.006 C 
ATOM     29  C   UNL     1      28.249 -22.574 -15.368  0.00  0.00    +0.075 C 
BRANCH  29  31
ATOM     30  O   UNL     1      25.941 -22.035 -15.038  0.00  0.00    -0.245 OA
ATOM     31  C   UNL     1      26.974 -21.963 -15.712  0.00  0.00    +0.338 C 
BRANCH  31  32
ATOM     32  O   UNL     1      27.024 -21.280 -16.889  0.00  0.00    -0.477 OA
ATOM     33  H   UNL     1      26.538 -21.587 -17.629  0.00  0.00    +0.295 HD
ENDBRANCH  31  32
ENDBRANCH  29  31
ENDBRANCH  23  24
ENDBRANCH   3  23
TORSDOF 7
ENDMDL
MODEL 2
REMARK VINA RESULT:     -13.6      2.533      6.313
REMARK  Name = 10224181
REMARK  7 active torsions:
REMARK  status: ('A' for Active; 'I' for Inactive)
REMARK    1  A    between atoms: N_3  and  C_23
REMARK    2  A    between atoms: C_12  and  C_14
REMARK    3  A    between atoms: C_15  and  C_16
REMARK    4  A    between atoms: C_16  and  C_17
REMARK    5  A    between atoms: C_23  and  C_24
REMARK    6  A    between atoms: C_29  and  C_31
REMARK    7  A    between atoms: C_31  and  O_32
REMARK                            x       y       z     vdW  Elec       q    Type
REMARK                         _______ _______ _______ _____ _____    ______ ____
ROOT
ATOM      1  O   UNL     1      36.124 -22.480 -15.111  0.00  0.00    -0.267 OA
ATOM      2  O   UNL     1      32.236 -24.413 -13.453  0.00  0.00    -0.246 OA
ATOM      3  N   UNL     1      34.188 -23.459 -14.253  0.00  0.00    -0.244 N 
ATOM      4  N   UNL     1      32.166 -23.370 -15.520  0.00  0.00    -0.279 N 
ATOM      5  C   UNL     1      32.840 -22.653 -16.553  0.00  0.00    +0.069 A 
ATOM      6  C   UNL     1      34.195 -22.346 -16.418  0.00  0.00    +0.073 A 
ATOM      7  C   UNL     1      34.932 -22.761 -15.212  0.00  0.00    +0.266 A 
ATOM      8  C   UNL     1      32.817 -23.791 -14.350  0.00  0.00    +0.334 A 
ATOM      9  C   UNL     1      34.876 -21.642 -17.423  0.00  0.00    +0.014 C 
ATOM     10  C   UNL     1      32.180 -22.236 -17.723  0.00  0.00    +0.018 C 
ATOM     11  C   UNL     1      30.746 -23.678 -15.687  0.00  0.00    +0.135 C 
ATOM     12  C   UNL     1      34.206 -21.237 -18.574  0.00  0.00    +0.042 C 
ATOM     13  C   UNL     1      32.857 -21.535 -18.724  0.00  0.00    +0.010 C 
ENDROOT
BRANCH  12  14
ATOM     14  C   UNL     1      34.901 -20.521 -19.595  0.00  0.00    -0.064 C 
ATOM     15  C   UNL     1      35.489 -19.914 -20.454  0.00  0.00    -0.082 C 
BRANCH  15  16
ATOM     16  C   UNL     1      36.205 -19.172 -21.498  0.00  0.00    +0.103 C 
BRANCH  16  17
ATOM     17  C   UNL     1      35.264 -18.402 -22.389  0.00  0.00    -0.009 C 
ATOM     18  C   UNL     1      34.435 -19.090 -23.263  0.00  0.00    -0.003 C 
ATOM     19  C   UNL     1      35.240 -17.017 -22.319  0.00  0.00    -0.003 C 
ATOM     20  C   UNL     1      33.563 -18.377 -24.086  0.00  0.00    -0.000 C 
ATOM     21  C   UNL     1      34.369 -16.304 -23.143  0.00  0.00    -0.000 C 
ATOM     22  C   UNL     1      33.531 -16.983 -24.026  0.00  0.00    -0.000 C 
ENDBRANCH  16  17
ENDBRANCH  15  16
ENDBRANCH  12  14
BRANCH   3  23
ATOM     23  C   UNL     1      34.891 -23.885 -13.046  0.00  0.00    +0.140 C 
BRANCH  23  24
ATOM     24  C   UNL     1      36.256 -24.436 -13.357  0.00  0.00    +0.001 C 
ATOM     25  C   UNL     1      37.376 -23.856 -12.776  0.00  0.00    -0.002 C 
ATOM     26  C   UNL     1      36.377 -25.517 -14.220  0.00  0.00    -0.002 C 
ATOM     27  C   UNL     1      38.642 -24.367 -13.064  0.00  0.00    +0.006 C 
ATOM     28  C   UNL     1      37.643 -26.028 -14.507  0.00  0.00    +0.006 C 
ATOM     29  C   UNL     1      38.775 -25.453 -13.930  0.00  0.00    +0.075 C 
BRANCH  29  31
ATOM     30  O   UNL     1      40.861 -26.502 -13.410  0.00  0.00    -0.245 OA
ATOM     31  C   UNL     1      40.095 -25.987 -14.230  0.00  0.00    +0.338 C 
BRANCH  31  32
ATOM     32  O   UNL     1      40.421 -25.860 -15.545  0.00  0.00    -0.477 OA
ATOM     33  H   UNL     1      40.622 -25.016 -15.898  0.00  0.00    +0.295 HD
ENDBRANCH  31  32
ENDBRANCH  29  31
ENDBRANCH  23  24
ENDBRANCH   3  23
TORSDOF 7
ENDMDL
MODEL 3
REMARK VINA RESULT:     -13.1      5.382      9.277
REMARK  Name = 10224181
REMARK  7 active torsions:
REMARK  status: ('A' for Active; 'I' for Inactive)
REMARK    1  A    between atoms: N_3  and  C_23
REMARK    2  A    between atoms: C_12  and  C_14
REMARK    3  A    between atoms: C_15  and  C_16
REMARK    4  A    between atoms: C_16  and  C_17
REMARK    5  A    between atoms: C_23  and  C_24
REMARK    6  A    between atoms: C_29  and  C_31
REMARK    7  A    between atoms: C_31  and  O_32
REMARK                            x       y       z     vdW  Elec       q    Type
REMARK                         _______ _______ _______ _____ _____    ______ ____
ROOT
ATOM      1  O   UNL     1      34.875 -16.227 -19.876  0.00  0.00    -0.267 OA
ATOM      2  O   UNL     1      35.137 -18.418 -23.967  0.00  0.00    -0.246 OA
ATOM      3  N   UNL     1      35.023 -17.349 -21.917  0.00  0.00    -0.244 N 
ATOM      4  N   UNL     1      33.981 -16.414 -23.851  0.00  0.00    -0.279 N 
ATOM      5  C   UNL     1      33.524 -15.308 -23.074  0.00  0.00    +0.069 A 
ATOM      6  C   UNL     1      33.827 -15.239 -21.713  0.00  0.00    +0.073 A 
ATOM      7  C   UNL     1      34.619 -16.304 -21.076  0.00  0.00    +0.266 A 
ATOM      8  C   UNL     1      34.739 -17.458 -23.297  0.00  0.00    +0.334 A 
ATOM      9  C   UNL     1      33.387 -14.158 -20.932  0.00  0.00    +0.014 C 
ATOM     10  C   UNL     1      32.766 -14.265 -23.637  0.00  0.00    +0.018 C 
ATOM     11  C   UNL     1      33.648 -16.461 -25.274  0.00  0.00    +0.135 C 
ATOM     12  C   UNL     1      32.638 -13.136 -21.508  0.00  0.00    +0.042 C 
ATOM     13  C   UNL     1      32.328 -13.190 -22.860  0.00  0.00    +0.010 C 
ENDROOT
BRANCH  12  14
ATOM     14  C   UNL     1      32.191 -12.038 -20.711  0.00  0.00    -0.064 C 
ATOM     15  C   UNL     1      31.812 -11.110 -20.042  0.00  0.00    -0.082 C 
BRANCH  15  16
ATOM     16  C   UNL     1      31.349  -9.979 -19.231  0.00  0.00    +0.103 C 
BRANCH  16  17
ATOM     17  C   UNL     1      31.362  -8.686 -20.007  0.00  0.00    -0.009 C 
ATOM     18  C   UNL     1      31.614  -7.494 -19.343  0.00  0.00    -0.003 C 
ATOM     19  C   UNL     1      31.122  -8.709 -21.373  0.00  0.00    -0.003 C 
ATOM     20  C   UNL     1      31.626  -6.299 -20.061  0.00  0.00    -0.000 C 
ATOM     21  C   UNL     1      31.134  -7.514 -22.091  0.00  0.00    -0.000 C 
ATOM     22  C   UNL     1      31.386  -6.309 -21.436  0.00  0.00    -0.000 C 
ENDBRANCH  16  17
ENDBRANCH  15  16
ENDBRANCH  12  14
BRANCH   3  23
ATOM     23  C   UNL     1      35.810 -18.421 -21.313  0.00  0.00    +0.140 C 
BRANCH  23  24
ATOM     24  C   UNL     1      34.947 -19.390 -20.550  0.00  0.00    +0.001 C 
ATOM     25  C   UNL     1      35.540 -20.292 -19.678  0.00  0.00    -0.002 C 
ATOM     26  C   UNL     1      33.571 -19.367 -20.729  0.00  0.00    -0.002 C 
ATOM     27  C   UNL     1      34.741 -21.190 -18.970  0.00  0.00    +0.006 C 
ATOM     28  C   UNL     1      32.771 -20.264 -20.021  0.00  0.00    +0.006 C 
ATOM     29  C   UNL     1      33.356 -21.176 -19.142  0.00  0.00    +0.075 C 
BRANCH  29  31
ATOM     30  O   UNL     1      31.431 -21.845 -17.889  0.00  0.00    -0.245 OA
ATOM     31  C   UNL     1      32.522 -22.112 -18.404  0.00  0.00    +0.338 C 
BRANCH  31  32
ATOM     32  O   UNL     1      33.074 -23.354 -18.328  0.00  0.00    -0.477 OA
ATOM     33  H   UNL     1      32.854 -23.921 -17.616  0.00  0.00    +0.295 HD
ENDBRANCH  31  32
ENDBRANCH  29  31
ENDBRANCH  23  24
ENDBRANCH   3  23
TORSDOF 7
ENDMDL
MODEL 4
REMARK VINA RESULT:     -12.6      4.726      9.874
REMARK  Name = 10224181
REMARK  7 active torsions:
REMARK  status: ('A' for Active; 'I' for Inactive)
REMARK    1  A    between atoms: N_3  and  C_23
REMARK    2  A    between atoms: C_12  and  C_14
REMARK    3  A    between atoms: C_15  and  C_16
REMARK    4  A    between atoms: C_16  and  C_17
REMARK    5  A    between atoms: C_23  and  C_24
REMARK    6  A    between atoms: C_29  and  C_31
REMARK    7  A    between atoms: C_31  and  O_32
REMARK                            x       y       z     vdW  Elec       q    Type
REMARK                         _______ _______ _______ _____ _____    ______ ____
ROOT
ATOM      1  O   UNL     1      37.021 -18.978 -20.471  0.00  0.00    -0.267 OA
ATOM      2  O   UNL     1      32.880 -18.753 -22.568  0.00  0.00    -0.246 OA
ATOM      3  N   UNL     1      34.954 -18.846 -21.544  0.00  0.00    -0.244 N 
ATOM      4  N   UNL     1      33.107 -20.098 -20.696  0.00  0.00    -0.279 N 
ATOM      5  C   UNL     1      33.931 -20.615 -19.653  0.00  0.00    +0.069 A 
ATOM      6  C   UNL     1      35.272 -20.235 -19.572  0.00  0.00    +0.073 A 
ATOM      7  C   UNL     1      35.839 -19.300 -20.558  0.00  0.00    +0.266 A 
ATOM      8  C   UNL     1      33.592 -19.204 -21.663  0.00  0.00    +0.334 A 
ATOM      9  C   UNL     1      36.100 -20.733 -18.553  0.00  0.00    +0.014 C 
ATOM     10  C   UNL     1      33.437 -21.510 -18.687  0.00  0.00    +0.018 C 
ATOM     11  C   UNL     1      31.706 -20.513 -20.758  0.00  0.00    +0.135 C 
ATOM     12  C   UNL     1      35.592 -21.617 -17.606  0.00  0.00    +0.042 C 
ATOM     13  C   UNL     1      34.260 -22.005 -17.673  0.00  0.00    +0.010 C 
ENDROOT
BRANCH  12  14
ATOM     14  C   UNL     1      36.437 -22.122 -16.570  0.00  0.00    -0.064 C 
ATOM     15  C   UNL     1      37.145 -22.549 -15.694  0.00  0.00    -0.082 C 
BRANCH  15  16
ATOM     16  C   UNL     1      38.006 -23.069 -14.626  0.00  0.00    +0.103 C 
BRANCH  16  17
ATOM     17  C   UNL     1      37.205 -23.567 -13.449  0.00  0.00    -0.009 C 
ATOM     18  C   UNL     1      36.219 -22.757 -12.904  0.00  0.00    -0.003 C 
ATOM     19  C   UNL     1      37.466 -24.826 -12.930  0.00  0.00    -0.003 C 
ATOM     20  C   UNL     1      35.477 -23.218 -11.816  0.00  0.00    -0.000 C 
ATOM     21  C   UNL     1      36.725 -25.287 -11.842  0.00  0.00    -0.000 C 
ATOM     22  C   UNL     1      35.731 -24.483 -11.285  0.00  0.00    -0.000 C 
ENDBRANCH  16  17
ENDBRANCH  15  16
ENDBRANCH  12  14
BRANCH   3  23
ATOM     23  C   UNL     1      35.486 -17.916 -22.538  0.00  0.00    +0.140 C 
BRANCH  23  24
ATOM     24  C   UNL     1      34.844 -16.559 -22.437  0.00  0.00    +0.001 C 
ATOM     25  C   UNL     1      34.557 -16.030 -21.186  0.00  0.00    -0.002 C 
ATOM     26  C   UNL     1      34.548 -15.855 -23.596  0.00  0.00    -0.002 C 
ATOM     27  C   UNL     1      33.962 -14.771 -21.093  0.00  0.00    +0.006 C 
ATOM     28  C   UNL     1      33.953 -14.597 -23.503  0.00  0.00    +0.006 C 
ATOM     29  C   UNL     1      33.660 -14.055 -22.251  0.00  0.00    +0.075 C 
BRANCH  29  31
ATOM     30  O   UNL     1      32.093 -12.452 -21.416  0.00  0.00    -0.245 OA
ATOM     31  C   UNL     1      33.040 -12.743 -22.155  0.00  0.00    +0.338 C 
BRANCH  31  32
ATOM     32  O   UNL     1      33.618 -11.831 -22.983  0.00  0.00    -0.477 OA
ATOM     33  H   UNL     1      33.296 -11.721 -23.855  0.00  0.00    +0.295 HD
ENDBRANCH  31  32
ENDBRANCH  29  31
ENDBRANCH  23  24
ENDBRANCH   3  23
TORSDOF 7
ENDMDL
MODEL 5
REMARK VINA RESULT:     -12.6      3.042      6.599
REMARK  Name = 10224181
REMARK  7 active torsions:
REMARK  status: ('A' for Active; 'I' for Inactive)
REMARK    1  A    between atoms: N_3  and  C_23
REMARK    2  A    between atoms: C_12  and  C_14
REMARK    3  A    between atoms: C_15  and  C_16
REMARK    4  A    between atoms: C_16  and  C_17
REMARK    5  A    between atoms: C_23  and  C_24
REMARK    6  A    between atoms: C_29  and  C_31
REMARK    7  A    between atoms: C_31  and  O_32
REMARK                            x       y       z     vdW  Elec       q    Type
REMARK                         _______ _______ _______ _____ _____    ______ ____
ROOT
ATOM      1  O   UNL     1      35.582 -22.109 -14.646  0.00  0.00    -0.267 OA
ATOM      2  O   UNL     1      33.147 -24.708 -11.660  0.00  0.00    -0.246 OA
ATOM      3  N   UNL     1      34.383 -23.414 -13.128  0.00  0.00    -0.244 N 
ATOM      4  N   UNL     1      32.158 -24.095 -13.663  0.00  0.00    -0.279 N 
ATOM      5  C   UNL     1      32.246 -23.411 -14.912  0.00  0.00    +0.069 A 
ATOM      6  C   UNL     1      33.415 -22.730 -15.253  0.00  0.00    +0.073 A 
ATOM      7  C   UNL     1      34.561 -22.715 -14.328  0.00  0.00    +0.266 A 
ATOM      8  C   UNL     1      33.218 -24.116 -12.743  0.00  0.00    +0.334 A 
ATOM      9  C   UNL     1      33.521 -22.051 -16.478  0.00  0.00    +0.014 C 
ATOM     10  C   UNL     1      31.179 -23.396 -15.829  0.00  0.00    +0.018 C 
ATOM     11  C   UNL     1      30.921 -24.801 -13.331  0.00  0.00    +0.135 C 
ATOM     12  C   UNL     1      32.454 -22.048 -17.372  0.00  0.00    +0.042 C 
ATOM     13  C   UNL     1      31.284 -22.721 -17.048  0.00  0.00    +0.010 C 
ENDROOT
BRANCH  12  14
ATOM     14  C   UNL     1      32.564 -21.356 -18.617  0.00  0.00    -0.064 C 
ATOM     15  C   UNL     1      32.656 -20.770 -19.666  0.00  0.00    -0.082 C 
BRANCH  15  16
ATOM     16  C   UNL     1      32.767 -20.052 -20.941  0.00  0.00    +0.103 C 
BRANCH  16  17
ATOM     17  C   UNL     1      34.123 -19.415 -21.112  0.00  0.00    -0.009 C 
ATOM     18  C   UNL     1      34.315 -18.480 -22.119  0.00  0.00    -0.003 C 
ATOM     19  C   UNL     1      35.157 -19.772 -20.260  0.00  0.00    -0.003 C 
ATOM     20  C   UNL     1      35.568 -17.889 -22.276  0.00  0.00    -0.000 C 
ATOM     21  C   UNL     1      36.411 -19.182 -20.418  0.00  0.00    -0.000 C 
ATOM     22  C   UNL     1      36.616 -18.241 -21.425  0.00  0.00    -0.000 C 
ENDBRANCH  16  17
ENDBRANCH  15  16
ENDBRANCH  12  14
BRANCH   3  23
ATOM     23  C   UNL     1      35.502 -23.419 -12.189  0.00  0.00    +0.140 C 
BRANCH  23  24
ATOM     24  C   UNL     1      36.720 -24.085 -12.771  0.00  0.00    +0.001 C 
ATOM     25  C   UNL     1      36.569 -25.227 -13.546  0.00  0.00    -0.002 C 
ATOM     26  C   UNL     1      37.976 -23.548 -12.526  0.00  0.00    -0.002 C 
ATOM     27  C   UNL     1      37.697 -25.844 -14.086  0.00  0.00    +0.006 C 
ATOM     28  C   UNL     1      39.104 -24.165 -13.066  0.00  0.00    +0.006 C 
ATOM     29  C   UNL     1      38.965 -25.314 -13.846  0.00  0.00    +0.075 C 
BRANCH  29  31
ATOM     30  O   UNL     1      40.973 -26.612 -13.772  0.00  0.00    -0.245 OA
ATOM     31  C   UNL     1      40.142 -25.957 -14.410  0.00  0.00    +0.338 C 
BRANCH  31  32
ATOM     32  O   UNL     1      40.248 -25.764 -15.753  0.00  0.00    -0.477 OA
ATOM     33  H   UNL     1      39.796 -26.333 -16.344  0.00  0.00    +0.295 HD
ENDBRANCH  31  32
ENDBRANCH  29  31
ENDBRANCH  23  24
ENDBRANCH   3  23
TORSDOF 7
ENDMDL
MODEL 6
REMARK VINA RESULT:     -12.4      2.959      5.413
REMARK  Name = 10224181
REMARK  7 active torsions:
REMARK  status: ('A' for Active; 'I' for Inactive)
REMARK    1  A    between atoms: N_3  and  C_23
REMARK    2  A    between atoms: C_12  and  C_14
REMARK    3  A    between atoms: C_15  and  C_16
REMARK    4  A    between atoms: C_16  and  C_17
REMARK    5  A    between atoms: C_23  and  C_24
REMARK    6  A    between atoms: C_29  and  C_31
REMARK    7  A    between atoms: C_31  and  O_32
REMARK                            x       y       z     vdW  Elec       q    Type
REMARK                         _______ _______ _______ _____ _____    ______ ____
ROOT
ATOM      1  O   UNL     1      37.200 -21.490 -17.540  0.00  0.00    -0.267 OA
ATOM      2  O   UNL     1      34.399 -24.141 -14.946  0.00  0.00    -0.246 OA
ATOM      3  N   UNL     1      35.817 -22.830 -16.221  0.00  0.00    -0.244 N 
ATOM      4  N   UNL     1      33.475 -22.907 -16.676  0.00  0.00    -0.279 N 
ATOM      5  C   UNL     1      33.650 -21.994 -17.757  0.00  0.00    +0.069 A 
ATOM      6  C   UNL     1      34.923 -21.505 -18.057  0.00  0.00    +0.073 A 
ATOM      7  C   UNL     1      36.087 -21.931 -17.261  0.00  0.00    +0.266 A 
ATOM      8  C   UNL     1      34.547 -23.349 -15.884  0.00  0.00    +0.334 A 
ATOM      9  C   UNL     1      35.117 -20.605 -19.117  0.00  0.00    +0.014 C 
ATOM     10  C   UNL     1      32.571 -21.557 -18.546  0.00  0.00    +0.018 C 
ATOM     11  C   UNL     1      32.130 -23.402 -16.383  0.00  0.00    +0.135 C 
ATOM     12  C   UNL     1      34.036 -20.185 -19.886  0.00  0.00    +0.042 C 
ATOM     13  C   UNL     1      32.763 -20.662 -19.601  0.00  0.00    +0.010 C 
ENDROOT
BRANCH  12  14
ATOM     14  C   UNL     1      34.235 -19.269 -20.965  0.00  0.00    -0.064 C 
ATOM     15  C   UNL     1      34.406 -18.495 -21.872  0.00  0.00    -0.082 C 
BRANCH  15  16
ATOM     16  C   UNL     1      34.615 -17.550 -22.974  0.00  0.00    +0.103 C 
BRANCH  16  17
ATOM     17  C   UNL     1      34.312 -16.131 -22.566  0.00  0.00    -0.009 C 
ATOM     18  C   UNL     1      34.122 -15.165 -23.543  0.00  0.00    -0.003 C 
ATOM     19  C   UNL     1      34.227 -15.813 -21.218  0.00  0.00    -0.003 C 
ATOM     20  C   UNL     1      33.841 -13.853 -23.164  0.00  0.00    -0.000 C 
ATOM     21  C   UNL     1      33.947 -14.501 -20.839  0.00  0.00    -0.000 C 
ATOM     22  C   UNL     1      33.753 -13.521 -21.812  0.00  0.00    -0.000 C 
ENDBRANCH  16  17
ENDBRANCH  15  16
ENDBRANCH  12  14
BRANCH   3  23
ATOM     23  C   UNL     1      36.952 -23.272 -15.414  0.00  0.00    +0.140 C 
BRANCH  23  24
ATOM     24  C   UNL     1      36.562 -23.505 -13.980  0.00  0.00    +0.001 C 
ATOM     25  C   UNL     1      36.175 -22.428 -13.193  0.00  0.00    -0.002 C 
ATOM     26  C   UNL     1      36.594 -24.793 -13.463  0.00  0.00    -0.002 C 
ATOM     27  C   UNL     1      35.814 -22.644 -11.863  0.00  0.00    +0.006 C 
ATOM     28  C   UNL     1      36.233 -25.009 -12.133  0.00  0.00    +0.006 C 
ATOM     29  C   UNL     1      35.843 -23.934 -11.333  0.00  0.00    +0.075 C 
BRANCH  29  31
ATOM     30  O   UNL     1      34.656 -25.006  -9.554  0.00  0.00    -0.245 OA
ATOM     31  C   UNL     1      35.466 -24.160  -9.946  0.00  0.00    +0.338 C 
BRANCH  31  32
ATOM     32  O   UNL     1      36.109 -23.321  -9.088  0.00  0.00    -0.477 OA
ATOM     33  H   UNL     1      35.633 -22.900  -8.401  0.00  0.00    +0.295 HD
ENDBRANCH  31  32
ENDBRANCH  29  31
ENDBRANCH  23  24
ENDBRANCH   3  23
TORSDOF 7
ENDMDL
MODEL 7
REMARK VINA RESULT:     -12.1      7.385     12.105
REMARK  Name = 10224181
REMARK  7 active torsions:
REMARK  status: ('A' for Active; 'I' for Inactive)
REMARK    1  A    between atoms: N_3  and  C_23
REMARK    2  A    between atoms: C_12  and  C_14
REMARK    3  A    between atoms: C_15  and  C_16
REMARK    4  A    between atoms: C_16  and  C_17
REMARK    5  A    between atoms: C_23  and  C_24
REMARK    6  A    between atoms: C_29  and  C_31
REMARK    7  A    between atoms: C_31  and  O_32
REMARK                            x       y       z     vdW  Elec       q    Type
REMARK                         _______ _______ _______ _____ _____    ______ ____
ROOT
ATOM      1  O   UNL     1      31.786 -13.740 -19.833  0.00  0.00    -0.267 OA
ATOM      2  O   UNL     1      31.398 -10.612 -23.249  0.00  0.00    -0.246 OA
ATOM      3  N   UNL     1      31.571 -12.154 -21.531  0.00  0.00    -0.244 N 
ATOM      4  N   UNL     1      32.841 -12.402 -23.538  0.00  0.00    -0.279 N 
ATOM      5  C   UNL     1      33.422 -13.600 -23.027  0.00  0.00    +0.069 A 
ATOM      6  C   UNL     1      33.064 -14.062 -21.759  0.00  0.00    +0.073 A 
ATOM      7  C   UNL     1      32.088 -13.318 -20.947  0.00  0.00    +0.266 A 
ATOM      8  C   UNL     1      31.904 -11.651 -22.809  0.00  0.00    +0.334 A 
ATOM      9  C   UNL     1      33.625 -15.240 -21.239  0.00  0.00    +0.014 C 
ATOM     10  C   UNL     1      34.359 -14.347 -23.764  0.00  0.00    +0.018 C 
ATOM     11  C   UNL     1      33.234 -11.940 -24.869  0.00  0.00    +0.135 C 
ATOM     12  C   UNL     1      34.550 -15.965 -21.984  0.00  0.00    +0.042 C 
ATOM     13  C   UNL     1      34.916 -15.518 -23.247  0.00  0.00    +0.010 C 
ENDROOT
BRANCH  12  14
ATOM     14  C   UNL     1      35.119 -17.162 -21.452  0.00  0.00    -0.064 C 
ATOM     15  C   UNL     1      35.596 -18.173 -21.001  0.00  0.00    -0.082 C 
BRANCH  15  16
ATOM     16  C   UNL     1      36.176 -19.402 -20.448  0.00  0.00    +0.103 C 
BRANCH  16  17
ATOM     17  C   UNL     1      35.135 -20.266 -19.782  0.00  0.00    -0.009 C 
ATOM     18  C   UNL     1      35.521 -21.160 -18.794  0.00  0.00    -0.003 C 
ATOM     19  C   UNL     1      33.808 -20.152 -20.167  0.00  0.00    -0.003 C 
ATOM     20  C   UNL     1      34.558 -21.958 -18.178  0.00  0.00    -0.000 C 
ATOM     21  C   UNL     1      32.844 -20.951 -19.552  0.00  0.00    -0.000 C 
ATOM     22  C   UNL     1      33.219 -21.854 -18.557  0.00  0.00    -0.000 C 
ENDBRANCH  16  17
ENDBRANCH  15  16
ENDBRANCH  12  14
BRANCH   3  23
ATOM     23  C   UNL     1      30.599 -11.394 -20.750  0.00  0.00    +0.140 C 
BRANCH  23  24
ATOM     24  C   UNL     1      31.027  -9.963 -20.561  0.00  0.00    +0.001 C 
ATOM     25  C   UNL     1      31.579  -9.570 -19.349  0.00  0.00    -0.002 C 
ATOM     26  C   UNL     1      30.866  -9.058 -21.601  0.00  0.00    -0.002 C 
ATOM     27  C   UNL     1      31.976  -8.244 -19.174  0.00  0.00    +0.006 C 
ATOM     28  C   UNL     1      31.264  -7.733 -21.426  0.00  0.00    +0.006 C 
ATOM     29  C   UNL     1      31.818  -7.326 -20.212  0.00  0.00    +0.075 C 
BRANCH  29  31
ATOM     30  O   UNL     1      31.908  -4.997 -20.754  0.00  0.00    -0.245 OA
ATOM     31  C   UNL     1      32.233  -5.943 -20.030  0.00  0.00    +0.338 C 
BRANCH  31  32
ATOM     32  O   UNL     1      33.043  -5.781 -18.948  0.00  0.00    -0.477 OA
ATOM     33  H   UNL     1      33.952  -6.003 -19.006  0.00  0.00    +0.295 HD
ENDBRANCH  31  32
ENDBRANCH  29  31
ENDBRANCH  23  24
ENDBRANCH   3  23
TORSDOF 7
ENDMDL
MODEL 8
REMARK VINA RESULT:     -11.9      4.604      8.581
REMARK  Name = 10224181
REMARK  7 active torsions:
REMARK  status: ('A' for Active; 'I' for Inactive)
REMARK    1  A    between atoms: N_3  and  C_23
REMARK    2  A    between atoms: C_12  and  C_14
REMARK    3  A    between atoms: C_15  and  C_16
REMARK    4  A    between atoms: C_16  and  C_17
REMARK    5  A    between atoms: C_23  and  C_24
REMARK    6  A    between atoms: C_29  and  C_31
REMARK    7  A    between atoms: C_31  and  O_32
REMARK                            x       y       z     vdW  Elec       q    Type
REMARK                         _______ _______ _______ _____ _____    ______ ____
ROOT
ATOM      1  O   UNL     1      35.266 -16.299 -20.746  0.00  0.00    -0.267 OA
ATOM      2  O   UNL     1      34.899 -20.256 -23.155  0.00  0.00    -0.246 OA
ATOM      3  N   UNL     1      35.097 -18.300 -21.933  0.00  0.00    -0.244 N 
ATOM      4  N   UNL     1      33.980 -18.324 -24.044  0.00  0.00    -0.279 N 
ATOM      5  C   UNL     1      33.721 -16.926 -23.927  0.00  0.00    +0.069 A 
ATOM      6  C   UNL     1      34.159 -16.229 -22.800  0.00  0.00    +0.073 A 
ATOM      7  C   UNL     1      34.889 -16.930 -21.731  0.00  0.00    +0.266 A 
ATOM      8  C   UNL     1      34.672 -19.045 -23.057  0.00  0.00    +0.334 A 
ATOM      9  C   UNL     1      33.914 -14.852 -22.666  0.00  0.00    +0.014 C 
ATOM     10  C   UNL     1      33.028 -16.211 -24.920  0.00  0.00    +0.018 C 
ATOM     11  C   UNL     1      33.509 -19.031 -25.235  0.00  0.00    +0.135 C 
ATOM     12  C   UNL     1      33.226 -14.163 -23.660  0.00  0.00    +0.042 C 
ATOM     13  C   UNL     1      32.784 -14.842 -24.788  0.00  0.00    +0.010 C 
ENDROOT
BRANCH  12  14
ATOM     14  C   UNL     1      32.978 -12.763 -23.522  0.00  0.00    -0.064 C 
ATOM     15  C   UNL     1      32.770 -11.581 -23.409  0.00  0.00    -0.082 C 
BRANCH  15  16
ATOM     16  C   UNL     1      32.517 -10.142 -23.275  0.00  0.00    +0.103 C 
BRANCH  16  17
ATOM     17  C   UNL     1      31.997  -9.787 -21.906  0.00  0.00    -0.009 C 
ATOM     18  C   UNL     1      31.868  -8.452 -21.550  0.00  0.00    -0.003 C 
ATOM     19  C   UNL     1      31.655 -10.800 -21.022  0.00  0.00    -0.003 C 
ATOM     20  C   UNL     1      31.387  -8.123 -20.283  0.00  0.00    -0.000 C 
ATOM     21  C   UNL     1      31.174 -10.471 -19.755  0.00  0.00    -0.000 C 
ATOM     22  C   UNL     1      31.040  -9.133 -19.386  0.00  0.00    -0.000 C 
ENDBRANCH  16  17
ENDBRANCH  15  16
ENDBRANCH  12  14
BRANCH   3  23
ATOM     23  C   UNL     1      35.819 -19.025 -20.891  0.00  0.00    +0.140 C 
BRANCH  23  24
ATOM     24  C   UNL     1      34.905 -19.909 -20.086  0.00  0.00    +0.001 C 
ATOM     25  C   UNL     1      35.450 -20.854 -19.227  0.00  0.00    -0.002 C 
ATOM     26  C   UNL     1      33.530 -19.767 -20.212  0.00  0.00    -0.002 C 
ATOM     27  C   UNL     1      34.604 -21.673 -18.481  0.00  0.00    +0.006 C 
ATOM     28  C   UNL     1      32.683 -20.586 -19.466  0.00  0.00    +0.006 C 
ATOM     29  C   UNL     1      33.220 -21.540 -18.600  0.00  0.00    +0.075 C 
BRANCH  29  31
ATOM     30  O   UNL     1      31.161 -22.139 -17.539  0.00  0.00    -0.245 OA
ATOM     31  C   UNL     1      32.337 -22.394 -17.821  0.00  0.00    +0.338 C 
BRANCH  31  32
ATOM     32  O   UNL     1      32.946 -23.542 -17.416  0.00  0.00    -0.477 OA
ATOM     33  H   UNL     1      33.313 -23.598 -16.557  0.00  0.00    +0.295 HD
ENDBRANCH  31  32
ENDBRANCH  29  31
ENDBRANCH  23  24
ENDBRANCH   3  23
TORSDOF 7
ENDMDL
MODEL 9
REMARK VINA RESULT:     -11.9     10.037     15.594
REMARK  Name = 10224181
REMARK  7 active torsions:
REMARK  status: ('A' for Active; 'I' for Inactive)
REMARK    1  A    between atoms: N_3  and  C_23
REMARK    2  A    between atoms: C_12  and  C_14
REMARK    3  A    between atoms: C_15  and  C_16
REMARK    4  A    between atoms: C_16  and  C_17
REMARK    5  A    between atoms: C_23  and  C_24
REMARK    6  A    between atoms: C_29  and  C_31
REMARK    7  A    between atoms: C_31  and  O_32
REMARK                            x       y       z     vdW  Elec       q    Type
REMARK                         _______ _______ _______ _____ _____    ______ ____
ROOT
ATOM      1  O   UNL     1      34.661  -8.812 -24.184  0.00  0.00    -0.267 OA
ATOM      2  O   UNL     1      31.996  -6.222 -21.392  0.00  0.00    -0.246 OA
ATOM      3  N   UNL     1      33.338  -7.487 -22.792  0.00  0.00    -0.244 N 
ATOM      4  N   UNL     1      31.651  -8.513 -21.449  0.00  0.00    -0.279 N 
ATOM      5  C   UNL     1      32.009  -9.791 -21.970  0.00  0.00    +0.069 A 
ATOM      6  C   UNL     1      33.038  -9.899 -22.906  0.00  0.00    +0.073 A 
ATOM      7  C   UNL     1      33.758  -8.697 -23.358  0.00  0.00    +0.266 A 
ATOM      8  C   UNL     1      32.302  -7.332 -21.842  0.00  0.00    +0.334 A 
ATOM      9  C   UNL     1      33.406 -11.149 -23.431  0.00  0.00    +0.014 C 
ATOM     10  C   UNL     1      31.352 -10.969 -21.570  0.00  0.00    +0.018 C 
ATOM     11  C   UNL     1      30.568  -8.428 -20.469  0.00  0.00    +0.135 C 
ATOM     12  C   UNL     1      32.743 -12.303 -23.023  0.00  0.00    +0.042 C 
ATOM     13  C   UNL     1      31.717 -12.213 -22.091  0.00  0.00    +0.010 C 
ENDROOT
BRANCH  12  14
ATOM     14  C   UNL     1      33.118 -13.573 -23.558  0.00  0.00    -0.064 C 
ATOM     15  C   UNL     1      33.432 -14.646 -24.006  0.00  0.00    -0.082 C 
BRANCH  15  16
ATOM     16  C   UNL     1      33.813 -15.955 -24.550  0.00  0.00    +0.103 C 
BRANCH  16  17
ATOM     17  C   UNL     1      34.190 -16.929 -23.463  0.00  0.00    -0.009 C 
ATOM     18  C   UNL     1      33.891 -18.274 -23.618  0.00  0.00    -0.003 C 
ATOM     19  C   UNL     1      34.831 -16.464 -22.324  0.00  0.00    -0.003 C 
ATOM     20  C   UNL     1      34.241 -19.175 -22.613  0.00  0.00    -0.000 C 
ATOM     21  C   UNL     1      35.180 -17.365 -21.318  0.00  0.00    -0.000 C 
ATOM     22  C   UNL     1      34.885 -18.720 -21.462  0.00  0.00    -0.000 C 
ENDBRANCH  16  17
ENDBRANCH  15  16
ENDBRANCH  12  14
BRANCH   3  23
ATOM     23  C   UNL     1      34.033  -6.276 -23.219  0.00  0.00    +0.140 C 
BRANCH  23  24
ATOM     24  C   UNL     1      33.802  -5.981 -24.677  0.00  0.00    +0.001 C 
ATOM     25  C   UNL     1      32.519  -6.084 -25.200  0.00  0.00    -0.002 C 
ATOM     26  C   UNL     1      34.872  -5.608 -25.478  0.00  0.00    -0.002 C 
ATOM     27  C   UNL     1      32.304  -5.811 -26.550  0.00  0.00    +0.006 C 
ATOM     28  C   UNL     1      34.657  -5.334 -26.828  0.00  0.00    +0.006 C 
ATOM     29  C   UNL     1      33.373  -5.436 -27.365  0.00  0.00    +0.075 C 
BRANCH  29  31
ATOM     30  O   UNL     1      33.109  -5.991 -29.677  0.00  0.00    -0.245 OA
ATOM     31  C   UNL     1      33.149  -5.149 -28.773  0.00  0.00    +0.338 C 
BRANCH  31  32
ATOM     32  O   UNL     1      32.982  -3.820 -29.015  0.00  0.00    -0.477 OA
ATOM     33  H   UNL     1      32.161  -3.502 -29.333  0.00  0.00    +0.295 HD
ENDBRANCH  31  32
ENDBRANCH  29  31
ENDBRANCH  23  24
ENDBRANCH   3  23
TORSDOF 7
ENDMDL
