MODEL 1
REMARK VINA RESULT:     -12.6      0.000      0.000
REMARK  Name = 108000
REMARK  2 active torsions:
REMARK  status: ('A' for Active; 'I' for Inactive)
REMARK    1  A    between atoms: C_2  and  C_5
REMARK    2  A    between atoms: C_2  and  C_15
REMARK                            x       y       z     vdW  Elec       q    Type
REMARK                         _______ _______ _______ _____ _____    ______ ____
ROOT
ATOM      1  O   UNL     1      34.777 -16.363 -20.355  0.00  0.00    -0.291 OA
ATOM      2  C   UNL     1      34.736 -16.397 -21.586  0.00  0.00    +0.174 C 
ENDROOT
BRANCH   2   5
ATOM      3  N   UNL     1      36.237 -19.986 -19.524  0.00  0.00    -0.319 N 
ATOM      4  N   UNL     1      34.163 -20.747 -19.849  0.00  0.00    -0.319 N 
ATOM      5  C   UNL     1      35.400 -17.536 -22.306  0.00  0.00    +0.068 C 
ATOM      6  C   UNL     1      34.319 -18.483 -22.883  0.00  0.00    +0.014 C 
ATOM      7  C   UNL     1      36.418 -18.247 -21.383  0.00  0.00    +0.049 C 
ATOM      8  C   UNL     1      33.540 -19.278 -21.810  0.00  0.00    +0.042 C 
ATOM      9  C   UNL     1      35.735 -19.289 -20.582  0.00  0.00    +0.032 C 
ATOM     10  C   UNL     1      34.463 -19.777 -20.766  0.00  0.00    +0.032 C 
ATOM     11  C   UNL     1      35.253 -20.851 -19.118  0.00  0.00    +0.181 C 
ATOM     12  H   UNL     1      37.133 -19.888 -19.128  0.00  0.00    +0.148 HD
ATOM     13  H   UNL     1      33.323 -21.252 -19.758  0.00  0.00    +0.148 HD
ENDBRANCH   2   5
BRANCH   2  15
ATOM     14  N   UNL     1      33.338 -14.204 -24.081  0.00  0.00    -0.284 N 
ATOM     15  C   UNL     1      34.053 -15.347 -22.360  0.00  0.00    +0.051 C 
ATOM     16  C   UNL     1      33.312 -14.272 -21.850  0.00  0.00    +0.018 C 
ATOM     17  C   UNL     1      32.865 -13.556 -22.962  0.00  0.00    +0.052 C 
ATOM     18  C   UNL     1      34.068 -15.303 -23.715  0.00  0.00    +0.068 C 
ATOM     19  C   UNL     1      32.963 -13.817 -20.564  0.00  0.00    +0.001 C 
ATOM     20  C   UNL     1      32.082 -12.401 -22.851  0.00  0.00    +0.015 C 
ATOM     21  C   UNL     1      33.107 -13.798 -25.449  0.00  0.00    +0.117 C 
ATOM     22  C   UNL     1      32.180 -12.663 -20.437  0.00  0.00    +0.000 C 
ATOM     23  C   UNL     1      31.747 -11.968 -21.565  0.00  0.00    +0.001 C 
ENDBRANCH   2  15
TORSDOF 2
ENDMDL
MODEL 2
REMARK VINA RESULT:     -10.6      6.849      9.587
REMARK  Name = 108000
REMARK  2 active torsions:
REMARK  status: ('A' for Active; 'I' for Inactive)
REMARK    1  A    between atoms: C_2  and  C_5
REMARK    2  A    between atoms: C_2  and  C_15
REMARK                            x       y       z     vdW  Elec       q    Type
REMARK                         _______ _______ _______ _____ _____    ______ ____
ROOT
ATOM      1  O   UNL     1      35.101 -24.874 -15.394  0.00  0.00    -0.291 OA
ATOM      2  C   UNL     1      34.774 -23.697 -15.237  0.00  0.00    +0.174 C 
ENDROOT
BRANCH   2   5
ATOM      3  N   UNL     1      38.337 -25.151 -13.098  0.00  0.00    -0.319 N 
ATOM      4  N   UNL     1      39.423 -24.436 -14.913  0.00  0.00    -0.319 N 
ATOM      5  C   UNL     1      35.558 -22.844 -14.280  0.00  0.00    +0.068 C 
ATOM      6  C   UNL     1      36.557 -21.964 -15.071  0.00  0.00    +0.014 C 
ATOM      7  C   UNL     1      36.228 -23.718 -13.193  0.00  0.00    +0.049 C 
ATOM      8  C   UNL     1      37.717 -22.754 -15.718  0.00  0.00    +0.042 C 
ATOM      9  C   UNL     1      37.542 -24.205 -13.672  0.00  0.00    +0.032 C 
ATOM     10  C   UNL     1      38.232 -23.777 -14.782  0.00  0.00    +0.032 C 
ATOM     11  C   UNL     1      39.458 -25.255 -13.882  0.00  0.00    +0.181 C 
ATOM     12  H   UNL     1      38.144 -25.662 -12.279  0.00  0.00    +0.148 HD
ATOM     13  H   UNL     1      40.101 -24.323 -15.618  0.00  0.00    +0.148 HD
ENDBRANCH   2   5
BRANCH   2  15
ATOM     14  N   UNL     1      31.576 -22.566 -16.453  0.00  0.00    -0.284 N 
ATOM     15  C   UNL     1      33.636 -23.113 -15.965  0.00  0.00    +0.051 C 
ATOM     16  C   UNL     1      33.684 -22.387 -17.162  0.00  0.00    +0.018 C 
ATOM     17  C   UNL     1      32.363 -22.047 -17.457  0.00  0.00    +0.052 C 
ATOM     18  C   UNL     1      32.354 -23.221 -15.536  0.00  0.00    +0.068 C 
ATOM     19  C   UNL     1      34.704 -21.972 -18.042  0.00  0.00    +0.001 C 
ATOM     20  C   UNL     1      32.008 -21.309 -18.593  0.00  0.00    +0.015 C 
ATOM     21  C   UNL     1      30.138 -22.444 -16.364  0.00  0.00    +0.117 C 
ATOM     22  C   UNL     1      34.364 -21.234 -19.181  0.00  0.00    +0.000 C 
ATOM     23  C   UNL     1      33.036 -20.908 -19.450  0.00  0.00    +0.001 C 
ENDBRANCH   2  15
TORSDOF 2
ENDMDL
MODEL 3
REMARK VINA RESULT:     -10.5      0.828      2.330
REMARK  Name = 108000
REMARK  2 active torsions:
REMARK  status: ('A' for Active; 'I' for Inactive)
REMARK    1  A    between atoms: C_2  and  C_5
REMARK    2  A    between atoms: C_2  and  C_15
REMARK                            x       y       z     vdW  Elec       q    Type
REMARK                         _______ _______ _______ _____ _____    ______ ____
ROOT
ATOM      1  O   UNL     1      34.610 -16.356 -20.072  0.00  0.00    -0.291 OA
ATOM      2  C   UNL     1      34.546 -16.170 -21.289  0.00  0.00    +0.174 C 
ENDROOT
BRANCH   2   5
ATOM      3  N   UNL     1      36.447 -19.877 -19.862  0.00  0.00    -0.319 N 
ATOM      4  N   UNL     1      34.379 -20.709 -20.009  0.00  0.00    -0.319 N 
ATOM      5  C   UNL     1      35.154 -17.185 -22.214  0.00  0.00    +0.068 C 
ATOM      6  C   UNL     1      34.045 -18.121 -22.755  0.00  0.00    +0.014 C 
ATOM      7  C   UNL     1      36.312 -17.937 -21.515  0.00  0.00    +0.049 C 
ATOM      8  C   UNL     1      33.447 -19.070 -21.692  0.00  0.00    +0.042 C 
ATOM      9  C   UNL     1      35.782 -19.097 -20.760  0.00  0.00    +0.032 C 
ATOM     10  C   UNL     1      34.517 -19.629 -20.837  0.00  0.00    +0.032 C 
ATOM     11  C   UNL     1      35.560 -20.834 -19.438  0.00  0.00    +0.181 C 
ATOM     12  H   UNL     1      37.382 -19.774 -19.573  0.00  0.00    +0.148 HD
ATOM     13  H   UNL     1      33.580 -21.266 -19.872  0.00  0.00    +0.148 HD
ENDBRANCH   2   5
BRANCH   2  15
ATOM     14  N   UNL     1      32.883 -13.038 -21.931  0.00  0.00    -0.284 N 
ATOM     15  C   UNL     1      33.890 -14.978 -21.849  0.00  0.00    +0.051 C 
ATOM     16  C   UNL     1      33.647 -14.706 -23.202  0.00  0.00    +0.018 C 
ATOM     17  C   UNL     1      33.005 -13.467 -23.234  0.00  0.00    +0.052 C 
ATOM     18  C   UNL     1      33.425 -13.963 -21.079  0.00  0.00    +0.068 C 
ATOM     19  C   UNL     1      33.897 -15.373 -24.418  0.00  0.00    +0.001 C 
ATOM     20  C   UNL     1      32.600 -12.857 -24.427  0.00  0.00    +0.015 C 
ATOM     21  C   UNL     1      32.277 -11.795 -21.508  0.00  0.00    +0.117 C 
ATOM     22  C   UNL     1      33.498 -14.775 -25.619  0.00  0.00    +0.000 C 
ATOM     23  C   UNL     1      32.860 -13.536 -25.621  0.00  0.00    +0.001 C 
ENDBRANCH   2  15
TORSDOF 2
ENDMDL
MODEL 4
REMARK VINA RESULT:     -10.2      7.887     10.766
REMARK  Name = 108000
REMARK  2 active torsions:
REMARK  status: ('A' for Active; 'I' for Inactive)
REMARK    1  A    between atoms: C_2  and  C_5
REMARK    2  A    between atoms: C_2  and  C_15
REMARK                            x       y       z     vdW  Elec       q    Type
REMARK                         _______ _______ _______ _____ _____    ______ ____
ROOT
ATOM      1  O   UNL     1      35.328 -22.756 -12.196  0.00  0.00    -0.291 OA
ATOM      2  C   UNL     1      35.220 -23.562 -13.123  0.00  0.00    +0.174 C 
ENDROOT
BRANCH   2   5
ATOM      3  N   UNL     1      38.640 -25.348 -15.245  0.00  0.00    -0.319 N 
ATOM      4  N   UNL     1      39.821 -24.528 -13.536  0.00  0.00    -0.319 N 
ATOM      5  C   UNL     1      35.664 -24.981 -12.910  0.00  0.00    +0.068 C 
ATOM      6  C   UNL     1      36.573 -25.057 -11.658  0.00  0.00    +0.014 C 
ATOM      7  C   UNL     1      36.324 -25.545 -14.190  0.00  0.00    +0.049 C 
ATOM      8  C   UNL     1      37.952 -24.382 -11.840  0.00  0.00    +0.042 C 
ATOM      9  C   UNL     1      37.767 -25.208 -14.208  0.00  0.00    +0.032 C 
ATOM     10  C   UNL     1      38.515 -24.708 -13.169  0.00  0.00    +0.032 C 
ATOM     11  C   UNL     1      39.864 -24.926 -14.791  0.00  0.00    +0.181 C 
ATOM     12  H   UNL     1      38.433 -25.687 -16.146  0.00  0.00    +0.148 HD
ATOM     13  H   UNL     1      40.560 -24.181 -12.986  0.00  0.00    +0.148 HD
ENDBRANCH   2   5
BRANCH   2  15
ATOM     14  N   UNL     1      33.222 -22.884 -16.044  0.00  0.00    -0.284 N 
ATOM     15  C   UNL     1      34.667 -23.162 -14.426  0.00  0.00    +0.051 C 
ATOM     16  C   UNL     1      35.347 -22.516 -15.468  0.00  0.00    +0.018 C 
ATOM     17  C   UNL     1      34.410 -22.349 -16.490  0.00  0.00    +0.052 C 
ATOM     18  C   UNL     1      33.377 -23.384 -14.778  0.00  0.00    +0.068 C 
ATOM     19  C   UNL     1      36.661 -22.050 -15.669  0.00  0.00    +0.001 C 
ATOM     20  C   UNL     1      34.723 -21.734 -17.708  0.00  0.00    +0.015 C 
ATOM     21  C   UNL     1      31.984 -22.921 -16.789  0.00  0.00    +0.117 C 
ATOM     22  C   UNL     1      36.988 -21.433 -16.882  0.00  0.00    +0.000 C 
ATOM     23  C   UNL     1      36.032 -21.278 -17.884  0.00  0.00    +0.001 C 
ENDBRANCH   2  15
TORSDOF 2
ENDMDL
MODEL 5
REMARK VINA RESULT:     -10.1      7.944     10.572
REMARK  Name = 108000
REMARK  2 active torsions:
REMARK  status: ('A' for Active; 'I' for Inactive)
REMARK    1  A    between atoms: C_2  and  C_5
REMARK    2  A    between atoms: C_2  and  C_15
REMARK                            x       y       z     vdW  Elec       q    Type
REMARK                         _______ _______ _______ _____ _____    ______ ____
ROOT
ATOM      1  O   UNL     1      35.291 -25.358 -15.170  0.00  0.00    -0.291 OA
ATOM      2  C   UNL     1      34.963 -24.218 -14.836  0.00  0.00    +0.174 C 
ENDROOT
BRANCH   2   5
ATOM      3  N   UNL     1      38.812 -25.747 -13.339  0.00  0.00    -0.319 N 
ATOM      4  N   UNL     1      39.659 -24.627 -15.076  0.00  0.00    -0.319 N 
ATOM      5  C   UNL     1      35.787 -23.494 -13.809  0.00  0.00    +0.068 C 
ATOM      6  C   UNL     1      36.643 -22.407 -14.505  0.00  0.00    +0.014 C 
ATOM      7  C   UNL     1      36.618 -24.495 -12.972  0.00  0.00    +0.049 C 
ATOM      8  C   UNL     1      37.777 -22.970 -15.391  0.00  0.00    +0.042 C 
ATOM      9  C   UNL     1      37.905 -24.779 -13.650  0.00  0.00    +0.032 C 
ATOM     10  C   UNL     1      38.448 -24.102 -14.716  0.00  0.00    +0.032 C 
ATOM     11  C   UNL     1      39.850 -25.615 -14.226  0.00  0.00    +0.181 C 
ATOM     12  H   UNL     1      38.737 -26.413 -12.618  0.00  0.00    +0.148 HD
ATOM     13  H   UNL     1      40.251 -24.334 -15.805  0.00  0.00    +0.148 HD
ENDBRANCH   2   5
BRANCH   2  15
ATOM     14  N   UNL     1      32.546 -22.473 -16.859  0.00  0.00    -0.284 N 
ATOM     15  C   UNL     1      33.787 -23.556 -15.421  0.00  0.00    +0.051 C 
ATOM     16  C   UNL     1      32.521 -23.414 -14.836  0.00  0.00    +0.018 C 
ATOM     17  C   UNL     1      31.745 -22.722 -15.767  0.00  0.00    +0.052 C 
ATOM     18  C   UNL     1      33.800 -22.983 -16.650  0.00  0.00    +0.068 C 
ATOM     19  C   UNL     1      31.935 -23.795 -13.613  0.00  0.00    +0.001 C 
ATOM     20  C   UNL     1      30.405 -22.390 -15.535  0.00  0.00    +0.015 C 
ATOM     21  C   UNL     1      32.139 -21.777 -18.060  0.00  0.00    +0.117 C 
ATOM     22  C   UNL     1      30.596 -23.470 -13.368  0.00  0.00    +0.000 C 
ATOM     23  C   UNL     1      29.844 -22.779 -14.316  0.00  0.00    +0.001 C 
ENDBRANCH   2  15
TORSDOF 2
ENDMDL
MODEL 6
REMARK VINA RESULT:      -9.8      7.726     10.605
REMARK  Name = 108000
REMARK  2 active torsions:
REMARK  status: ('A' for Active; 'I' for Inactive)
REMARK    1  A    between atoms: C_2  and  C_5
REMARK    2  A    between atoms: C_2  and  C_15
REMARK                            x       y       z     vdW  Elec       q    Type
REMARK                         _______ _______ _______ _____ _____    ______ ____
ROOT
ATOM      1  O   UNL     1      32.101 -25.178 -14.231  0.00  0.00    -0.291 OA
ATOM      2  C   UNL     1      32.258 -23.955 -14.218  0.00  0.00    +0.174 C 
ENDROOT
BRANCH   2   5
ATOM      3  N   UNL     1      28.891 -22.189 -16.439  0.00  0.00    -0.319 N 
ATOM      4  N   UNL     1      27.871 -24.114 -15.949  0.00  0.00    -0.319 N 
ATOM      5  C   UNL     1      31.213 -23.093 -13.569  0.00  0.00    +0.068 C 
ATOM      6  C   UNL     1      30.135 -23.992 -12.914  0.00  0.00    +0.014 C 
ATOM      7  C   UNL     1      30.639 -22.075 -14.582  0.00  0.00    +0.049 C 
ATOM      8  C   UNL     1      29.247 -24.751 -13.927  0.00  0.00    +0.042 C 
ATOM      9  C   UNL     1      29.517 -22.685 -15.335  0.00  0.00    +0.032 C 
ATOM     10  C   UNL     1      28.871 -23.864 -15.050  0.00  0.00    +0.032 C 
ATOM     11  C   UNL     1      27.907 -23.085 -16.771  0.00  0.00    +0.181 C 
ATOM     12  H   UNL     1      29.103 -21.350 -16.907  0.00  0.00    +0.148 HD
ATOM     13  H   UNL     1      27.263 -24.887 -15.976  0.00  0.00    +0.148 HD
ENDBRANCH   2   5
BRANCH   2  15
ATOM     14  N   UNL     1      35.477 -22.548 -15.019  0.00  0.00    -0.284 N 
ATOM     15  C   UNL     1      33.444 -23.328 -14.823  0.00  0.00    +0.051 C 
ATOM     16  C   UNL     1      33.561 -22.829 -16.127  0.00  0.00    +0.018 C 
ATOM     17  C   UNL     1      34.863 -22.336 -16.233  0.00  0.00    +0.052 C 
ATOM     18  C   UNL     1      34.609 -23.156 -14.151  0.00  0.00    +0.068 C 
ATOM     19  C   UNL     1      32.706 -22.735 -17.244  0.00  0.00    +0.001 C 
ATOM     20  C   UNL     1      35.356 -21.752 -17.405  0.00  0.00    +0.015 C 
ATOM     21  C   UNL     1      36.839 -22.189 -14.691  0.00  0.00    +0.117 C 
ATOM     22  C   UNL     1      33.187 -22.154 -18.423  0.00  0.00    +0.000 C 
ATOM     23  C   UNL     1      34.491 -21.671 -18.500  0.00  0.00    +0.001 C 
ENDBRANCH   2  15
TORSDOF 2
ENDMDL
MODEL 7
REMARK VINA RESULT:      -9.8      7.444     10.242
REMARK  Name = 108000
REMARK  2 active torsions:
REMARK  status: ('A' for Active; 'I' for Inactive)
REMARK    1  A    between atoms: C_2  and  C_5
REMARK    2  A    between atoms: C_2  and  C_15
REMARK                            x       y       z     vdW  Elec       q    Type
REMARK                         _______ _______ _______ _____ _____    ______ ____
ROOT
ATOM      1  O   UNL     1      32.743 -24.784 -14.122  0.00  0.00    -0.291 OA
ATOM      2  C   UNL     1      32.477 -23.645 -14.511  0.00  0.00    +0.174 C 
ENDROOT
BRANCH   2   5
ATOM      3  N   UNL     1      28.786 -22.281 -16.489  0.00  0.00    -0.319 N 
ATOM      4  N   UNL     1      28.000 -24.276 -15.865  0.00  0.00    -0.319 N 
ATOM      5  C   UNL     1      31.409 -22.863 -13.800  0.00  0.00    +0.068 C 
ATOM      6  C   UNL     1      30.479 -23.836 -13.034  0.00  0.00    +0.014 C 
ATOM      7  C   UNL     1      30.659 -21.939 -14.789  0.00  0.00    +0.049 C 
ATOM      8  C   UNL     1      29.590 -24.710 -13.948  0.00  0.00    +0.042 C 
ATOM      9  C   UNL     1      29.545 -22.678 -15.429  0.00  0.00    +0.032 C 
ATOM     10  C   UNL     1      29.041 -23.902 -15.060  0.00  0.00    +0.032 C 
ATOM     11  C   UNL     1      27.870 -23.277 -16.714  0.00  0.00    +0.181 C 
ATOM     12  H   UNL     1      28.878 -21.443 -16.997  0.00  0.00    +0.148 HD
ATOM     13  H   UNL     1      27.469 -25.103 -15.819  0.00  0.00    +0.148 HD
ENDBRANCH   2   5
BRANCH   2  15
ATOM     14  N   UNL     1      33.543 -22.279 -17.670  0.00  0.00    -0.284 N 
ATOM     15  C   UNL     1      33.181 -23.041 -15.653  0.00  0.00    +0.051 C 
ATOM     16  C   UNL     1      34.504 -22.578 -15.679  0.00  0.00    +0.018 C 
ATOM     17  C   UNL     1      34.715 -22.096 -16.972  0.00  0.00    +0.052 C 
ATOM     18  C   UNL     1      32.599 -22.858 -16.864  0.00  0.00    +0.068 C 
ATOM     19  C   UNL     1      35.559 -22.510 -14.748  0.00  0.00    +0.001 C 
ATOM     20  C   UNL     1      35.935 -21.546 -17.382  0.00  0.00    +0.015 C 
ATOM     21  C   UNL     1      33.322 -21.915 -19.052  0.00  0.00    +0.117 C 
ATOM     22  C   UNL     1      36.785 -21.962 -15.144  0.00  0.00    +0.000 C 
ATOM     23  C   UNL     1      36.967 -21.488 -16.442  0.00  0.00    +0.001 C 
ENDBRANCH   2  15
TORSDOF 2
ENDMDL
MODEL 8
REMARK VINA RESULT:      -9.7      2.689      7.338
REMARK  Name = 108000
REMARK  2 active torsions:
REMARK  status: ('A' for Active; 'I' for Inactive)
REMARK    1  A    between atoms: C_2  and  C_5
REMARK    2  A    between atoms: C_2  and  C_15
REMARK                            x       y       z     vdW  Elec       q    Type
REMARK                         _______ _______ _______ _____ _____    ______ ____
ROOT
ATOM      1  O   UNL     1      33.014 -19.497 -21.094  0.00  0.00    -0.291 OA
ATOM      2  C   UNL     1      34.171 -19.837 -20.840  0.00  0.00    +0.174 C 
ENDROOT
BRANCH   2   5
ATOM      3  N   UNL     1      33.462 -17.519 -24.516  0.00  0.00    -0.319 N 
ATOM      4  N   UNL     1      33.847 -15.760 -23.194  0.00  0.00    -0.319 N 
ATOM      5  C   UNL     1      35.261 -19.499 -21.816  0.00  0.00    +0.068 C 
ATOM      6  C   UNL     1      36.020 -18.240 -21.329  0.00  0.00    +0.014 C 
ATOM      7  C   UNL     1      34.690 -19.363 -23.247  0.00  0.00    +0.049 C 
ATOM      8  C   UNL     1      35.193 -16.936 -21.408  0.00  0.00    +0.042 C 
ATOM      9  C   UNL     1      34.205 -17.980 -23.471  0.00  0.00    +0.032 C 
ATOM     10  C   UNL     1      34.433 -16.882 -22.676  0.00  0.00    +0.032 C 
ATOM     11  C   UNL     1      33.272 -16.177 -24.304  0.00  0.00    +0.181 C 
ATOM     12  H   UNL     1      33.126 -18.047 -25.275  0.00  0.00    +0.148 HD
ATOM     13  H   UNL     1      33.854 -14.849 -22.823  0.00  0.00    +0.148 HD
ENDBRANCH   2   5
BRANCH   2  15
ATOM     14  N   UNL     1      35.695 -21.417 -17.982  0.00  0.00    -0.284 N 
ATOM     15  C   UNL     1      34.502 -20.565 -19.604  0.00  0.00    +0.051 C 
ATOM     16  C   UNL     1      33.609 -21.225 -18.749  0.00  0.00    +0.018 C 
ATOM     17  C   UNL     1      34.388 -21.761 -17.722  0.00  0.00    +0.052 C 
ATOM     18  C   UNL     1      35.769 -20.683 -19.136  0.00  0.00    +0.068 C 
ATOM     19  C   UNL     1      32.216 -21.434 -18.725  0.00  0.00    +0.001 C 
ATOM     20  C   UNL     1      33.840 -22.499 -16.666  0.00  0.00    +0.015 C 
ATOM     21  C   UNL     1      36.836 -21.768 -17.165  0.00  0.00    +0.117 C 
ATOM     22  C   UNL     1      31.654 -22.170 -17.674  0.00  0.00    +0.000 C 
ATOM     23  C   UNL     1      32.456 -22.693 -16.662  0.00  0.00    +0.001 C 
ENDBRANCH   2  15
TORSDOF 2
ENDMDL
MODEL 9
REMARK VINA RESULT:      -9.7      8.744     11.245
REMARK  Name = 108000
REMARK  2 active torsions:
REMARK  status: ('A' for Active; 'I' for Inactive)
REMARK    1  A    between atoms: C_2  and  C_5
REMARK    2  A    between atoms: C_2  and  C_15
REMARK                            x       y       z     vdW  Elec       q    Type
REMARK                         _______ _______ _______ _____ _____    ______ ____
ROOT
ATOM      1  O   UNL     1      31.916 -23.175 -16.293  0.00  0.00    -0.291 OA
ATOM      2  C   UNL     1      32.224 -23.218 -15.101  0.00  0.00    +0.174 C 
ENDROOT
BRANCH   2   5
ATOM      3  N   UNL     1      28.112 -21.954 -16.041  0.00  0.00    -0.319 N 
ATOM      4  N   UNL     1      27.791 -24.128 -16.441  0.00  0.00    -0.319 N 
ATOM      5  C   UNL     1      31.141 -23.123 -14.065  0.00  0.00    +0.068 C 
ATOM      6  C   UNL     1      30.516 -24.522 -13.839  0.00  0.00    +0.014 C 
ATOM      7  C   UNL     1      30.108 -22.038 -14.452  0.00  0.00    +0.049 C 
ATOM      8  C   UNL     1      29.682 -25.039 -15.033  0.00  0.00    +0.042 C 
ATOM      9  C   UNL     1      29.068 -22.619 -15.333  0.00  0.00    +0.032 C 
ATOM     10  C   UNL     1      28.848 -23.951 -15.591  0.00  0.00    +0.032 C 
ATOM     11  C   UNL     1      27.368 -22.905 -16.691  0.00  0.00    +0.181 C 
ATOM     12  H   UNL     1      27.981 -20.979 -16.078  0.00  0.00    +0.148 HD
ATOM     13  H   UNL     1      27.430 -24.975 -16.787  0.00  0.00    +0.148 HD
ENDBRANCH   2   5
BRANCH   2  15
ATOM     14  N   UNL     1      35.358 -23.972 -13.490  0.00  0.00    -0.284 N 
ATOM     15  C   UNL     1      33.626 -23.361 -14.677  0.00  0.00    +0.051 C 
ATOM     16  C   UNL     1      34.758 -22.833 -15.313  0.00  0.00    +0.018 C 
ATOM     17  C   UNL     1      35.851 -23.233 -14.542  0.00  0.00    +0.052 C 
ATOM     18  C   UNL     1      33.993 -24.053 -13.570  0.00  0.00    +0.068 C 
ATOM     19  C   UNL     1      34.987 -22.054 -16.464  0.00  0.00    +0.001 C 
ATOM     20  C   UNL     1      37.169 -22.891 -14.867  0.00  0.00    +0.015 C 
ATOM     21  C   UNL     1      36.151 -24.583 -12.447  0.00  0.00    +0.117 C 
ATOM     22  C   UNL     1      36.300 -21.705 -16.801  0.00  0.00    +0.000 C 
ATOM     23  C   UNL     1      37.373 -22.119 -16.014  0.00  0.00    +0.001 C 
ENDBRANCH   2  15
TORSDOF 2
ENDMDL
