MODEL 1
REMARK VINA RESULT:     -11.2      0.000      0.000
REMARK  Name = 446136
REMARK  9 active torsions:
REMARK  status: ('A' for Active; 'I' for Inactive)
REMARK    1  A    between atoms: C_1  and  C_6
REMARK    2  A    between atoms: C_1  and  C_17
REMARK    3  A    between atoms: C_1  and  N_27
REMARK    4  A    between atoms: CA_5  and  C_12
REMARK    5  A    between atoms: C_12  and  O_13
REMARK    6  A    between atoms: N_16  and  C_19
REMARK    7  A    between atoms: C_19  and  C_20
REMARK    8  A    between atoms: C_28  and  C_30
REMARK    9  A    between atoms: C_30  and  C_31
REMARK                            x       y       z     vdW  Elec       q    Type
REMARK                         _______ _______ _______ _____ _____    ______ ____
ROOT
ATOM      1  C   UNL     1      33.062 -22.918 -16.671  0.00  0.00    +0.139 C 
ENDROOT
BRANCH   1   6
ATOM      2  S   UNL     1      30.315 -22.784 -16.659  0.00  0.00    -0.164 S 
ATOM      3  N   UNL     1      31.904 -22.302 -14.564  0.00  0.00    +0.401 N 
ATOM      4  C   UNL     1      29.709 -23.265 -15.001  0.00  0.00    +0.030 C 
ATOM      5  CA  UNL     1      31.032 -23.432 -14.231  0.00  0.00    +0.050 C 
ATOM      6  C   UNL     1      31.907 -22.159 -16.024  0.00  0.00    +0.016 C 
ATOM      7  C   UNL     1      28.931 -24.578 -15.090  0.00  0.00    +0.009 C 
ATOM      8  C   UNL     1      28.804 -22.138 -14.484  0.00  0.00    +0.009 C 
ATOM      9  H1  UNL     1      32.851 -22.485 -14.231  0.00  0.00    -0.082 HD
ATOM     10  H2  UNL     1      31.568 -21.448 -14.121  0.00  0.00    -0.082 HD
BRANCH   5  12
ATOM     11  OXT UNL     1      30.126 -24.196 -12.124  0.00  0.00    -0.253 OA
ATOM     12  C   UNL     1      30.848 -23.429 -12.745  0.00  0.00    +0.294 C 
BRANCH  12  13
ATOM     13  O   UNL     1      31.595 -22.452 -12.172  0.00  0.00    -0.482 OA
ATOM     14  H   UNL     1      32.516 -22.573 -12.058  0.00  0.00    +0.295 HD
ENDBRANCH  12  13
ENDBRANCH   5  12
ENDBRANCH   1   6
BRANCH   1  17
ATOM     15  O   UNL     1      33.398 -23.568 -18.979  0.00  0.00    -0.273 OA
ATOM     16  N   UNL     1      32.739 -21.392 -18.514  0.00  0.00    -0.299 N 
ATOM     17  C   UNL     1      33.080 -22.694 -18.175  0.00  0.00    +0.239 C 
ATOM     18  H   UNL     1      32.498 -20.765 -17.795  0.00  0.00    +0.150 HD
BRANCH  16  19
ATOM     19  C   UNL     1      32.722 -20.921 -19.879  0.00  0.00    +0.116 C 
BRANCH  19  20
ATOM     20  C   UNL     1      33.957 -20.139 -20.220  0.00  0.00    -0.003 C 
ATOM     21  C   UNL     1      35.186 -20.501 -19.667  0.00  0.00    -0.003 C 
ATOM     22  C   UNL     1      33.878 -19.052 -21.089  0.00  0.00    -0.003 C 
ATOM     23  C   UNL     1      36.334 -19.775 -19.983  0.00  0.00    -0.000 C 
ATOM     24  C   UNL     1      35.026 -18.325 -21.406  0.00  0.00    -0.000 C 
ATOM     25  C   UNL     1      36.254 -18.687 -20.853  0.00  0.00    -0.000 C 
ENDBRANCH  19  20
ENDBRANCH  16  19
ENDBRANCH   1  17
BRANCH   1  27
ATOM     26  O   UNL     1      35.042 -24.573 -15.398  0.00  0.00    -0.275 OA
ATOM     27  N   UNL     1      34.327 -22.491 -16.138  0.00  0.00    -0.299 N 
ATOM     28  C   UNL     1      35.225 -23.367 -15.537  0.00  0.00    +0.227 C 
ATOM     29  H   UNL     1      34.567 -21.539 -16.201  0.00  0.00    +0.150 HD
BRANCH  28  30
ATOM     30  C   UNL     1      36.479 -22.652 -15.071  0.00  0.00    +0.111 C 
BRANCH  30  31
ATOM     31  C   UNL     1      37.542 -23.586 -14.557  0.00  0.00    -0.013 C 
ATOM     32  C   UNL     1      38.668 -23.856 -15.335  0.00  0.00    -0.004 C 
ATOM     33  C   UNL     1      37.401 -24.183 -13.304  0.00  0.00    -0.004 C 
ATOM     34  C   UNL     1      39.654 -24.722 -14.859  0.00  0.00    -0.000 C 
ATOM     35  C   UNL     1      38.387 -25.048 -12.828  0.00  0.00    -0.000 C 
ATOM     36  C   UNL     1      39.513 -25.317 -13.606  0.00  0.00    -0.000 C 
ENDBRANCH  30  31
ENDBRANCH  28  30
ENDBRANCH   1  27
TORSDOF 9
ENDMDL
MODEL 2
REMARK VINA RESULT:     -11.2      1.951      7.248
REMARK  Name = 446136
REMARK  9 active torsions:
REMARK  status: ('A' for Active; 'I' for Inactive)
REMARK    1  A    between atoms: C_1  and  C_6
REMARK    2  A    between atoms: C_1  and  C_17
REMARK    3  A    between atoms: C_1  and  N_27
REMARK    4  A    between atoms: CA_5  and  C_12
REMARK    5  A    between atoms: C_12  and  O_13
REMARK    6  A    between atoms: N_16  and  C_19
REMARK    7  A    between atoms: C_19  and  C_20
REMARK    8  A    between atoms: C_28  and  C_30
REMARK    9  A    between atoms: C_30  and  C_31
REMARK                            x       y       z     vdW  Elec       q    Type
REMARK                         _______ _______ _______ _____ _____    ______ ____
ROOT
ATOM      1  C   UNL     1      33.855 -23.311 -15.468  0.00  0.00    +0.139 C 
ENDROOT
BRANCH   1   6
ATOM      2  S   UNL     1      34.879 -23.347 -12.917  0.00  0.00    -0.164 S 
ATOM      3  N   UNL     1      36.305 -23.059 -15.160  0.00  0.00    +0.401 N 
ATOM      4  C   UNL     1      36.553 -24.084 -12.964  0.00  0.00    +0.030 C 
ATOM      5  CA  UNL     1      36.759 -24.274 -14.478  0.00  0.00    +0.050 C 
ATOM      6  C   UNL     1      34.981 -22.718 -14.626  0.00  0.00    +0.016 C 
ATOM      7  C   UNL     1      36.558 -25.417 -12.216  0.00  0.00    +0.009 C 
ATOM      8  C   UNL     1      37.524 -23.095 -12.304  0.00  0.00    +0.009 C 
ATOM      9  H1  UNL     1      36.241 -23.227 -16.164  0.00  0.00    -0.082 HD
ATOM     10  H2  UNL     1      36.961 -22.294 -15.004  0.00  0.00    -0.082 HD
BRANCH   5  12
ATOM     11  OXT UNL     1      38.816 -25.523 -14.694  0.00  0.00    -0.253 OA
ATOM     12  C   UNL     1      38.194 -24.483 -14.852  0.00  0.00    +0.294 C 
BRANCH  12  13
ATOM     13  O   UNL     1      38.717 -23.356 -15.394  0.00  0.00    -0.482 OA
ATOM     14  H   UNL     1      39.158 -23.393 -16.219  0.00  0.00    +0.295 HD
ENDBRANCH  12  13
ENDBRANCH   5  12
ENDBRANCH   1   6
BRANCH   1  17
ATOM     15  O   UNL     1      32.579 -24.783 -14.029  0.00  0.00    -0.273 OA
ATOM     16  N   UNL     1      31.709 -22.695 -14.549  0.00  0.00    -0.299 N 
ATOM     17  C   UNL     1      32.671 -23.695 -14.594  0.00  0.00    +0.239 C 
ATOM     18  H   UNL     1      31.878 -21.856 -15.036  0.00  0.00    +0.150 HD
BRANCH  16  19
ATOM     19  C   UNL     1      30.472 -22.835 -13.817  0.00  0.00    +0.116 C 
BRANCH  19  20
ATOM     20  C   UNL     1      29.280 -22.865 -14.728  0.00  0.00    -0.003 C 
ATOM     21  C   UNL     1      28.383 -21.796 -14.740  0.00  0.00    -0.003 C 
ATOM     22  C   UNL     1      29.068 -23.961 -15.564  0.00  0.00    -0.003 C 
ATOM     23  C   UNL     1      27.275 -21.823 -15.586  0.00  0.00    -0.000 C 
ATOM     24  C   UNL     1      27.960 -23.989 -16.411  0.00  0.00    -0.000 C 
ATOM     25  C   UNL     1      27.064 -22.920 -16.423  0.00  0.00    -0.000 C 
ENDBRANCH  19  20
ENDBRANCH  16  19
ENDBRANCH   1  17
BRANCH   1  27
ATOM     26  O   UNL     1      33.162 -23.892 -18.200  0.00  0.00    -0.275 OA
ATOM     27  N   UNL     1      33.398 -22.374 -16.459  0.00  0.00    -0.299 N 
ATOM     28  C   UNL     1      33.084 -22.748 -17.761  0.00  0.00    +0.227 C 
ATOM     29  H   UNL     1      33.303 -21.429 -16.203  0.00  0.00    +0.150 HD
BRANCH  28  30
ATOM     30  C   UNL     1      32.624 -21.563 -18.589  0.00  0.00    +0.111 C 
BRANCH  30  31
ATOM     31  C   UNL     1      33.748 -20.865 -19.307  0.00  0.00    -0.013 C 
ATOM     32  C   UNL     1      33.464 -19.943 -20.315  0.00  0.00    -0.004 C 
ATOM     33  C   UNL     1      35.072 -21.140 -18.967  0.00  0.00    -0.004 C 
ATOM     34  C   UNL     1      34.505 -19.295 -20.980  0.00  0.00    -0.000 C 
ATOM     35  C   UNL     1      36.113 -20.493 -19.633  0.00  0.00    -0.000 C 
ATOM     36  C   UNL     1      35.830 -19.570 -20.639  0.00  0.00    -0.000 C 
ENDBRANCH  30  31
ENDBRANCH  28  30
ENDBRANCH   1  27
TORSDOF 9
ENDMDL
MODEL 3
REMARK VINA RESULT:     -11.0      2.384      5.909
REMARK  Name = 446136
REMARK  9 active torsions:
REMARK  status: ('A' for Active; 'I' for Inactive)
REMARK    1  A    between atoms: C_1  and  C_6
REMARK    2  A    between atoms: C_1  and  C_17
REMARK    3  A    between atoms: C_1  and  N_27
REMARK    4  A    between atoms: CA_5  and  C_12
REMARK    5  A    between atoms: C_12  and  O_13
REMARK    6  A    between atoms: N_16  and  C_19
REMARK    7  A    between atoms: C_19  and  C_20
REMARK    8  A    between atoms: C_28  and  C_30
REMARK    9  A    between atoms: C_30  and  C_31
REMARK                            x       y       z     vdW  Elec       q    Type
REMARK                         _______ _______ _______ _____ _____    ______ ____
ROOT
ATOM      1  C   UNL     1      35.310 -22.243 -14.853  0.00  0.00    +0.139 C 
ENDROOT
BRANCH   1   6
ATOM      2  S   UNL     1      37.338 -23.990 -14.222  0.00  0.00    -0.164 S 
ATOM      3  N   UNL     1      34.962 -23.862 -13.005  0.00  0.00    +0.401 N 
ATOM      4  C   UNL     1      37.279 -24.336 -12.426  0.00  0.00    +0.030 C 
ATOM      5  CA  UNL     1      36.003 -23.581 -12.013  0.00  0.00    +0.050 C 
ATOM      6  C   UNL     1      35.548 -23.659 -14.334  0.00  0.00    +0.016 C 
ATOM      7  C   UNL     1      38.524 -23.767 -11.744  0.00  0.00    +0.009 C 
ATOM      8  C   UNL     1      37.214 -25.858 -12.240  0.00  0.00    +0.009 C 
ATOM      9  H1  UNL     1      34.174 -23.227 -12.872  0.00  0.00    -0.082 HD
ATOM     10  H2  UNL     1      34.621 -24.818 -12.907  0.00  0.00    -0.082 HD
BRANCH   5  12
ATOM     11  OXT UNL     1      35.954 -23.701  -9.600  0.00  0.00    -0.253 OA
ATOM     12  C   UNL     1      35.474 -24.013 -10.680  0.00  0.00    +0.294 C 
BRANCH  12  13
ATOM     13  O   UNL     1      34.383 -24.803 -10.831  0.00  0.00    -0.482 OA
ATOM     14  H   UNL     1      33.627 -24.665 -10.294  0.00  0.00    +0.295 HD
ENDBRANCH  12  13
ENDBRANCH   5  12
ENDBRANCH   1   6
BRANCH   1  17
ATOM     15  O   UNL     1      37.354 -21.993 -16.129  0.00  0.00    -0.273 OA
ATOM     16  N   UNL     1      35.319 -21.708 -17.208  0.00  0.00    -0.299 N 
ATOM     17  C   UNL     1      36.124 -21.986 -16.113  0.00  0.00    +0.239 C 
ATOM     18  H   UNL     1      34.342 -21.728 -17.092  0.00  0.00    +0.150 HD
BRANCH  16  19
ATOM     19  C   UNL     1      35.856 -21.391 -18.511  0.00  0.00    +0.116 C 
BRANCH  19  20
ATOM     20  C   UNL     1      34.830 -20.755 -19.403  0.00  0.00    -0.003 C 
ATOM     21  C   UNL     1      35.230 -19.882 -20.415  0.00  0.00    -0.003 C 
ATOM     22  C   UNL     1      33.476 -21.037 -19.221  0.00  0.00    -0.003 C 
ATOM     23  C   UNL     1      34.277 -19.291 -21.244  0.00  0.00    -0.000 C 
ATOM     24  C   UNL     1      32.522 -20.446 -20.049  0.00  0.00    -0.000 C 
ATOM     25  C   UNL     1      32.923 -19.574 -21.061  0.00  0.00    -0.000 C 
ENDBRANCH  19  20
ENDBRANCH  16  19
ENDBRANCH   1  17
BRANCH   1  27
ATOM     26  O   UNL     1      33.644 -23.895 -16.520  0.00  0.00    -0.275 OA
ATOM     27  N   UNL     1      33.923 -22.030 -15.165  0.00  0.00    -0.299 N 
ATOM     28  C   UNL     1      33.195 -22.886 -15.984  0.00  0.00    +0.227 C 
ATOM     29  H   UNL     1      33.470 -21.244 -14.782  0.00  0.00    +0.150 HD
BRANCH  28  30
ATOM     30  C   UNL     1      31.757 -22.426 -16.138  0.00  0.00    +0.111 C 
BRANCH  30  31
ATOM     31  C   UNL     1      30.771 -23.299 -15.410  0.00  0.00    -0.013 C 
ATOM     32  C   UNL     1      31.163 -23.987 -14.261  0.00  0.00    -0.004 C 
ATOM     33  C   UNL     1      29.464 -23.422 -15.883  0.00  0.00    -0.004 C 
ATOM     34  C   UNL     1      30.249 -24.796 -13.586  0.00  0.00    -0.000 C 
ATOM     35  C   UNL     1      28.550 -24.230 -15.207  0.00  0.00    -0.000 C 
ATOM     36  C   UNL     1      28.942 -24.917 -14.059  0.00  0.00    -0.000 C 
ENDBRANCH  30  31
ENDBRANCH  28  30
ENDBRANCH   1  27
TORSDOF 9
ENDMDL
MODEL 4
REMARK VINA RESULT:     -10.9      2.420      6.192
REMARK  Name = 446136
REMARK  9 active torsions:
REMARK  status: ('A' for Active; 'I' for Inactive)
REMARK    1  A    between atoms: C_1  and  C_6
REMARK    2  A    between atoms: C_1  and  C_17
REMARK    3  A    between atoms: C_1  and  N_27
REMARK    4  A    between atoms: CA_5  and  C_12
REMARK    5  A    between atoms: C_12  and  O_13
REMARK    6  A    between atoms: N_16  and  C_19
REMARK    7  A    between atoms: C_19  and  C_20
REMARK    8  A    between atoms: C_28  and  C_30
REMARK    9  A    between atoms: C_30  and  C_31
REMARK                            x       y       z     vdW  Elec       q    Type
REMARK                         _______ _______ _______ _____ _____    ______ ____
ROOT
ATOM      1  C   UNL     1      36.016 -21.855 -15.361  0.00  0.00    +0.139 C 
ENDROOT
BRANCH   1   6
ATOM      2  S   UNL     1      36.992 -22.732 -12.945  0.00  0.00    -0.164 S 
ATOM      3  N   UNL     1      37.352 -23.945 -15.300  0.00  0.00    +0.401 N 
ATOM      4  C   UNL     1      37.051 -24.561 -12.963  0.00  0.00    +0.030 C 
ATOM      5  CA  UNL     1      36.634 -24.865 -14.413  0.00  0.00    +0.050 C 
ATOM      6  C   UNL     1      37.204 -22.593 -14.752  0.00  0.00    +0.016 C 
ATOM      7  C   UNL     1      36.052 -25.124 -11.952  0.00  0.00    +0.009 C 
ATOM      8  C   UNL     1      38.479 -24.991 -12.603  0.00  0.00    +0.009 C 
ATOM      9  H1  UNL     1      36.953 -23.985 -16.238  0.00  0.00    -0.082 HD
ATOM     10  H2  UNL     1      38.337 -24.201 -15.360  0.00  0.00    -0.082 HD
BRANCH   5  12
ATOM     11  OXT UNL     1      37.867 -26.942 -14.355  0.00  0.00    -0.253 OA
ATOM     12  C   UNL     1      36.980 -26.257 -14.843  0.00  0.00    +0.294 C 
BRANCH  12  13
ATOM     13  O   UNL     1      36.172 -26.660 -15.854  0.00  0.00    -0.482 OA
ATOM     14  H   UNL     1      35.528 -27.323 -15.703  0.00  0.00    +0.295 HD
ENDBRANCH  12  13
ENDBRANCH   5  12
ENDBRANCH   1   6
BRANCH   1  17
ATOM     15  O   UNL     1      37.181 -20.139 -16.612  0.00  0.00    -0.273 OA
ATOM     16  N   UNL     1      35.831 -21.639 -17.759  0.00  0.00    -0.299 N 
ATOM     17  C   UNL     1      36.430 -21.113 -16.623  0.00  0.00    +0.239 C 
ATOM     18  H   UNL     1      35.245 -22.423 -17.663  0.00  0.00    +0.150 HD
BRANCH  16  19
ATOM     19  C   UNL     1      36.036 -21.083 -19.077  0.00  0.00    +0.116 C 
BRANCH  19  20
ATOM     20  C   UNL     1      34.749 -20.621 -19.697  0.00  0.00    -0.003 C 
ATOM     21  C   UNL     1      33.530 -21.091 -19.209  0.00  0.00    -0.003 C 
ATOM     22  C   UNL     1      34.772 -19.719 -20.761  0.00  0.00    -0.003 C 
ATOM     23  C   UNL     1      32.334 -20.662 -19.785  0.00  0.00    -0.000 C 
ATOM     24  C   UNL     1      33.577 -19.289 -21.338  0.00  0.00    -0.000 C 
ATOM     25  C   UNL     1      32.359 -19.760 -20.849  0.00  0.00    -0.000 C 
ENDBRANCH  19  20
ENDBRANCH  16  19
ENDBRANCH   1  17
BRANCH   1  27
ATOM     26  O   UNL     1      33.415 -22.014 -14.141  0.00  0.00    -0.275 OA
ATOM     27  N   UNL     1      34.958 -22.767 -15.704  0.00  0.00    -0.299 N 
ATOM     28  C   UNL     1      33.727 -22.771 -15.056  0.00  0.00    +0.227 C 
ATOM     29  H   UNL     1      35.113 -23.416 -16.427  0.00  0.00    +0.150 HD
BRANCH  28  30
ATOM     30  C   UNL     1      32.800 -23.830 -15.621  0.00  0.00    +0.111 C 
BRANCH  30  31
ATOM     31  C   UNL     1      31.342 -23.480 -15.484  0.00  0.00    -0.013 C 
ATOM     32  C   UNL     1      30.764 -22.552 -16.351  0.00  0.00    -0.004 C 
ATOM     33  C   UNL     1      30.569 -24.081 -14.491  0.00  0.00    -0.004 C 
ATOM     34  C   UNL     1      29.413 -22.227 -16.225  0.00  0.00    -0.000 C 
ATOM     35  C   UNL     1      29.218 -23.757 -14.365  0.00  0.00    -0.000 C 
ATOM     36  C   UNL     1      28.640 -22.830 -15.232  0.00  0.00    -0.000 C 
ENDBRANCH  30  31
ENDBRANCH  28  30
ENDBRANCH   1  27
TORSDOF 9
ENDMDL
MODEL 5
REMARK VINA RESULT:     -10.8      2.350      6.632
REMARK  Name = 446136
REMARK  9 active torsions:
REMARK  status: ('A' for Active; 'I' for Inactive)
REMARK    1  A    between atoms: C_1  and  C_6
REMARK    2  A    between atoms: C_1  and  C_17
REMARK    3  A    between atoms: C_1  and  N_27
REMARK    4  A    between atoms: CA_5  and  C_12
REMARK    5  A    between atoms: C_12  and  O_13
REMARK    6  A    between atoms: N_16  and  C_19
REMARK    7  A    between atoms: C_19  and  C_20
REMARK    8  A    between atoms: C_28  and  C_30
REMARK    9  A    between atoms: C_30  and  C_31
REMARK                            x       y       z     vdW  Elec       q    Type
REMARK                         _______ _______ _______ _____ _____    ______ ____
ROOT
ATOM      1  C   UNL     1      35.266 -22.136 -14.510  0.00  0.00    +0.139 C 
ENDROOT
BRANCH   1   6
ATOM      2  S   UNL     1      35.463 -24.449 -13.037  0.00  0.00    -0.164 S 
ATOM      3  N   UNL     1      37.519 -22.959 -13.874  0.00  0.00    +0.401 N 
ATOM      4  C   UNL     1      37.009 -25.311 -13.499  0.00  0.00    +0.030 C 
ATOM      5  CA  UNL     1      37.648 -24.295 -14.463  0.00  0.00    +0.050 C 
ATOM      6  C   UNL     1      36.127 -22.798 -13.439  0.00  0.00    +0.016 C 
ATOM      7  C   UNL     1      36.681 -26.632 -14.197  0.00  0.00    +0.009 C 
ATOM      8  C   UNL     1      37.809 -25.567 -12.214  0.00  0.00    +0.009 C 
ATOM      9  H1  UNL     1      37.749 -22.249 -14.569  0.00  0.00    -0.082 HD
ATOM     10  H2  UNL     1      38.155 -22.853 -13.085  0.00  0.00    -0.082 HD
BRANCH   5  12
ATOM     11  OXT UNL     1      40.015 -23.977 -14.095  0.00  0.00    -0.253 OA
ATOM     12  C   UNL     1      39.107 -24.541 -14.690  0.00  0.00    +0.294 C 
BRANCH  12  13
ATOM     13  O   UNL     1      39.291 -25.478 -15.652  0.00  0.00    -0.482 OA
ATOM     14  H   UNL     1      39.745 -25.257 -16.441  0.00  0.00    +0.295 HD
ENDBRANCH  12  13
ENDBRANCH   5  12
ENDBRANCH   1   6
BRANCH   1  17
ATOM     15  O   UNL     1      37.187 -21.069 -15.528  0.00  0.00    -0.273 OA
ATOM     16  N   UNL     1      35.538 -21.951 -16.903  0.00  0.00    -0.299 N 
ATOM     17  C   UNL     1      36.122 -21.665 -15.677  0.00  0.00    +0.239 C 
ATOM     18  H   UNL     1      34.681 -22.435 -16.916  0.00  0.00    +0.150 HD
BRANCH  16  19
ATOM     19  C   UNL     1      36.138 -21.570 -18.160  0.00  0.00    +0.116 C 
BRANCH  19  20
ATOM     20  C   UNL     1      35.146 -20.924 -19.083  0.00  0.00    -0.003 C 
ATOM     21  C   UNL     1      35.582 -20.019 -20.053  0.00  0.00    -0.003 C 
ATOM     22  C   UNL     1      33.790 -21.227 -18.973  0.00  0.00    -0.003 C 
ATOM     23  C   UNL     1      34.660 -19.419 -20.911  0.00  0.00    -0.000 C 
ATOM     24  C   UNL     1      32.868 -20.627 -19.831  0.00  0.00    -0.000 C 
ATOM     25  C   UNL     1      33.303 -19.724 -20.800  0.00  0.00    -0.000 C 
ENDBRANCH  19  20
ENDBRANCH  16  19
ENDBRANCH   1  17
BRANCH   1  27
ATOM     26  O   UNL     1      32.436 -22.074 -13.992  0.00  0.00    -0.275 OA
ATOM     27  N   UNL     1      34.277 -23.047 -15.020  0.00  0.00    -0.299 N 
ATOM     28  C   UNL     1      32.925 -22.939 -14.714  0.00  0.00    +0.227 C 
ATOM     29  H   UNL     1      34.571 -23.778 -15.609  0.00  0.00    +0.150 HD
BRANCH  28  30
ATOM     30  C   UNL     1      32.109 -24.026 -15.388  0.00  0.00    +0.111 C 
BRANCH  30  31
ATOM     31  C   UNL     1      30.636 -23.717 -15.445  0.00  0.00    -0.013 C 
ATOM     32  C   UNL     1      29.722 -24.560 -14.813  0.00  0.00    -0.004 C 
ATOM     33  C   UNL     1      30.185 -22.589 -16.130  0.00  0.00    -0.004 C 
ATOM     34  C   UNL     1      28.358 -24.274 -14.865  0.00  0.00    -0.000 C 
ATOM     35  C   UNL     1      28.821 -22.303 -16.182  0.00  0.00    -0.000 C 
ATOM     36  C   UNL     1      27.907 -23.145 -15.549  0.00  0.00    -0.000 C 
ENDBRANCH  30  31
ENDBRANCH  28  30
ENDBRANCH   1  27
TORSDOF 9
ENDMDL
MODEL 6
REMARK VINA RESULT:     -10.3      2.268      7.153
REMARK  Name = 446136
REMARK  9 active torsions:
REMARK  status: ('A' for Active; 'I' for Inactive)
REMARK    1  A    between atoms: C_1  and  C_6
REMARK    2  A    between atoms: C_1  and  C_17
REMARK    3  A    between atoms: C_1  and  N_27
REMARK    4  A    between atoms: CA_5  and  C_12
REMARK    5  A    between atoms: C_12  and  O_13
REMARK    6  A    between atoms: N_16  and  C_19
REMARK    7  A    between atoms: C_19  and  C_20
REMARK    8  A    between atoms: C_28  and  C_30
REMARK    9  A    between atoms: C_30  and  C_31
REMARK                            x       y       z     vdW  Elec       q    Type
REMARK                         _______ _______ _______ _____ _____    ______ ____
ROOT
ATOM      1  C   UNL     1      33.692 -24.053 -15.125  0.00  0.00    +0.139 C 
ENDROOT
BRANCH   1   6
ATOM      2  S   UNL     1      36.046 -25.422 -14.748  0.00  0.00    -0.164 S 
ATOM      3  N   UNL     1      34.887 -23.803 -12.965  0.00  0.00    +0.401 N 
ATOM      4  C   UNL     1      37.135 -24.432 -13.660  0.00  0.00    +0.030 C 
ATOM      5  CA  UNL     1      36.209 -23.259 -13.289  0.00  0.00    +0.050 C 
ATOM      6  C   UNL     1      34.514 -24.734 -14.036  0.00  0.00    +0.016 C 
ATOM      7  C   UNL     1      38.364 -23.964 -14.438  0.00  0.00    +0.009 C 
ATOM      8  C   UNL     1      37.553 -25.318 -12.478  0.00  0.00    +0.009 C 
ATOM      9  H1  UNL     1      34.204 -23.046 -12.910  0.00  0.00    -0.082 HD
ATOM     10  H2  UNL     1      34.907 -24.281 -12.065  0.00  0.00    -0.082 HD
BRANCH   5  12
ATOM     11  OXT UNL     1      37.595 -21.684 -12.090  0.00  0.00    -0.253 OA
ATOM     12  C   UNL     1      36.681 -22.497 -12.090  0.00  0.00    +0.294 C 
BRANCH  12  13
ATOM     13  O   UNL     1      35.956 -22.830 -10.994  0.00  0.00    -0.482 OA
ATOM     14  H   UNL     1      35.711 -23.722 -10.849  0.00  0.00    +0.295 HD
ENDBRANCH  12  13
ENDBRANCH   5  12
ENDBRANCH   1   6
BRANCH   1  17
ATOM     15  O   UNL     1      32.506 -22.113 -14.292  0.00  0.00    -0.273 OA
ATOM     16  N   UNL     1      31.446 -24.177 -14.246  0.00  0.00    -0.299 N 
ATOM     17  C   UNL     1      32.501 -23.320 -14.526  0.00  0.00    +0.239 C 
ATOM     18  H   UNL     1      31.540 -25.130 -14.473  0.00  0.00    +0.150 HD
BRANCH  16  19
ATOM     19  C   UNL     1      30.217 -23.727 -13.636  0.00  0.00    +0.116 C 
BRANCH  19  20
ATOM     20  C   UNL     1      29.184 -23.356 -14.660  0.00  0.00    -0.003 C 
ATOM     21  C   UNL     1      28.759 -24.299 -15.596  0.00  0.00    -0.003 C 
ATOM     22  C   UNL     1      28.647 -22.069 -14.676  0.00  0.00    -0.003 C 
ATOM     23  C   UNL     1      27.800 -23.955 -16.548  0.00  0.00    -0.000 C 
ATOM     24  C   UNL     1      27.687 -21.724 -15.627  0.00  0.00    -0.000 C 
ATOM     25  C   UNL     1      27.263 -22.668 -16.563  0.00  0.00    -0.000 C 
ENDBRANCH  19  20
ENDBRANCH  16  19
ENDBRANCH   1  17
BRANCH   1  27
ATOM     26  O   UNL     1      33.390 -23.323 -17.892  0.00  0.00    -0.275 OA
ATOM     27  N   UNL     1      34.483 -23.100 -15.856  0.00  0.00    -0.299 N 
ATOM     28  C   UNL     1      34.263 -22.810 -17.198  0.00  0.00    +0.227 C 
ATOM     29  H   UNL     1      35.212 -22.635 -15.385  0.00  0.00    +0.150 HD
BRANCH  28  30
ATOM     30  C   UNL     1      35.238 -21.768 -17.713  0.00  0.00    +0.111 C 
BRANCH  30  31
ATOM     31  C   UNL     1      34.713 -20.991 -18.891  0.00  0.00    -0.013 C 
ATOM     32  C   UNL     1      35.601 -20.345 -19.752  0.00  0.00    -0.004 C 
ATOM     33  C   UNL     1      33.339 -20.916 -19.122  0.00  0.00    -0.004 C 
ATOM     34  C   UNL     1      35.115 -19.625 -20.844  0.00  0.00    -0.000 C 
ATOM     35  C   UNL     1      32.853 -20.197 -20.214  0.00  0.00    -0.000 C 
ATOM     36  C   UNL     1      33.741 -19.551 -21.075  0.00  0.00    -0.000 C 
ENDBRANCH  30  31
ENDBRANCH  28  30
ENDBRANCH   1  27
TORSDOF 9
ENDMDL
MODEL 7
REMARK VINA RESULT:      -9.9      1.940      6.707
REMARK  Name = 446136
REMARK  9 active torsions:
REMARK  status: ('A' for Active; 'I' for Inactive)
REMARK    1  A    between atoms: C_1  and  C_6
REMARK    2  A    between atoms: C_1  and  C_17
REMARK    3  A    between atoms: C_1  and  N_27
REMARK    4  A    between atoms: CA_5  and  C_12
REMARK    5  A    between atoms: C_12  and  O_13
REMARK    6  A    between atoms: N_16  and  C_19
REMARK    7  A    between atoms: C_19  and  C_20
REMARK    8  A    between atoms: C_28  and  C_30
REMARK    9  A    between atoms: C_30  and  C_31
REMARK                            x       y       z     vdW  Elec       q    Type
REMARK                         _______ _______ _______ _____ _____    ______ ____
ROOT
ATOM      1  C   UNL     1      33.549 -22.595 -16.115  0.00  0.00    +0.139 C 
ENDROOT
BRANCH   1   6
ATOM      2  S   UNL     1      32.384 -23.880 -13.982  0.00  0.00    -0.164 S 
ATOM      3  N   UNL     1      31.132 -23.146 -16.226  0.00  0.00    +0.401 N 
ATOM      4  C   UNL     1      30.642 -23.339 -13.849  0.00  0.00    +0.030 C 
ATOM      5  CA  UNL     1      30.501 -22.453 -15.100  0.00  0.00    +0.050 C 
ATOM      6  C   UNL     1      32.454 -23.604 -15.784  0.00  0.00    +0.016 C 
ATOM      7  C   UNL     1      30.440 -22.542 -12.559  0.00  0.00    +0.009 C 
ATOM      8  C   UNL     1      29.757 -24.593 -13.848  0.00  0.00    +0.009 C 
ATOM      9  H1  UNL     1      31.232 -22.507 -17.015  0.00  0.00    -0.082 HD
ATOM     10  H2  UNL     1      30.562 -23.936 -16.526  0.00  0.00    -0.082 HD
BRANCH   5  12
ATOM     11  OXT UNL     1      28.257 -21.616 -14.779  0.00  0.00    -0.253 OA
ATOM     12  C   UNL     1      29.076 -22.196 -15.478  0.00  0.00    +0.294 C 
BRANCH  12  13
ATOM     13  O   UNL     1      28.810 -22.695 -16.710  0.00  0.00    -0.482 OA
ATOM     14  H   UNL     1      28.742 -22.118 -17.445  0.00  0.00    +0.295 HD
ENDBRANCH  12  13
ENDBRANCH   5  12
ENDBRANCH   1   6
BRANCH   1  17
ATOM     15  O   UNL     1      35.319 -24.196 -15.709  0.00  0.00    -0.273 OA
ATOM     16  N   UNL     1      35.538 -22.047 -14.860  0.00  0.00    -0.299 N 
ATOM     17  C   UNL     1      34.891 -23.053 -15.565  0.00  0.00    +0.239 C 
ATOM     18  H   UNL     1      35.111 -21.162 -14.802  0.00  0.00    +0.150 HD
BRANCH  16  19
ATOM     19  C   UNL     1      36.811 -22.247 -14.207  0.00  0.00    +0.116 C 
BRANCH  19  20
ATOM     20  C   UNL     1      36.731 -23.284 -13.124  0.00  0.00    -0.003 C 
ATOM     21  C   UNL     1      37.579 -24.391 -13.154  0.00  0.00    -0.003 C 
ATOM     22  C   UNL     1      35.809 -23.139 -12.087  0.00  0.00    -0.003 C 
ATOM     23  C   UNL     1      37.505 -25.354 -12.147  0.00  0.00    -0.000 C 
ATOM     24  C   UNL     1      35.735 -24.102 -11.080  0.00  0.00    -0.000 C 
ATOM     25  C   UNL     1      36.583 -25.209 -11.110  0.00  0.00    -0.000 C 
ENDBRANCH  19  20
ENDBRANCH  16  19
ENDBRANCH   1  17
BRANCH   1  27
ATOM     26  O   UNL     1      35.602 -21.115 -17.485  0.00  0.00    -0.275 OA
ATOM     27  N   UNL     1      33.683 -22.421 -17.537  0.00  0.00    -0.299 N 
ATOM     28  C   UNL     1      34.714 -21.685 -18.112  0.00  0.00    +0.227 C 
ATOM     29  H   UNL     1      33.017 -22.841 -18.126  0.00  0.00    +0.150 HD
BRANCH  28  30
ATOM     30  C   UNL     1      34.616 -21.671 -19.625  0.00  0.00    +0.111 C 
BRANCH  30  31
ATOM     31  C   UNL     1      34.908 -20.323 -20.229  0.00  0.00    -0.013 C 
ATOM     32  C   UNL     1      36.213 -19.831 -20.237  0.00  0.00    -0.004 C 
ATOM     33  C   UNL     1      33.874 -19.566 -20.780  0.00  0.00    -0.004 C 
ATOM     34  C   UNL     1      36.484 -18.582 -20.797  0.00  0.00    -0.000 C 
ATOM     35  C   UNL     1      34.145 -18.317 -21.340  0.00  0.00    -0.000 C 
ATOM     36  C   UNL     1      35.451 -17.826 -21.348  0.00  0.00    -0.000 C 
ENDBRANCH  30  31
ENDBRANCH  28  30
ENDBRANCH   1  27
TORSDOF 9
ENDMDL
MODEL 8
REMARK VINA RESULT:      -9.4      1.873      2.589
REMARK  Name = 446136
REMARK  9 active torsions:
REMARK  status: ('A' for Active; 'I' for Inactive)
REMARK    1  A    between atoms: C_1  and  C_6
REMARK    2  A    between atoms: C_1  and  C_17
REMARK    3  A    between atoms: C_1  and  N_27
REMARK    4  A    between atoms: CA_5  and  C_12
REMARK    5  A    between atoms: C_12  and  O_13
REMARK    6  A    between atoms: N_16  and  C_19
REMARK    7  A    between atoms: C_19  and  C_20
REMARK    8  A    between atoms: C_28  and  C_30
REMARK    9  A    between atoms: C_30  and  C_31
REMARK                            x       y       z     vdW  Elec       q    Type
REMARK                         _______ _______ _______ _____ _____    ______ ____
ROOT
ATOM      1  C   UNL     1      33.385 -22.855 -17.599  0.00  0.00    +0.139 C 
ENDROOT
BRANCH   1   6
ATOM      2  S   UNL     1      32.822 -24.101 -15.213  0.00  0.00    -0.164 S 
ATOM      3  N   UNL     1      31.011 -23.195 -16.958  0.00  0.00    +0.401 N 
ATOM      4  C   UNL     1      31.261 -23.417 -14.546  0.00  0.00    +0.030 C 
ATOM      5  CA  UNL     1      30.824 -22.484 -15.690  0.00  0.00    +0.050 C 
ATOM      6  C   UNL     1      32.358 -23.777 -16.947  0.00  0.00    +0.016 C 
ATOM      7  C   UNL     1      31.539 -22.646 -13.255  0.00  0.00    +0.009 C 
ATOM      8  C   UNL     1      30.309 -24.590 -14.275  0.00  0.00    +0.009 C 
ATOM      9  H1  UNL     1      30.922 -22.542 -17.738  0.00  0.00    -0.082 HD
ATOM     10  H2  UNL     1      30.307 -23.923 -17.068  0.00  0.00    -0.082 HD
BRANCH   5  12
ATOM     11  OXT UNL     1      28.790 -21.800 -14.579  0.00  0.00    -0.253 OA
ATOM     12  C   UNL     1      29.381 -22.094 -15.608  0.00  0.00    +0.294 C 
BRANCH  12  13
ATOM     13  O   UNL     1      28.809 -22.113 -16.837  0.00  0.00    -0.482 OA
ATOM     14  H   UNL     1      27.911 -22.360 -16.932  0.00  0.00    +0.295 HD
ENDBRANCH  12  13
ENDBRANCH   5  12
ENDBRANCH   1   6
BRANCH   1  17
ATOM     15  O   UNL     1      31.582 -21.294 -18.023  0.00  0.00    -0.273 OA
ATOM     16  N   UNL     1      33.458 -21.236 -19.388  0.00  0.00    -0.299 N 
ATOM     17  C   UNL     1      32.698 -21.711 -18.329  0.00  0.00    +0.239 C 
ATOM     18  H   UNL     1      34.342 -21.636 -19.552  0.00  0.00    +0.150 HD
BRANCH  16  19
ATOM     19  C   UNL     1      33.006 -20.176 -20.260  0.00  0.00    +0.116 C 
BRANCH  19  20
ATOM     20  C   UNL     1      34.151 -19.448 -20.901  0.00  0.00    -0.003 C 
ATOM     21  C   UNL     1      33.962 -18.774 -22.108  0.00  0.00    -0.003 C 
ATOM     22  C   UNL     1      35.405 -19.443 -20.290  0.00  0.00    -0.003 C 
ATOM     23  C   UNL     1      35.025 -18.096 -22.704  0.00  0.00    -0.000 C 
ATOM     24  C   UNL     1      36.469 -18.765 -20.884  0.00  0.00    -0.000 C 
ATOM     25  C   UNL     1      36.279 -18.092 -22.091  0.00  0.00    -0.000 C 
ENDBRANCH  19  20
ENDBRANCH  16  19
ENDBRANCH   1  17
BRANCH   1  27
ATOM     26  O   UNL     1      36.058 -21.890 -18.049  0.00  0.00    -0.275 OA
ATOM     27  N   UNL     1      34.273 -22.292 -16.619  0.00  0.00    -0.299 N 
ATOM     28  C   UNL     1      35.555 -21.850 -16.930  0.00  0.00    +0.227 C 
ATOM     29  H   UNL     1      33.961 -22.217 -15.689  0.00  0.00    +0.150 HD
BRANCH  28  30
ATOM     30  C   UNL     1      36.269 -21.299 -15.711  0.00  0.00    +0.111 C 
BRANCH  30  31
ATOM     31  C   UNL     1      36.912 -22.364 -14.864  0.00  0.00    -0.013 C 
ATOM     32  C   UNL     1      36.454 -22.594 -13.567  0.00  0.00    -0.004 C 
ATOM     33  C   UNL     1      37.967 -23.121 -15.376  0.00  0.00    -0.004 C 
ATOM     34  C   UNL     1      37.050 -23.582 -12.782  0.00  0.00    -0.000 C 
ATOM     35  C   UNL     1      38.562 -24.109 -14.591  0.00  0.00    -0.000 C 
ATOM     36  C   UNL     1      38.104 -24.340 -13.294  0.00  0.00    -0.000 C 
ENDBRANCH  30  31
ENDBRANCH  28  30
ENDBRANCH   1  27
TORSDOF 9
ENDMDL
MODEL 9
REMARK VINA RESULT:      -8.5     12.802     17.475
REMARK  Name = 446136
REMARK  9 active torsions:
REMARK  status: ('A' for Active; 'I' for Inactive)
REMARK    1  A    between atoms: C_1  and  C_6
REMARK    2  A    between atoms: C_1  and  C_17
REMARK    3  A    between atoms: C_1  and  N_27
REMARK    4  A    between atoms: CA_5  and  C_12
REMARK    5  A    between atoms: C_12  and  O_13
REMARK    6  A    between atoms: N_16  and  C_19
REMARK    7  A    between atoms: C_19  and  C_20
REMARK    8  A    between atoms: C_28  and  C_30
REMARK    9  A    between atoms: C_30  and  C_31
REMARK                            x       y       z     vdW  Elec       q    Type
REMARK                         _______ _______ _______ _____ _____    ______ ____
ROOT
ATOM      1  C   UNL     1      32.292  -8.808 -22.392  0.00  0.00    +0.139 C 
ENDROOT
BRANCH   1   6
ATOM      2  S   UNL     1      31.405  -7.339 -20.243  0.00  0.00    -0.164 S 
ATOM      3  N   UNL     1      30.962  -6.756 -22.814  0.00  0.00    +0.401 N 
ATOM      4  C   UNL     1      31.349  -5.573 -20.720  0.00  0.00    +0.030 C 
ATOM      5  CA  UNL     1      31.714  -5.650 -22.214  0.00  0.00    +0.050 C 
ATOM      6  C   UNL     1      31.128  -7.928 -21.947  0.00  0.00    +0.016 C 
ATOM      7  C   UNL     1      32.385  -4.784 -19.919  0.00  0.00    +0.009 C 
ATOM      8  C   UNL     1      29.935  -5.051 -20.431  0.00  0.00    +0.009 C 
ATOM      9  H1  UNL     1      31.327  -6.958 -23.745  0.00  0.00    -0.082 HD
ATOM     10  H2  UNL     1      29.976  -6.512 -22.902  0.00  0.00    -0.082 HD
BRANCH   5  12
ATOM     11  OXT UNL     1      31.913  -3.327 -22.847  0.00  0.00    -0.253 OA
ATOM     12  C   UNL     1      31.355  -4.408 -22.968  0.00  0.00    +0.294 C 
BRANCH  12  13
ATOM     13  O   UNL     1      30.319  -4.642 -23.810  0.00  0.00    -0.482 OA
ATOM     14  H   UNL     1      30.295  -5.430 -24.316  0.00  0.00    +0.295 HD
ENDBRANCH  12  13
ENDBRANCH   5  12
ENDBRANCH   1   6
BRANCH   1  17
ATOM     15  O   UNL     1      30.722 -10.651 -22.344  0.00  0.00    -0.273 OA
ATOM     16  N   UNL     1      32.769 -10.952 -23.396  0.00  0.00    -0.299 N 
ATOM     17  C   UNL     1      31.815 -10.219 -22.703  0.00  0.00    +0.239 C 
ATOM     18  H   UNL     1      33.616 -10.513 -23.639  0.00  0.00    +0.150 HD
BRANCH  16  19
ATOM     19  C   UNL     1      32.569 -12.331 -23.774  0.00  0.00    +0.116 C 
BRANCH  19  20
ATOM     20  C   UNL     1      33.096 -13.280 -22.737  0.00  0.00    -0.003 C 
ATOM     21  C   UNL     1      32.820 -13.062 -21.386  0.00  0.00    -0.003 C 
ATOM     22  C   UNL     1      33.861 -14.381 -23.122  0.00  0.00    -0.003 C 
ATOM     23  C   UNL     1      33.309 -13.944 -20.423  0.00  0.00    -0.000 C 
ATOM     24  C   UNL     1      34.351 -15.263 -22.159  0.00  0.00    -0.000 C 
ATOM     25  C   UNL     1      34.074 -15.045 -20.810  0.00  0.00    -0.000 C 
ENDBRANCH  19  20
ENDBRANCH  16  19
ENDBRANCH   1  17
BRANCH   1  27
ATOM     26  O   UNL     1      34.601  -7.093 -22.484  0.00  0.00    -0.275 OA
ATOM     27  N   UNL     1      32.925  -8.278 -23.570  0.00  0.00    -0.299 N 
ATOM     28  C   UNL     1      34.043  -7.452 -23.517  0.00  0.00    +0.227 C 
ATOM     29  H   UNL     1      32.550  -8.509 -24.449  0.00  0.00    +0.150 HD
BRANCH  28  30
ATOM     30  C   UNL     1      34.504  -7.045 -24.904  0.00  0.00    +0.111 C 
BRANCH  30  31
ATOM     31  C   UNL     1      33.857  -5.779 -25.399  0.00  0.00    -0.013 C 
ATOM     32  C   UNL     1      34.438  -4.543 -25.118  0.00  0.00    -0.004 C 
ATOM     33  C   UNL     1      32.676  -5.842 -26.138  0.00  0.00    -0.004 C 
ATOM     34  C   UNL     1      33.839  -3.369 -25.577  0.00  0.00    -0.000 C 
ATOM     35  C   UNL     1      32.077  -4.669 -26.598  0.00  0.00    -0.000 C 
ATOM     36  C   UNL     1      32.658  -3.432 -26.317  0.00  0.00    -0.000 C 
ENDBRANCH  30  31
ENDBRANCH  28  30
ENDBRANCH   1  27
TORSDOF 9
ENDMDL
