MODEL 1
REMARK VINA RESULT:     -11.7      0.000      0.000
REMARK  Name = 59472121
REMARK  7 active torsions:
REMARK  status: ('A' for Active; 'I' for Inactive)
REMARK    1  A    between atoms: C_4  and  C_13
REMARK    2  A    between atoms: C_5  and  C_24
REMARK    3  A    between atoms: C_10  and  S_16
REMARK    4  A    between atoms: S_16  and  C_19
REMARK    5  A    between atoms: C_25  and  C_27
REMARK    6  A    between atoms: C_28  and  C_33
REMARK    7  A    between atoms: C_33  and  N_34
REMARK                            x       y       z     vdW  Elec       q    Type
REMARK                         _______ _______ _______ _____ _____    ______ ____
ROOT
ATOM      1  N   UNL     1      33.288 -14.618 -23.051  0.00  0.00    -0.398 NA
ATOM      2  N   UNL     1      33.374 -14.833 -25.846  0.00  0.00    -0.247 NA
ATOM      3  N   UNL     1      32.573 -12.606 -26.025  0.00  0.00    -0.341 N 
ATOM      4  C   UNL     1      33.695 -15.745 -23.668  0.00  0.00    +0.134 C 
ATOM      5  C   UNL     1      32.924 -13.601 -23.856  0.00  0.00    +0.198 C 
ATOM      6  C   UNL     1      33.738 -15.850 -25.041  0.00  0.00    +0.185 C 
ATOM      7  C   UNL     1      32.966 -13.706 -25.229  0.00  0.00    +0.154 C 
ATOM      8  H   UNL     1      32.600 -12.674 -27.007  0.00  0.00    +0.144 HD
ATOM      9  H   UNL     1      32.271 -11.772 -25.598  0.00  0.00    +0.144 HD
ENDROOT
BRANCH   4  13
ATOM     10  C   UNL     1      34.838 -18.939 -21.129  0.00  0.00    +0.106 C 
ATOM     11  C   UNL     1      34.988 -17.620 -20.702  0.00  0.00    +0.018 C 
ATOM     12  C   UNL     1      34.312 -19.207 -22.394  0.00  0.00    +0.018 C 
ATOM     13  C   UNL     1      34.086 -16.837 -22.801  0.00  0.00    +0.027 C 
ATOM     14  C   UNL     1      34.612 -16.568 -21.538  0.00  0.00    +0.004 C 
ATOM     15  C   UNL     1      33.936 -18.156 -23.229  0.00  0.00    +0.004 C 
BRANCH  10  16
ATOM     16  S   UNL     1      35.316 -20.271 -20.072  0.00  0.00    +0.007 S 
ATOM     17  O   UNL     1      35.597 -21.426 -20.901  0.00  0.00    -0.169 OA
ATOM     18  O   UNL     1      36.318 -19.755 -19.160  0.00  0.00    -0.169 OA
BRANCH  16  19
ATOM     19  C   UNL     1      33.844 -20.623 -19.147  0.00  0.00    +0.134 C 
ATOM     20  C   UNL     1      32.611 -20.340 -19.992  0.00  0.00    +0.026 C 
ATOM     21  C   UNL     1      33.863 -22.063 -18.655  0.00  0.00    +0.026 C 
ENDBRANCH  16  19
ENDBRANCH  10  16
ENDBRANCH   4  13
BRANCH   5  24
ATOM     22  O   UNL     1      31.511 -12.601 -22.239  0.00  0.00    -0.351 OA
ATOM     23  N   UNL     1      31.202 -11.382 -21.648  0.00  0.00    -0.077 NA
ATOM     24  C   UNL     1      32.496 -12.418 -23.155  0.00  0.00    +0.209 C 
ATOM     25  C   UNL     1      32.016 -10.498 -22.232  0.00  0.00    +0.123 C 
ATOM     26  C   UNL     1      32.853 -11.096 -23.190  0.00  0.00    +0.065 C 
BRANCH  25  27
ATOM     27  C   UNL     1      31.978  -9.109 -21.863  0.00  0.00    +0.021 C 
ATOM     28  C   UNL     1      31.905  -6.413 -21.149  0.00  0.00    -0.044 C 
ATOM     29  C   UNL     1      32.504  -8.144 -22.723  0.00  0.00    +0.001 C 
ATOM     30  C   UNL     1      31.414  -8.725 -20.646  0.00  0.00    +0.001 C 
ATOM     31  C   UNL     1      32.469  -6.797 -22.365  0.00  0.00    -0.006 C 
ATOM     32  C   UNL     1      31.378  -7.377 -20.289  0.00  0.00    -0.006 C 
BRANCH  28  33
ATOM     33  C   UNL     1      31.867  -4.972 -20.766  0.00  0.00    -0.054 C 
BRANCH  33  34
ATOM     34  N   UNL     1      30.500  -4.460 -20.661  0.00  0.00    +0.385 N 
ATOM     35  C   UNL     1      30.102  -3.802 -21.895  0.00  0.00    -0.105 C 
ATOM     36  H   UNL     1      30.451  -3.789 -19.893  0.00  0.00    -0.084 HD
ATOM     37  H   UNL     1      29.868  -5.242 -20.488  0.00  0.00    -0.084 HD
ENDBRANCH  33  34
ENDBRANCH  28  33
ENDBRANCH  25  27
ENDBRANCH   5  24
TORSDOF 7
ENDMDL
MODEL 2
REMARK VINA RESULT:     -11.3      5.252      9.862
REMARK  Name = 59472121
REMARK  7 active torsions:
REMARK  status: ('A' for Active; 'I' for Inactive)
REMARK    1  A    between atoms: C_4  and  C_13
REMARK    2  A    between atoms: C_5  and  C_24
REMARK    3  A    between atoms: C_10  and  S_16
REMARK    4  A    between atoms: S_16  and  C_19
REMARK    5  A    between atoms: C_25  and  C_27
REMARK    6  A    between atoms: C_28  and  C_33
REMARK    7  A    between atoms: C_33  and  N_34
REMARK                            x       y       z     vdW  Elec       q    Type
REMARK                         _______ _______ _______ _____ _____    ______ ____
ROOT
ATOM      1  N   UNL     1      34.631 -21.880 -17.545  0.00  0.00    -0.398 NA
ATOM      2  N   UNL     1      31.989 -22.797 -17.327  0.00  0.00    -0.247 NA
ATOM      3  N   UNL     1      31.383 -21.437 -19.175  0.00  0.00    -0.341 N 
ATOM      4  C   UNL     1      34.258 -22.766 -16.600  0.00  0.00    +0.134 C 
ATOM      5  C   UNL     1      33.659 -21.461 -18.379  0.00  0.00    +0.198 C 
ATOM      6  C   UNL     1      32.961 -23.216 -16.493  0.00  0.00    +0.185 C 
ATOM      7  C   UNL     1      32.361 -21.911 -18.273  0.00  0.00    +0.154 C 
ATOM      8  H   UNL     1      30.453 -21.754 -19.104  0.00  0.00    +0.144 HD
ATOM      9  H   UNL     1      31.629 -20.790 -19.874  0.00  0.00    +0.144 HD
ENDROOT
BRANCH   4  13
ATOM     10  C   UNL     1      37.320 -24.078 -13.982  0.00  0.00    +0.106 C 
ATOM     11  C   UNL     1      37.438 -22.851 -14.634  0.00  0.00    +0.018 C 
ATOM     12  C   UNL     1      36.193 -24.874 -14.192  0.00  0.00    +0.018 C 
ATOM     13  C   UNL     1      35.304 -23.214 -15.705  0.00  0.00    +0.027 C 
ATOM     14  C   UNL     1      36.430 -22.419 -15.496  0.00  0.00    +0.004 C 
ATOM     15  C   UNL     1      35.185 -24.442 -15.053  0.00  0.00    +0.004 C 
BRANCH  10  16
ATOM     16  S   UNL     1      38.597 -24.627 -12.891  0.00  0.00    +0.007 S 
ATOM     17  O   UNL     1      38.961 -23.519 -12.030  0.00  0.00    -0.169 OA
ATOM     18  O   UNL     1      38.163 -25.889 -12.326  0.00  0.00    -0.169 OA
BRANCH  16  19
ATOM     19  C   UNL     1      39.969 -24.938 -13.970  0.00  0.00    +0.134 C 
ATOM     20  C   UNL     1      40.634 -26.258 -13.610  0.00  0.00    +0.026 C 
ATOM     21  C   UNL     1      39.512 -24.923 -15.421  0.00  0.00    +0.026 C 
ENDBRANCH  16  19
ENDBRANCH  10  16
ENDBRANCH   4  13
BRANCH   5  24
ATOM     22  O   UNL     1      35.446 -20.395 -19.511  0.00  0.00    -0.351 OA
ATOM     23  N   UNL     1      35.722 -19.455 -20.496  0.00  0.00    -0.077 NA
ATOM     24  C   UNL     1      34.101 -20.517 -19.373  0.00  0.00    +0.209 C 
ATOM     25  C   UNL     1      34.526 -19.038 -20.921  0.00  0.00    +0.123 C 
ATOM     26  C   UNL     1      33.469 -19.674 -20.248  0.00  0.00    +0.065 C 
BRANCH  25  27
ATOM     27  C   UNL     1      34.420 -18.046 -21.958  0.00  0.00    +0.021 C 
ATOM     28  C   UNL     1      34.214 -16.122 -23.967  0.00  0.00    -0.044 C 
ATOM     29  C   UNL     1      34.750 -16.718 -21.689  0.00  0.00    +0.001 C 
ATOM     30  C   UNL     1      33.987 -18.413 -23.233  0.00  0.00    +0.001 C 
ATOM     31  C   UNL     1      34.646 -15.756 -22.693  0.00  0.00    -0.006 C 
ATOM     32  C   UNL     1      33.884 -17.451 -24.237  0.00  0.00    -0.006 C 
BRANCH  28  33
ATOM     33  C   UNL     1      34.103 -15.093 -25.042  0.00  0.00    -0.054 C 
BRANCH  33  34
ATOM     34  N   UNL     1      32.793 -14.440 -25.054  0.00  0.00    +0.385 N 
ATOM     35  C   UNL     1      32.878 -13.109 -24.475  0.00  0.00    -0.105 C 
ATOM     36  H   UNL     1      32.134 -15.000 -24.512  0.00  0.00    -0.084 HD
ATOM     37  H   UNL     1      32.476 -14.358 -26.020  0.00  0.00    -0.084 HD
ENDBRANCH  33  34
ENDBRANCH  28  33
ENDBRANCH  25  27
ENDBRANCH   5  24
TORSDOF 7
ENDMDL
MODEL 3
REMARK VINA RESULT:     -11.2      2.444      3.759
REMARK  Name = 59472121
REMARK  7 active torsions:
REMARK  status: ('A' for Active; 'I' for Inactive)
REMARK    1  A    between atoms: C_4  and  C_13
REMARK    2  A    between atoms: C_5  and  C_24
REMARK    3  A    between atoms: C_10  and  S_16
REMARK    4  A    between atoms: S_16  and  C_19
REMARK    5  A    between atoms: C_25  and  C_27
REMARK    6  A    between atoms: C_28  and  C_33
REMARK    7  A    between atoms: C_33  and  N_34
REMARK                            x       y       z     vdW  Elec       q    Type
REMARK                         _______ _______ _______ _____ _____    ______ ____
ROOT
ATOM      1  N   UNL     1      33.978 -17.554 -21.242  0.00  0.00    -0.398 NA
ATOM      2  N   UNL     1      34.884 -18.264 -23.799  0.00  0.00    -0.247 NA
ATOM      3  N   UNL     1      34.718 -15.993 -24.470  0.00  0.00    -0.341 N 
ATOM      4  C   UNL     1      34.285 -18.827 -21.563  0.00  0.00    +0.134 C 
ATOM      5  C   UNL     1      34.131 -16.643 -22.223  0.00  0.00    +0.198 C 
ATOM      6  C   UNL     1      34.731 -19.175 -22.819  0.00  0.00    +0.185 C 
ATOM      7  C   UNL     1      34.576 -16.991 -23.479  0.00  0.00    +0.154 C 
ATOM      8  H   UNL     1      35.035 -16.234 -25.370  0.00  0.00    +0.144 HD
ATOM      9  H   UNL     1      34.500 -15.056 -24.261  0.00  0.00    +0.144 HD
ENDROOT
BRANCH   4  13
ATOM     10  C   UNL     1      33.802 -21.687 -18.475  0.00  0.00    +0.106 C 
ATOM     11  C   UNL     1      35.081 -21.326 -18.897  0.00  0.00    +0.018 C 
ATOM     12  C   UNL     1      32.681 -21.106 -19.069  0.00  0.00    +0.018 C 
ATOM     13  C   UNL     1      34.120 -19.804 -20.508  0.00  0.00    +0.027 C 
ATOM     14  C   UNL     1      35.240 -20.384 -19.914  0.00  0.00    +0.004 C 
ATOM     15  C   UNL     1      32.840 -20.164 -20.086  0.00  0.00    +0.004 C 
BRANCH  10  16
ATOM     16  S   UNL     1      33.599 -22.880 -17.188  0.00  0.00    +0.007 S 
ATOM     17  O   UNL     1      33.060 -24.090 -17.776  0.00  0.00    -0.169 OA
ATOM     18  O   UNL     1      34.839 -22.913 -16.437  0.00  0.00    -0.169 OA
BRANCH  16  19
ATOM     19  C   UNL     1      32.338 -22.179 -16.158  0.00  0.00    +0.134 C 
ATOM     20  C   UNL     1      30.964 -22.642 -16.620  0.00  0.00    +0.026 C 
ATOM     21  C   UNL     1      32.586 -22.541 -14.701  0.00  0.00    +0.026 C 
ENDBRANCH  16  19
ENDBRANCH  10  16
ENDBRANCH   4  13
BRANCH   5  24
ATOM     22  O   UNL     1      34.254 -14.899 -20.624  0.00  0.00    -0.351 OA
ATOM     23  N   UNL     1      33.850 -13.591 -20.387  0.00  0.00    -0.077 NA
ATOM     24  C   UNL     1      33.791 -15.298 -21.837  0.00  0.00    +0.209 C 
ATOM     25  C   UNL     1      33.153 -13.242 -21.471  0.00  0.00    +0.123 C 
ATOM     26  C   UNL     1      33.084 -14.279 -22.418  0.00  0.00    +0.065 C 
BRANCH  25  27
ATOM     27  C   UNL     1      32.572 -11.931 -21.581  0.00  0.00    +0.021 C 
ATOM     28  C   UNL     1      31.447  -9.387 -21.795  0.00  0.00    -0.044 C 
ATOM     29  C   UNL     1      32.755 -11.182 -22.744  0.00  0.00    +0.001 C 
ATOM     30  C   UNL     1      31.825 -11.407 -20.525  0.00  0.00    +0.001 C 
ATOM     31  C   UNL     1      32.194  -9.910 -22.850  0.00  0.00    -0.006 C 
ATOM     32  C   UNL     1      31.263 -10.136 -20.632  0.00  0.00    -0.006 C 
BRANCH  28  33
ATOM     33  C   UNL     1      30.846  -8.026 -21.909  0.00  0.00    -0.054 C 
BRANCH  33  34
ATOM     34  N   UNL     1      31.318  -7.120 -20.861  0.00  0.00    +0.385 N 
ATOM     35  C   UNL     1      32.666  -6.659 -21.151  0.00  0.00    -0.105 C 
ATOM     36  H   UNL     1      31.317  -7.611 -19.966  0.00  0.00    -0.084 HD
ATOM     37  H   UNL     1      30.696  -6.312 -20.821  0.00  0.00    -0.084 HD
ENDBRANCH  33  34
ENDBRANCH  28  33
ENDBRANCH  25  27
ENDBRANCH   5  24
TORSDOF 7
ENDMDL
MODEL 4
REMARK VINA RESULT:     -11.2      5.061     11.883
REMARK  Name = 59472121
REMARK  7 active torsions:
REMARK  status: ('A' for Active; 'I' for Inactive)
REMARK    1  A    between atoms: C_4  and  C_13
REMARK    2  A    between atoms: C_5  and  C_24
REMARK    3  A    between atoms: C_10  and  S_16
REMARK    4  A    between atoms: S_16  and  C_19
REMARK    5  A    between atoms: C_25  and  C_27
REMARK    6  A    between atoms: C_28  and  C_33
REMARK    7  A    between atoms: C_33  and  N_34
REMARK                            x       y       z     vdW  Elec       q    Type
REMARK                         _______ _______ _______ _____ _____    ______ ____
ROOT
ATOM      1  N   UNL     1      32.438  -8.942 -23.266  0.00  0.00    -0.398 NA
ATOM      2  N   UNL     1      30.950  -8.352 -20.963  0.00  0.00    -0.247 NA
ATOM      3  N   UNL     1      31.043 -10.639 -20.337  0.00  0.00    -0.341 N 
ATOM      4  C   UNL     1      32.018  -7.691 -22.987  0.00  0.00    +0.134 C 
ATOM      5  C   UNL     1      32.100  -9.892 -22.371  0.00  0.00    +0.198 C 
ATOM      6  C   UNL     1      31.287  -7.402 -21.856  0.00  0.00    +0.185 C 
ATOM      7  C   UNL     1      31.369  -9.603 -21.240  0.00  0.00    +0.154 C 
ATOM      8  H   UNL     1      30.520 -10.440 -19.526  0.00  0.00    +0.144 HD
ATOM      9  H   UNL     1      31.338 -11.561 -20.517  0.00  0.00    +0.144 HD
ENDROOT
BRANCH   4  13
ATOM     10  C   UNL     1      33.084  -4.709 -25.802  0.00  0.00    +0.106 C 
ATOM     11  C   UNL     1      33.842  -4.878 -24.643  0.00  0.00    +0.018 C 
ATOM     12  C   UNL     1      31.974  -5.522 -26.034  0.00  0.00    +0.018 C 
ATOM     13  C   UNL     1      32.382  -6.673 -23.949  0.00  0.00    +0.027 C 
ATOM     14  C   UNL     1      33.491  -5.860 -23.716  0.00  0.00    +0.004 C 
ATOM     15  C   UNL     1      31.623  -6.504 -25.108  0.00  0.00    +0.004 C 
BRANCH  10  16
ATOM     16  S   UNL     1      33.527  -3.465 -26.975  0.00  0.00    +0.007 S 
ATOM     17  O   UNL     1      32.313  -2.985 -27.604  0.00  0.00    -0.169 OA
ATOM     18  O   UNL     1      34.424  -2.545 -26.304  0.00  0.00    -0.169 OA
BRANCH  16  19
ATOM     19  C   UNL     1      34.449  -4.353 -28.203  0.00  0.00    +0.134 C 
ATOM     20  C   UNL     1      35.559  -5.161 -27.546  0.00  0.00    +0.026 C 
ATOM     21  C   UNL     1      33.521  -5.242 -29.018  0.00  0.00    +0.026 C 
ENDBRANCH  16  19
ENDBRANCH  10  16
ENDBRANCH   4  13
BRANCH   5  24
ATOM     22  O   UNL     1      32.663 -11.482 -24.035  0.00  0.00    -0.351 OA
ATOM     23  N   UNL     1      33.122 -12.782 -24.206  0.00  0.00    -0.077 NA
ATOM     24  C   UNL     1      32.568 -11.212 -22.708  0.00  0.00    +0.209 C 
ATOM     25  C   UNL     1      33.290 -13.255 -22.968  0.00  0.00    +0.123 C 
ATOM     26  C   UNL     1      32.956 -12.308 -21.985  0.00  0.00    +0.065 C 
BRANCH  25  27
ATOM     27  C   UNL     1      33.766 -14.596 -22.753  0.00  0.00    +0.021 C 
ATOM     28  C   UNL     1      34.689 -17.195 -22.333  0.00  0.00    -0.044 C 
ATOM     29  C   UNL     1      34.094 -15.020 -21.465  0.00  0.00    +0.001 C 
ATOM     30  C   UNL     1      33.898 -15.472 -23.831  0.00  0.00    +0.001 C 
ATOM     31  C   UNL     1      34.557 -16.319 -21.255  0.00  0.00    -0.006 C 
ATOM     32  C   UNL     1      34.360 -16.770 -23.621  0.00  0.00    -0.006 C 
BRANCH  28  33
ATOM     33  C   UNL     1      35.183 -18.584 -22.108  0.00  0.00    -0.054 C 
BRANCH  33  34
ATOM     34  N   UNL     1      35.009 -19.020 -20.722  0.00  0.00    +0.385 N 
ATOM     35  C   UNL     1      33.773 -19.770 -20.571  0.00  0.00    -0.105 C 
ATOM     36  H   UNL     1      34.980 -18.200 -20.114  0.00  0.00    -0.084 HD
ATOM     37  H   UNL     1      35.792 -19.622 -20.466  0.00  0.00    -0.084 HD
ENDBRANCH  33  34
ENDBRANCH  28  33
ENDBRANCH  25  27
ENDBRANCH   5  24
TORSDOF 7
ENDMDL
MODEL 5
REMARK VINA RESULT:     -10.6      3.857     11.282
REMARK  Name = 59472121
REMARK  7 active torsions:
REMARK  status: ('A' for Active; 'I' for Inactive)
REMARK    1  A    between atoms: C_4  and  C_13
REMARK    2  A    between atoms: C_5  and  C_24
REMARK    3  A    between atoms: C_10  and  S_16
REMARK    4  A    between atoms: S_16  and  C_19
REMARK    5  A    between atoms: C_25  and  C_27
REMARK    6  A    between atoms: C_28  and  C_33
REMARK    7  A    between atoms: C_33  and  N_34
REMARK                            x       y       z     vdW  Elec       q    Type
REMARK                         _______ _______ _______ _____ _____    ______ ____
ROOT
ATOM      1  N   UNL     1      34.094 -16.587 -22.678  0.00  0.00    -0.398 NA
ATOM      2  N   UNL     1      33.627 -17.868 -25.129  0.00  0.00    -0.247 NA
ATOM      3  N   UNL     1      34.365 -19.914 -24.180  0.00  0.00    -0.341 N 
ATOM      4  C   UNL     1      33.621 -15.923 -23.752  0.00  0.00    +0.134 C 
ATOM      5  C   UNL     1      34.329 -17.902 -22.852  0.00  0.00    +0.198 C 
ATOM      6  C   UNL     1      33.392 -16.553 -24.956  0.00  0.00    +0.185 C 
ATOM      7  C   UNL     1      34.100 -18.532 -24.055  0.00  0.00    +0.154 C 
ATOM      8  H   UNL     1      34.204 -20.371 -25.038  0.00  0.00    +0.144 HD
ATOM      9  H   UNL     1      34.711 -20.422 -23.411  0.00  0.00    +0.144 HD
ENDROOT
BRANCH   4  13
ATOM     10  C   UNL     1      32.885 -11.788 -23.199  0.00  0.00    +0.106 C 
ATOM     11  C   UNL     1      32.592 -12.391 -24.422  0.00  0.00    +0.018 C 
ATOM     12  C   UNL     1      33.421 -12.546 -22.158  0.00  0.00    +0.018 C 
ATOM     13  C   UNL     1      33.370 -14.510 -23.563  0.00  0.00    +0.027 C 
ATOM     14  C   UNL     1      32.835 -13.753 -24.604  0.00  0.00    +0.004 C 
ATOM     15  C   UNL     1      33.663 -13.907 -22.339  0.00  0.00    +0.004 C 
BRANCH  10  16
ATOM     16  S   UNL     1      32.579 -10.063 -22.969  0.00  0.00    +0.007 S 
ATOM     17  O   UNL     1      33.858  -9.384 -22.898  0.00  0.00    -0.169 OA
ATOM     18  O   UNL     1      31.588  -9.670 -23.950  0.00  0.00    -0.169 OA
BRANCH  16  19
ATOM     19  C   UNL     1      31.840  -9.977 -21.359  0.00  0.00    +0.134 C 
ATOM     20  C   UNL     1      31.681  -8.526 -20.930  0.00  0.00    +0.026 C 
ATOM     21  C   UNL     1      30.507 -10.709 -21.352  0.00  0.00    +0.026 C 
ENDBRANCH  16  19
ENDBRANCH  10  16
ENDBRANCH   4  13
BRANCH   5  24
ATOM     22  O   UNL     1      36.083 -18.212 -21.289  0.00  0.00    -0.351 OA
ATOM     23  N   UNL     1      36.434 -18.935 -20.156  0.00  0.00    -0.077 NA
ATOM     24  C   UNL     1      34.833 -18.571 -21.680  0.00  0.00    +0.209 C 
ATOM     25  C   UNL     1      35.378 -19.711 -19.899  0.00  0.00    +0.123 C 
ATOM     26  C   UNL     1      34.339 -19.523 -20.828  0.00  0.00    +0.065 C 
BRANCH  25  27
ATOM     27  C   UNL     1      35.382 -20.610 -18.776  0.00  0.00    +0.021 C 
ATOM     28  C   UNL     1      35.394 -22.354 -16.598  0.00  0.00    -0.044 C 
ATOM     29  C   UNL     1      36.481 -20.647 -17.918  0.00  0.00    +0.001 C 
ATOM     30  C   UNL     1      34.288 -21.444 -18.545  0.00  0.00    +0.001 C 
ATOM     31  C   UNL     1      36.488 -21.520 -16.830  0.00  0.00    -0.006 C 
ATOM     32  C   UNL     1      34.294 -22.316 -17.456  0.00  0.00    -0.006 C 
BRANCH  28  33
ATOM     33  C   UNL     1      35.400 -23.286 -15.434  0.00  0.00    -0.054 C 
BRANCH  33  34
ATOM     34  N   UNL     1      36.740 -23.791 -15.133  0.00  0.00    +0.385 N 
ATOM     35  C   UNL     1      36.675 -25.156 -14.636  0.00  0.00    -0.105 C 
ATOM     36  H   UNL     1      37.171 -23.197 -14.423  0.00  0.00    -0.084 HD
ATOM     37  H   UNL     1      37.296 -23.780 -15.988  0.00  0.00    -0.084 HD
ENDBRANCH  33  34
ENDBRANCH  28  33
ENDBRANCH  25  27
ENDBRANCH   5  24
TORSDOF 7
ENDMDL
MODEL 6
REMARK VINA RESULT:     -10.6      3.493     11.023
REMARK  Name = 59472121
REMARK  7 active torsions:
REMARK  status: ('A' for Active; 'I' for Inactive)
REMARK    1  A    between atoms: C_4  and  C_13
REMARK    2  A    between atoms: C_5  and  C_24
REMARK    3  A    between atoms: C_10  and  S_16
REMARK    4  A    between atoms: S_16  and  C_19
REMARK    5  A    between atoms: C_25  and  C_27
REMARK    6  A    between atoms: C_28  and  C_33
REMARK    7  A    between atoms: C_33  and  N_34
REMARK                            x       y       z     vdW  Elec       q    Type
REMARK                         _______ _______ _______ _____ _____    ______ ____
ROOT
ATOM      1  N   UNL     1      33.496 -15.092 -22.767  0.00  0.00    -0.398 NA
ATOM      2  N   UNL     1      33.640 -15.605 -25.520  0.00  0.00    -0.247 NA
ATOM      3  N   UNL     1      34.389 -17.808 -25.053  0.00  0.00    -0.341 N 
ATOM      4  C   UNL     1      33.172 -14.160 -23.685  0.00  0.00    +0.134 C 
ATOM      5  C   UNL     1      33.893 -16.285 -23.250  0.00  0.00    +0.198 C 
ATOM      6  C   UNL     1      33.243 -14.412 -25.037  0.00  0.00    +0.185 C 
ATOM      7  C   UNL     1      33.965 -16.538 -24.603  0.00  0.00    +0.154 C 
ATOM      8  H   UNL     1      34.442 -17.996 -26.019  0.00  0.00    +0.144 HD
ATOM      9  H   UNL     1      34.631 -18.506 -24.403  0.00  0.00    +0.144 HD
ENDROOT
BRANCH   4  13
ATOM     10  C   UNL     1      31.922 -10.411 -22.157  0.00  0.00    +0.106 C 
ATOM     11  C   UNL     1      31.545 -11.588 -21.511  0.00  0.00    +0.018 C 
ATOM     12  C   UNL     1      32.710 -10.467 -23.307  0.00  0.00    +0.018 C 
ATOM     13  C   UNL     1      32.745 -12.878 -23.163  0.00  0.00    +0.027 C 
ATOM     14  C   UNL     1      31.957 -12.823 -22.014  0.00  0.00    +0.004 C 
ATOM     15  C   UNL     1      33.122 -11.701 -23.810  0.00  0.00    +0.004 C 
BRANCH  10  16
ATOM     16  S   UNL     1      31.400  -8.848 -21.521  0.00  0.00    +0.007 S 
ATOM     17  O   UNL     1      30.141  -8.501 -22.152  0.00  0.00    -0.169 OA
ATOM     18  O   UNL     1      31.508  -8.916 -20.077  0.00  0.00    -0.169 OA
BRANCH  16  19
ATOM     19  C   UNL     1      32.626  -7.717 -22.123  0.00  0.00    +0.134 C 
ATOM     20  C   UNL     1      32.172  -7.097 -23.436  0.00  0.00    +0.026 C 
ATOM     21  C   UNL     1      32.919  -6.652 -21.077  0.00  0.00    +0.026 C 
ENDBRANCH  16  19
ENDBRANCH  10  16
ENDBRANCH   4  13
BRANCH   5  24
ATOM     22  O   UNL     1      35.459 -17.114 -21.678  0.00  0.00    -0.351 OA
ATOM     23  N   UNL     1      35.644 -18.107 -20.725  0.00  0.00    -0.077 NA
ATOM     24  C   UNL     1      34.229 -17.251 -22.236  0.00  0.00    +0.209 C 
ATOM     25  C   UNL     1      34.511 -18.816 -20.740  0.00  0.00    +0.123 C 
ATOM     26  C   UNL     1      33.585 -18.320 -21.673  0.00  0.00    +0.065 C 
BRANCH  25  27
ATOM     27  C   UNL     1      34.339 -19.944 -19.865  0.00  0.00    +0.021 C 
ATOM     28  C   UNL     1      34.002 -22.133 -18.168  0.00  0.00    -0.044 C 
ATOM     29  C   UNL     1      33.065 -20.469 -19.647  0.00  0.00    +0.001 C 
ATOM     30  C   UNL     1      35.445 -20.515 -19.235  0.00  0.00    +0.001 C 
ATOM     31  C   UNL     1      32.896 -21.562 -18.798  0.00  0.00    -0.006 C 
ATOM     32  C   UNL     1      35.276 -21.609 -18.387  0.00  0.00    -0.006 C 
BRANCH  28  33
ATOM     33  C   UNL     1      33.822 -23.303 -17.260  0.00  0.00    -0.054 C 
BRANCH  33  34
ATOM     34  N   UNL     1      33.221 -22.927 -15.980  0.00  0.00    +0.385 N 
ATOM     35  C   UNL     1      34.249 -22.709 -14.975  0.00  0.00    -0.105 C 
ATOM     36  H   UNL     1      32.601 -23.675 -15.668  0.00  0.00    -0.084 HD
ATOM     37  H   UNL     1      32.696 -22.061 -16.105  0.00  0.00    -0.084 HD
ENDBRANCH  33  34
ENDBRANCH  28  33
ENDBRANCH  25  27
ENDBRANCH   5  24
TORSDOF 7
ENDMDL
MODEL 7
REMARK VINA RESULT:     -10.4      5.654     12.144
REMARK  Name = 59472121
REMARK  7 active torsions:
REMARK  status: ('A' for Active; 'I' for Inactive)
REMARK    1  A    between atoms: C_4  and  C_13
REMARK    2  A    between atoms: C_5  and  C_24
REMARK    3  A    between atoms: C_10  and  S_16
REMARK    4  A    between atoms: S_16  and  C_19
REMARK    5  A    between atoms: C_25  and  C_27
REMARK    6  A    between atoms: C_28  and  C_33
REMARK    7  A    between atoms: C_33  and  N_34
REMARK                            x       y       z     vdW  Elec       q    Type
REMARK                         _______ _______ _______ _____ _____    ______ ____
ROOT
ATOM      1  N   UNL     1      32.558  -7.384 -23.684  0.00  0.00    -0.398 NA
ATOM      2  N   UNL     1      31.800  -5.876 -21.444  0.00  0.00    -0.247 NA
ATOM      3  N   UNL     1      31.410  -7.886 -20.243  0.00  0.00    -0.341 N 
ATOM      4  C   UNL     1      32.555  -6.036 -23.698  0.00  0.00    +0.134 C 
ATOM      5  C   UNL     1      32.175  -7.964 -22.529  0.00  0.00    +0.198 C 
ATOM      6  C   UNL     1      32.183  -5.296 -22.598  0.00  0.00    +0.185 C 
ATOM      7  C   UNL     1      31.803  -7.224 -21.428  0.00  0.00    +0.154 C 
ATOM      8  H   UNL     1      31.143  -7.363 -19.453  0.00  0.00    +0.144 HD
ATOM      9  H   UNL     1      31.404  -8.869 -20.207  0.00  0.00    +0.144 HD
ENDROOT
BRANCH   4  13
ATOM     10  C   UNL     1      33.758  -4.220 -27.332  0.00  0.00    +0.106 C 
ATOM     11  C   UNL     1      32.462  -4.030 -26.853  0.00  0.00    +0.018 C 
ATOM     12  C   UNL     1      34.658  -5.009 -26.615  0.00  0.00    +0.018 C 
ATOM     13  C   UNL     1      32.966  -5.416 -24.940  0.00  0.00    +0.027 C 
ATOM     14  C   UNL     1      32.066  -4.628 -25.656  0.00  0.00    +0.004 C 
ATOM     15  C   UNL     1      34.262  -5.606 -25.419  0.00  0.00    +0.004 C 
BRANCH  10  16
ATOM     16  S   UNL     1      34.260  -3.464 -28.848  0.00  0.00    +0.007 S 
ATOM     17  O   UNL     1      33.178  -2.616 -29.309  0.00  0.00    -0.169 OA
ATOM     18  O   UNL     1      35.586  -2.919 -28.635  0.00  0.00    -0.169 OA
BRANCH  16  19
ATOM     19  C   UNL     1      34.387  -4.826 -29.976  0.00  0.00    +0.134 C 
ATOM     20  C   UNL     1      35.755  -5.482 -29.857  0.00  0.00    +0.026 C 
ATOM     21  C   UNL     1      33.268  -5.825 -29.726  0.00  0.00    +0.026 C 
ENDBRANCH  16  19
ENDBRANCH  10  16
ENDBRANCH   4  13
BRANCH   5  24
ATOM     22  O   UNL     1      31.102 -10.017 -22.031  0.00  0.00    -0.351 OA
ATOM     23  N   UNL     1      31.260 -11.394 -22.126  0.00  0.00    -0.077 NA
ATOM     24  C   UNL     1      32.194  -9.404 -22.558  0.00  0.00    +0.209 C 
ATOM     25  C   UNL     1      32.449 -11.567 -22.709  0.00  0.00    +0.123 C 
ATOM     26  C   UNL     1      33.082 -10.347 -23.003  0.00  0.00    +0.065 C 
BRANCH  25  27
ATOM     27  C   UNL     1      32.952 -12.889 -22.972  0.00  0.00    +0.021 C 
ATOM     28  C   UNL     1      33.930 -15.452 -23.481  0.00  0.00    -0.044 C 
ATOM     29  C   UNL     1      33.649 -13.580 -21.981  0.00  0.00    +0.001 C 
ATOM     30  C   UNL     1      32.743 -13.480 -24.218  0.00  0.00    +0.001 C 
ATOM     31  C   UNL     1      34.138 -14.860 -22.235  0.00  0.00    -0.006 C 
ATOM     32  C   UNL     1      33.232 -14.761 -24.473  0.00  0.00    -0.006 C 
BRANCH  28  33
ATOM     33  C   UNL     1      34.453 -16.822 -23.754  0.00  0.00    -0.054 C 
BRANCH  33  34
ATOM     34  N   UNL     1      35.273 -17.333 -22.655  0.00  0.00    +0.385 N 
ATOM     35  C   UNL     1      34.871 -18.685 -22.302  0.00  0.00    -0.105 C 
ATOM     36  H   UNL     1      35.160 -16.727 -21.842  0.00  0.00    -0.084 HD
ATOM     37  H   UNL     1      36.248 -17.348 -22.953  0.00  0.00    -0.084 HD
ENDBRANCH  33  34
ENDBRANCH  28  33
ENDBRANCH  25  27
ENDBRANCH   5  24
TORSDOF 7
ENDMDL
MODEL 8
REMARK VINA RESULT:     -10.1      3.560      5.913
REMARK  Name = 59472121
REMARK  7 active torsions:
REMARK  status: ('A' for Active; 'I' for Inactive)
REMARK    1  A    between atoms: C_4  and  C_13
REMARK    2  A    between atoms: C_5  and  C_24
REMARK    3  A    between atoms: C_10  and  S_16
REMARK    4  A    between atoms: S_16  and  C_19
REMARK    5  A    between atoms: C_25  and  C_27
REMARK    6  A    between atoms: C_28  and  C_33
REMARK    7  A    between atoms: C_33  and  N_34
REMARK                            x       y       z     vdW  Elec       q    Type
REMARK                         _______ _______ _______ _____ _____    ______ ____
ROOT
ATOM      1  N   UNL     1      34.313 -18.959 -20.333  0.00  0.00    -0.398 NA
ATOM      2  N   UNL     1      36.889 -19.947 -20.834  0.00  0.00    -0.247 NA
ATOM      3  N   UNL     1      37.343 -18.039 -22.170  0.00  0.00    -0.341 N 
ATOM      4  C   UNL     1      34.743 -20.127 -19.816  0.00  0.00    +0.134 C 
ATOM      5  C   UNL     1      35.194 -18.294 -21.105  0.00  0.00    +0.198 C 
ATOM      6  C   UNL     1      36.008 -20.612 -20.062  0.00  0.00    +0.185 C 
ATOM      7  C   UNL     1      36.460 -18.779 -21.352  0.00  0.00    +0.154 C 
ATOM      8  H   UNL     1      38.250 -18.380 -22.351  0.00  0.00    +0.144 HD
ATOM      9  H   UNL     1      37.053 -17.183 -22.560  0.00  0.00    +0.144 HD
ENDROOT
BRANCH   4  13
ATOM     10  C   UNL     1      31.965 -22.210 -17.388  0.00  0.00    +0.106 C 
ATOM     11  C   UNL     1      31.512 -21.304 -18.347  0.00  0.00    +0.018 C 
ATOM     12  C   UNL     1      33.333 -22.431 -17.229  0.00  0.00    +0.018 C 
ATOM     13  C   UNL     1      33.794 -20.839 -18.986  0.00  0.00    +0.027 C 
ATOM     14  C   UNL     1      32.426 -20.618 -19.146  0.00  0.00    +0.004 C 
ATOM     15  C   UNL     1      34.247 -21.746 -18.028  0.00  0.00    +0.004 C 
BRANCH  10  16
ATOM     16  S   UNL     1      30.807 -23.079 -16.375  0.00  0.00    +0.007 S 
ATOM     17  O   UNL     1      29.471 -22.717 -16.806  0.00  0.00    -0.169 OA
ATOM     18  O   UNL     1      31.222 -24.467 -16.345  0.00  0.00    -0.169 OA
BRANCH  16  19
ATOM     19  C   UNL     1      31.054 -22.384 -14.763  0.00  0.00    +0.134 C 
ATOM     20  C   UNL     1      29.720 -22.228 -14.047  0.00  0.00    +0.026 C 
ATOM     21  C   UNL     1      32.018 -23.245 -13.960  0.00  0.00    +0.026 C 
ENDBRANCH  16  19
ENDBRANCH  10  16
ENDBRANCH   4  13
BRANCH   5  24
ATOM     22  O   UNL     1      34.770 -16.916 -22.985  0.00  0.00    -0.351 OA
ATOM     23  N   UNL     1      34.257 -15.678 -23.351  0.00  0.00    -0.077 NA
ATOM     24  C   UNL     1      34.694 -17.052 -21.636  0.00  0.00    +0.209 C 
ATOM     25  C   UNL     1      33.887 -15.104 -22.203  0.00  0.00    +0.123 C 
ATOM     26  C   UNL     1      34.139 -15.925 -21.090  0.00  0.00    +0.065 C 
BRANCH  25  27
ATOM     27  C   UNL     1      33.301 -13.791 -22.194  0.00  0.00    +0.021 C 
ATOM     28  C   UNL     1      32.166 -11.242 -22.178  0.00  0.00    -0.044 C 
ATOM     29  C   UNL     1      33.581 -12.895 -23.226  0.00  0.00    +0.001 C 
ATOM     30  C   UNL     1      32.452 -13.412 -21.154  0.00  0.00    +0.001 C 
ATOM     31  C   UNL     1      33.015 -11.621 -23.218  0.00  0.00    -0.006 C 
ATOM     32  C   UNL     1      31.884 -12.138 -21.146  0.00  0.00    -0.006 C 
BRANCH  28  33
ATOM     33  C   UNL     1      31.560  -9.879 -22.169  0.00  0.00    -0.054 C 
BRANCH  33  34
ATOM     34  N   UNL     1      32.344  -8.916 -22.942  0.00  0.00    +0.385 N 
ATOM     35  C   UNL     1      31.490  -7.867 -23.475  0.00  0.00    -0.105 C 
ATOM     36  H   UNL     1      32.802  -9.399 -23.716  0.00  0.00    -0.084 HD
ATOM     37  H   UNL     1      33.041  -8.492 -22.329  0.00  0.00    -0.084 HD
ENDBRANCH  33  34
ENDBRANCH  28  33
ENDBRANCH  25  27
ENDBRANCH   5  24
TORSDOF 7
ENDMDL
MODEL 9
REMARK VINA RESULT:     -10.1      3.107      5.125
REMARK  Name = 59472121
REMARK  7 active torsions:
REMARK  status: ('A' for Active; 'I' for Inactive)
REMARK    1  A    between atoms: C_4  and  C_13
REMARK    2  A    between atoms: C_5  and  C_24
REMARK    3  A    between atoms: C_10  and  S_16
REMARK    4  A    between atoms: S_16  and  C_19
REMARK    5  A    between atoms: C_25  and  C_27
REMARK    6  A    between atoms: C_28  and  C_33
REMARK    7  A    between atoms: C_33  and  N_34
REMARK                            x       y       z     vdW  Elec       q    Type
REMARK                         _______ _______ _______ _____ _____    ______ ____
ROOT
ATOM      1  N   UNL     1      34.470 -18.459 -20.580  0.00  0.00    -0.398 NA
ATOM      2  N   UNL     1      34.929 -19.657 -23.075  0.00  0.00    -0.247 NA
ATOM      3  N   UNL     1      34.557 -17.563 -24.129  0.00  0.00    -0.341 N 
ATOM      4  C   UNL     1      34.764 -19.769 -20.701  0.00  0.00    +0.134 C 
ATOM      5  C   UNL     1      34.409 -17.759 -21.730  0.00  0.00    +0.198 C 
ATOM      6  C   UNL     1      34.989 -20.357 -21.926  0.00  0.00    +0.185 C 
ATOM      7  C   UNL     1      34.634 -18.346 -22.956  0.00  0.00    +0.154 C 
ATOM      8  H   UNL     1      34.717 -17.977 -25.009  0.00  0.00    +0.144 HD
ATOM      9  H   UNL     1      34.344 -16.604 -24.069  0.00  0.00    +0.144 HD
ENDROOT
BRANCH   4  13
ATOM     10  C   UNL     1      34.952 -21.964 -17.081  0.00  0.00    +0.106 C 
ATOM     11  C   UNL     1      33.769 -21.934 -17.819  0.00  0.00    +0.018 C 
ATOM     12  C   UNL     1      36.075 -21.270 -17.535  0.00  0.00    +0.018 C 
ATOM     13  C   UNL     1      34.829 -20.519 -19.464  0.00  0.00    +0.027 C 
ATOM     14  C   UNL     1      33.707 -21.212 -19.011  0.00  0.00    +0.004 C 
ATOM     15  C   UNL     1      36.013 -20.548 -18.727  0.00  0.00    +0.004 C 
BRANCH  10  16
ATOM     16  S   UNL     1      35.031 -22.878 -15.572  0.00  0.00    +0.007 S 
ATOM     17  O   UNL     1      33.985 -22.390 -14.694  0.00  0.00    -0.169 OA
ATOM     18  O   UNL     1      35.102 -24.282 -15.925  0.00  0.00    -0.169 OA
BRANCH  16  19
ATOM     19  C   UNL     1      36.585 -22.397 -14.868  0.00  0.00    +0.134 C 
ATOM     20  C   UNL     1      36.507 -22.427 -13.349  0.00  0.00    +0.026 C 
ATOM     21  C   UNL     1      37.699 -23.295 -15.385  0.00  0.00    +0.026 C 
ENDBRANCH  16  19
ENDBRANCH  10  16
ENDBRANCH   4  13
BRANCH   5  24
ATOM     22  O   UNL     1      34.435 -15.829 -20.356  0.00  0.00    -0.351 OA
ATOM     23  N   UNL     1      34.070 -14.489 -20.331  0.00  0.00    -0.077 NA
ATOM     24  C   UNL     1      34.093 -16.364 -21.556  0.00  0.00    +0.209 C 
ATOM     25  C   UNL     1      33.516 -14.259 -21.525  0.00  0.00    +0.123 C 
ATOM     26  C   UNL     1      33.504 -15.406 -22.337  0.00  0.00    +0.065 C 
BRANCH  25  27
ATOM     27  C   UNL     1      33.014 -12.954 -21.862  0.00  0.00    +0.021 C 
ATOM     28  C   UNL     1      32.038 -10.423 -22.515  0.00  0.00    -0.044 C 
ATOM     29  C   UNL     1      32.013 -12.370 -21.086  0.00  0.00    +0.001 C 
ATOM     30  C   UNL     1      33.528 -12.271 -22.965  0.00  0.00    +0.001 C 
ATOM     31  C   UNL     1      31.524 -11.106 -21.413  0.00  0.00    -0.006 C 
ATOM     32  C   UNL     1      33.041 -11.007 -23.291  0.00  0.00    -0.006 C 
BRANCH  28  33
ATOM     33  C   UNL     1      31.516  -9.070 -22.865  0.00  0.00    -0.054 C 
BRANCH  33  34
ATOM     34  N   UNL     1      31.552  -8.149 -21.729  0.00  0.00    +0.385 N 
ATOM     35  C   UNL     1      32.672  -7.230 -21.849  0.00  0.00    -0.105 C 
ATOM     36  H   UNL     1      31.649  -8.685 -20.865  0.00  0.00    -0.084 HD
ATOM     37  H   UNL     1      30.686  -7.611 -21.715  0.00  0.00    -0.084 HD
ENDBRANCH  33  34
ENDBRANCH  28  33
ENDBRANCH  25  27
ENDBRANCH   5  24
TORSDOF 7
ENDMDL
