MODEL 1
REMARK VINA RESULT:     -11.4      0.000      0.000
REMARK  Name = 10150441
REMARK  5 active torsions:
REMARK  status: ('A' for Active; 'I' for Inactive)
REMARK    1  A    between atoms: N_1  and  C_23
REMARK    2  A    between atoms: C_3  and  C_10
REMARK    3  A    between atoms: C_10  and  C_16
REMARK    4  A    between atoms: C_23  and  C_25
REMARK    5  A    between atoms: C_25  and  O_26
REMARK                            x       y       z     vdW  Elec       q    Type
REMARK                         _______ _______ _______ _____ _____    ______ ____
ROOT
ATOM      1  N   UNL     1      33.853 -14.477 -21.593  0.00  0.00    -0.261 N 
ATOM      2  N   UNL     1      32.955 -13.226 -23.446  0.00  0.00    -0.229 NA
ATOM      3  C   UNL     1      34.538 -16.323 -22.630  0.00  0.00    +0.003 C 
ATOM      4  C   UNL     1      33.968 -15.454 -23.599  0.00  0.00    +0.030 C 
ATOM      5  C   UNL     1      33.551 -14.313 -22.920  0.00  0.00    +0.136 C 
ATOM      6  C   UNL     1      34.454 -15.695 -21.406  0.00  0.00    +0.063 C 
ATOM      7  C   UNL     1      33.753 -15.496 -24.985  0.00  0.00    +0.004 C 
ATOM      8  C   UNL     1      33.139 -14.397 -25.583  0.00  0.00    +0.021 C 
ATOM      9  C   UNL     1      32.772 -13.322 -24.784  0.00  0.00    +0.100 C 
ENDROOT
BRANCH   3  10
ATOM     10  C   UNL     1      35.120 -17.657 -22.879  0.00  0.00    +0.094 C 
BRANCH  10  16
ATOM     11  S   UNL     1      36.191 -19.268 -20.922  0.00  0.00    -0.055 S 
ATOM     12  F   UNL     1      31.465 -20.441 -20.150  0.00  0.00    -0.222 F 
ATOM     13  F   UNL     1      36.640 -21.330 -18.520  0.00  0.00    -0.204 F 
ATOM     14  F   UNL     1      31.999 -22.173 -18.113  0.00  0.00    -0.205 F 
ATOM     15  N   UNL     1      33.675 -19.064 -21.452  0.00  0.00    -0.400 NA
ATOM     16  C   UNL     1      34.859 -18.664 -21.767  0.00  0.00    +0.143 C 
ATOM     17  C   UNL     1      33.794 -19.969 -20.406  0.00  0.00    +0.156 C 
ATOM     18  C   UNL     1      35.102 -20.212 -19.976  0.00  0.00    +0.087 C 
ATOM     19  C   UNL     1      32.733 -20.644 -19.764  0.00  0.00    +0.262 C 
ATOM     20  C   UNL     1      35.384 -21.103 -18.928  0.00  0.00    +0.150 C 
ATOM     21  C   UNL     1      33.007 -21.532 -18.720  0.00  0.00    +0.159 C 
ATOM     22  C   UNL     1      34.316 -21.758 -18.310  0.00  0.00    +0.059 C 
ENDBRANCH  10  16
ENDBRANCH   3  10
BRANCH   1  23
ATOM     23  C   UNL     1      33.584 -13.520 -20.543  0.00  0.00    +0.207 C 
BRANCH  23  25
ATOM     24  O   UNL     1      31.518 -14.284 -19.502  0.00  0.00    -0.248 OA
ATOM     25  C   UNL     1      32.126 -13.467 -20.177  0.00  0.00    +0.335 C 
BRANCH  25  26
ATOM     26  O   UNL     1      31.554 -12.358 -20.713  0.00  0.00    -0.479 OA
ATOM     27  H   UNL     1      32.067 -11.772 -21.234  0.00  0.00    +0.295 HD
ENDBRANCH  25  26
ENDBRANCH  23  25
ENDBRANCH   1  23
TORSDOF 5
ENDMDL
MODEL 2
REMARK VINA RESULT:     -10.7      6.793     10.912
REMARK  Name = 10150441
REMARK  5 active torsions:
REMARK  status: ('A' for Active; 'I' for Inactive)
REMARK    1  A    between atoms: N_1  and  C_23
REMARK    2  A    between atoms: C_3  and  C_10
REMARK    3  A    between atoms: C_10  and  C_16
REMARK    4  A    between atoms: C_23  and  C_25
REMARK    5  A    between atoms: C_25  and  O_26
REMARK                            x       y       z     vdW  Elec       q    Type
REMARK                         _______ _______ _______ _____ _____    ______ ____
ROOT
ATOM      1  N   UNL     1      35.496 -23.587 -12.575  0.00  0.00    -0.261 N 
ATOM      2  N   UNL     1      37.174 -25.258 -13.017  0.00  0.00    -0.229 NA
ATOM      3  C   UNL     1      34.142 -23.885 -14.316  0.00  0.00    +0.003 C 
ATOM      4  C   UNL     1      35.214 -24.812 -14.421  0.00  0.00    +0.030 C 
ATOM      5  C   UNL     1      36.039 -24.601 -13.321  0.00  0.00    +0.136 C 
ATOM      6  C   UNL     1      34.343 -23.146 -13.170  0.00  0.00    +0.063 C 
ATOM      7  C   UNL     1      35.589 -25.818 -15.326  0.00  0.00    +0.004 C 
ATOM      8  C   UNL     1      36.756 -26.531 -15.060  0.00  0.00    +0.021 C 
ATOM      9  C   UNL     1      37.487 -26.215 -13.923  0.00  0.00    +0.100 C 
ENDROOT
BRANCH   3  10
ATOM     10  C   UNL     1      33.014 -23.734 -15.256  0.00  0.00    +0.094 C 
BRANCH  10  16
ATOM     11  S   UNL     1      32.028 -22.268 -17.366  0.00  0.00    -0.055 S 
ATOM     12  F   UNL     1      36.811 -21.475 -18.261  0.00  0.00    -0.222 F 
ATOM     13  F   UNL     1      31.688 -20.431 -19.961  0.00  0.00    -0.204 F 
ATOM     14  F   UNL     1      36.369 -19.924 -20.459  0.00  0.00    -0.205 F 
ATOM     15  N   UNL     1      34.531 -22.572 -16.822  0.00  0.00    -0.400 NA
ATOM     16  C   UNL     1      33.328 -22.865 -16.466  0.00  0.00    +0.143 C 
ATOM     17  C   UNL     1      34.460 -21.769 -17.951  0.00  0.00    +0.156 C 
ATOM     18  C   UNL     1      33.166 -21.492 -18.403  0.00  0.00    +0.087 C 
ATOM     19  C   UNL     1      35.555 -21.229 -18.660  0.00  0.00    +0.262 C 
ATOM     20  C   UNL     1      32.931 -20.694 -19.534  0.00  0.00    +0.150 C 
ATOM     21  C   UNL     1      35.329 -20.434 -19.787  0.00  0.00    +0.159 C 
ATOM     22  C   UNL     1      34.033 -20.172 -20.217  0.00  0.00    +0.059 C 
ENDBRANCH  10  16
ENDBRANCH   3  10
BRANCH   1  23
ATOM     23  C   UNL     1      36.045 -23.057 -11.347  0.00  0.00    +0.207 C 
BRANCH  23  25
ATOM     24  O   UNL     1      34.915 -24.848 -10.141  0.00  0.00    -0.248 OA
ATOM     25  C   UNL     1      35.618 -23.848 -10.141  0.00  0.00    +0.335 C 
BRANCH  25  26
ATOM     26  O   UNL     1      36.129 -23.288  -9.014  0.00  0.00    -0.479 OA
ATOM     27  H   UNL     1      36.010 -22.373  -8.851  0.00  0.00    +0.295 HD
ENDBRANCH  25  26
ENDBRANCH  23  25
ENDBRANCH   1  23
TORSDOF 5
ENDMDL
MODEL 3
REMARK VINA RESULT:     -10.7      6.768     11.224
REMARK  Name = 10150441
REMARK  5 active torsions:
REMARK  status: ('A' for Active; 'I' for Inactive)
REMARK    1  A    between atoms: N_1  and  C_23
REMARK    2  A    between atoms: C_3  and  C_10
REMARK    3  A    between atoms: C_10  and  C_16
REMARK    4  A    between atoms: C_23  and  C_25
REMARK    5  A    between atoms: C_25  and  O_26
REMARK                            x       y       z     vdW  Elec       q    Type
REMARK                         _______ _______ _______ _____ _____    ______ ____
ROOT
ATOM      1  N   UNL     1      36.838 -25.203 -13.986  0.00  0.00    -0.261 N 
ATOM      2  N   UNL     1      37.202 -24.747 -11.648  0.00  0.00    -0.229 NA
ATOM      3  C   UNL     1      34.843 -24.266 -14.289  0.00  0.00    +0.003 C 
ATOM      4  C   UNL     1      35.218 -24.086 -12.930  0.00  0.00    +0.030 C 
ATOM      5  C   UNL     1      36.466 -24.680 -12.775  0.00  0.00    +0.136 C 
ATOM      6  C   UNL     1      35.859 -24.956 -14.913  0.00  0.00    +0.063 C 
ATOM      7  C   UNL     1      34.645 -23.481 -11.800  0.00  0.00    +0.004 C 
ATOM      8  C   UNL     1      35.363 -23.521 -10.606  0.00  0.00    +0.021 C 
ATOM      9  C   UNL     1      36.600 -24.150 -10.592  0.00  0.00    +0.100 C 
ENDROOT
BRANCH   3  10
ATOM     10  C   UNL     1      33.594 -23.802 -14.926  0.00  0.00    +0.094 C 
BRANCH  10  16
ATOM     11  S   UNL     1      32.495 -22.751 -17.219  0.00  0.00    -0.055 S 
ATOM     12  F   UNL     1      37.045 -20.962 -17.855  0.00  0.00    -0.222 F 
ATOM     13  F   UNL     1      31.982 -21.229 -19.983  0.00  0.00    -0.204 F 
ATOM     14  F   UNL     1      36.462 -19.712 -20.207  0.00  0.00    -0.205 F 
ATOM     15  N   UNL     1      34.947 -22.441 -16.482  0.00  0.00    -0.400 NA
ATOM     16  C   UNL     1      33.812 -22.973 -16.184  0.00  0.00    +0.143 C 
ATOM     17  C   UNL     1      34.798 -21.758 -17.681  0.00  0.00    +0.156 C 
ATOM     18  C   UNL     1      33.519 -21.814 -18.242  0.00  0.00    +0.087 C 
ATOM     19  C   UNL     1      35.804 -21.036 -18.358  0.00  0.00    +0.262 C 
ATOM     20  C   UNL     1      33.211 -21.172 -19.452  0.00  0.00    +0.150 C 
ATOM     21  C   UNL     1      35.506 -20.395 -19.564  0.00  0.00    +0.159 C 
ATOM     22  C   UNL     1      34.225 -20.464 -20.102  0.00  0.00    +0.059 C 
ENDBRANCH  10  16
ENDBRANCH   3  10
BRANCH   1  23
ATOM     23  C   UNL     1      38.071 -25.908 -14.257  0.00  0.00    +0.207 C 
BRANCH  23  25
ATOM     24  O   UNL     1      39.506 -23.945 -14.093  0.00  0.00    -0.248 OA
ATOM     25  C   UNL     1      39.184 -24.979 -14.660  0.00  0.00    +0.335 C 
BRANCH  25  26
ATOM     26  O   UNL     1      39.804 -25.453 -15.771  0.00  0.00    -0.479 OA
ATOM     27  H   UNL     1      40.689 -25.754 -15.720  0.00  0.00    +0.295 HD
ENDBRANCH  25  26
ENDBRANCH  23  25
ENDBRANCH   1  23
TORSDOF 5
ENDMDL
MODEL 4
REMARK VINA RESULT:     -10.7      3.709      7.766
REMARK  Name = 10150441
REMARK  5 active torsions:
REMARK  status: ('A' for Active; 'I' for Inactive)
REMARK    1  A    between atoms: N_1  and  C_23
REMARK    2  A    between atoms: C_3  and  C_10
REMARK    3  A    between atoms: C_10  and  C_16
REMARK    4  A    between atoms: C_23  and  C_25
REMARK    5  A    between atoms: C_25  and  O_26
REMARK                            x       y       z     vdW  Elec       q    Type
REMARK                         _______ _______ _______ _____ _____    ______ ____
ROOT
ATOM      1  N   UNL     1      34.070 -21.614 -18.906  0.00  0.00    -0.261 N 
ATOM      2  N   UNL     1      34.779 -22.349 -16.724  0.00  0.00    -0.229 NA
ATOM      3  C   UNL     1      35.753 -20.268 -19.460  0.00  0.00    +0.003 C 
ATOM      4  C   UNL     1      36.015 -20.801 -18.169  0.00  0.00    +0.030 C 
ATOM      5  C   UNL     1      34.948 -21.635 -17.854  0.00  0.00    +0.136 C 
ATOM      6  C   UNL     1      34.550 -20.787 -19.888  0.00  0.00    +0.063 C 
ATOM      7  C   UNL     1      37.041 -20.676 -17.219  0.00  0.00    +0.004 C 
ATOM      8  C   UNL     1      36.918 -21.393 -16.030  0.00  0.00    +0.021 C 
ATOM      9  C   UNL     1      35.796 -22.190 -15.845  0.00  0.00    +0.100 C 
ENDROOT
BRANCH   3  10
ATOM     10  C   UNL     1      36.608 -19.331 -20.216  0.00  0.00    +0.094 C 
BRANCH  10  16
ATOM     11  S   UNL     1      35.491 -18.698 -22.650  0.00  0.00    -0.055 S 
ATOM     12  F   UNL     1      34.215 -14.554 -20.304  0.00  0.00    -0.222 F 
ATOM     13  F   UNL     1      33.979 -17.270 -25.078  0.00  0.00    -0.204 F 
ATOM     14  F   UNL     1      32.958 -13.459 -22.460  0.00  0.00    -0.205 F 
ATOM     15  N   UNL     1      35.433 -17.185 -20.561  0.00  0.00    -0.400 NA
ATOM     16  C   UNL     1      35.833 -18.313 -21.040  0.00  0.00    +0.143 C 
ATOM     17  C   UNL     1      34.762 -16.506 -21.568  0.00  0.00    +0.156 C 
ATOM     18  C   UNL     1      34.691 -17.178 -22.793  0.00  0.00    +0.087 C 
ATOM     19  C   UNL     1      34.166 -15.232 -21.460  0.00  0.00    +0.262 C 
ATOM     20  C   UNL     1      34.044 -16.620 -23.908  0.00  0.00    +0.150 C 
ATOM     21  C   UNL     1      33.521 -14.670 -22.565  0.00  0.00    +0.159 C 
ATOM     22  C   UNL     1      33.463 -15.357 -23.773  0.00  0.00    +0.059 C 
ENDBRANCH  10  16
ENDBRANCH   3  10
BRANCH   1  23
ATOM     23  C   UNL     1      32.826 -22.347 -18.981  0.00  0.00    +0.207 C 
BRANCH  23  25
ATOM     24  O   UNL     1      31.010 -22.021 -17.389  0.00  0.00    -0.248 OA
ATOM     25  C   UNL     1      31.690 -21.615 -18.320  0.00  0.00    +0.335 C 
BRANCH  25  26
ATOM     26  O   UNL     1      31.511 -20.406 -18.912  0.00  0.00    -0.479 OA
ATOM     27  H   UNL     1      30.699 -19.951 -18.809  0.00  0.00    +0.295 HD
ENDBRANCH  25  26
ENDBRANCH  23  25
ENDBRANCH   1  23
TORSDOF 5
ENDMDL
MODEL 5
REMARK VINA RESULT:     -10.3      1.148      2.261
REMARK  Name = 10150441
REMARK  5 active torsions:
REMARK  status: ('A' for Active; 'I' for Inactive)
REMARK    1  A    between atoms: N_1  and  C_23
REMARK    2  A    between atoms: C_3  and  C_10
REMARK    3  A    between atoms: C_10  and  C_16
REMARK    4  A    between atoms: C_23  and  C_25
REMARK    5  A    between atoms: C_25  and  O_26
REMARK                            x       y       z     vdW  Elec       q    Type
REMARK                         _______ _______ _______ _____ _____    ______ ____
ROOT
ATOM      1  N   UNL     1      34.011 -14.881 -21.273  0.00  0.00    -0.261 N 
ATOM      2  N   UNL     1      33.173 -13.845 -23.281  0.00  0.00    -0.229 NA
ATOM      3  C   UNL     1      34.787 -16.801 -22.087  0.00  0.00    +0.003 C 
ATOM      4  C   UNL     1      34.243 -16.048 -23.163  0.00  0.00    +0.030 C 
ATOM      5  C   UNL     1      33.768 -14.858 -22.622  0.00  0.00    +0.136 C 
ATOM      6  C   UNL     1      34.630 -16.057 -20.938  0.00  0.00    +0.063 C 
ATOM      7  C   UNL     1      34.095 -16.234 -24.547  0.00  0.00    +0.004 C 
ATOM      8  C   UNL     1      33.484 -15.217 -25.279  0.00  0.00    +0.021 C 
ATOM      9  C   UNL     1      33.056 -14.079 -24.609  0.00  0.00    +0.100 C 
ENDROOT
BRANCH   3  10
ATOM     10  C   UNL     1      35.410 -18.136 -22.175  0.00  0.00    +0.094 C 
BRANCH  10  16
ATOM     11  S   UNL     1      33.300 -19.492 -21.042  0.00  0.00    -0.055 S 
ATOM     12  F   UNL     1      36.810 -21.222 -18.043  0.00  0.00    -0.222 F 
ATOM     13  F   UNL     1      31.443 -21.358 -19.228  0.00  0.00    -0.204 F 
ATOM     14  F   UNL     1      35.106 -22.768 -16.580  0.00  0.00    -0.205 F 
ATOM     15  N   UNL     1      35.748 -19.642 -20.245  0.00  0.00    -0.400 NA
ATOM     16  C   UNL     1      34.945 -19.108 -21.099  0.00  0.00    +0.143 C 
ATOM     17  C   UNL     1      35.005 -20.472 -19.418  0.00  0.00    +0.156 C 
ATOM     18  C   UNL     1      33.636 -20.521 -19.700  0.00  0.00    +0.087 C 
ATOM     19  C   UNL     1      35.504 -21.244 -18.347  0.00  0.00    +0.262 C 
ATOM     20  C   UNL     1      32.753 -21.315 -18.951  0.00  0.00    +0.150 C 
ATOM     21  C   UNL     1      34.631 -22.037 -17.597  0.00  0.00    +0.159 C 
ATOM     22  C   UNL     1      33.274 -22.070 -17.897  0.00  0.00    +0.059 C 
ENDBRANCH  10  16
ENDBRANCH   3  10
BRANCH   1  23
ATOM     23  C   UNL     1      33.671 -13.832 -20.338  0.00  0.00    +0.207 C 
BRANCH  23  25
ATOM     24  O   UNL     1      31.556 -12.704 -20.777  0.00  0.00    -0.248 OA
ATOM     25  C   UNL     1      32.187 -13.607 -20.246  0.00  0.00    +0.335 C 
BRANCH  25  26
ATOM     26  O   UNL     1      31.620 -14.565 -19.469  0.00  0.00    -0.479 OA
ATOM     27  H   UNL     1      31.623 -15.458 -19.752  0.00  0.00    +0.295 HD
ENDBRANCH  25  26
ENDBRANCH  23  25
ENDBRANCH   1  23
TORSDOF 5
ENDMDL
MODEL 6
REMARK VINA RESULT:     -10.2      4.158      7.552
REMARK  Name = 10150441
REMARK  5 active torsions:
REMARK  status: ('A' for Active; 'I' for Inactive)
REMARK    1  A    between atoms: N_1  and  C_23
REMARK    2  A    between atoms: C_3  and  C_10
REMARK    3  A    between atoms: C_10  and  C_16
REMARK    4  A    between atoms: C_23  and  C_25
REMARK    5  A    between atoms: C_25  and  O_26
REMARK                            x       y       z     vdW  Elec       q    Type
REMARK                         _______ _______ _______ _____ _____    ______ ____
ROOT
ATOM      1  N   UNL     1      35.080 -21.536 -18.087  0.00  0.00    -0.261 N 
ATOM      2  N   UNL     1      32.690 -21.615 -18.381  0.00  0.00    -0.229 NA
ATOM      3  C   UNL     1      35.659 -20.175 -19.749  0.00  0.00    +0.003 C 
ATOM      4  C   UNL     1      34.248 -20.335 -19.776  0.00  0.00    +0.030 C 
ATOM      5  C   UNL     1      33.919 -21.189 -18.728  0.00  0.00    +0.136 C 
ATOM      6  C   UNL     1      36.143 -20.925 -18.699  0.00  0.00    +0.063 C 
ATOM      7  C   UNL     1      33.195 -19.854 -20.571  0.00  0.00    +0.004 C 
ATOM      8  C   UNL     1      31.901 -20.264 -20.257  0.00  0.00    +0.021 C 
ATOM      9  C   UNL     1      31.716 -21.121 -19.181  0.00  0.00    +0.100 C 
ENDROOT
BRANCH   3  10
ATOM     10  C   UNL     1      36.469 -19.355 -20.672  0.00  0.00    +0.094 C 
BRANCH  10  16
ATOM     11  S   UNL     1      35.430 -18.214 -22.950  0.00  0.00    -0.055 S 
ATOM     12  F   UNL     1      34.045 -14.671 -19.815  0.00  0.00    -0.222 F 
ATOM     13  F   UNL     1      33.989 -16.299 -25.066  0.00  0.00    -0.204 F 
ATOM     14  F   UNL     1      32.852 -13.139 -21.729  0.00  0.00    -0.205 F 
ATOM     15  N   UNL     1      35.290 -17.185 -20.589  0.00  0.00    -0.400 NA
ATOM     16  C   UNL     1      35.715 -18.184 -21.285  0.00  0.00    +0.143 C 
ATOM     17  C   UNL     1      34.648 -16.306 -21.450  0.00  0.00    +0.156 C 
ATOM     18  C   UNL     1      34.623 -16.699 -22.791  0.00  0.00    +0.087 C 
ATOM     19  C   UNL     1      34.039 -15.085 -21.091  0.00  0.00    +0.262 C 
ATOM     20  C   UNL     1      34.010 -15.915 -23.782  0.00  0.00    +0.150 C 
ATOM     21  C   UNL     1      33.427 -14.299 -22.071  0.00  0.00    +0.159 C 
ATOM     22  C   UNL     1      33.415 -14.711 -23.399  0.00  0.00    +0.059 C 
ENDBRANCH  10  16
ENDBRANCH   3  10
BRANCH   1  23
ATOM     23  C   UNL     1      35.180 -22.411 -16.941  0.00  0.00    +0.207 C 
BRANCH  23  25
ATOM     24  O   UNL     1      36.783 -21.003 -15.765  0.00  0.00    -0.248 OA
ATOM     25  C   UNL     1      36.387 -22.111 -16.095  0.00  0.00    +0.335 C 
BRANCH  25  26
ATOM     26  O   UNL     1      37.002 -23.268 -15.737  0.00  0.00    -0.479 OA
ATOM     27  H   UNL     1      37.030 -23.522 -14.836  0.00  0.00    +0.295 HD
ENDBRANCH  25  26
ENDBRANCH  23  25
ENDBRANCH   1  23
TORSDOF 5
ENDMDL
MODEL 7
REMARK VINA RESULT:     -10.2      5.471      7.960
REMARK  Name = 10150441
REMARK  5 active torsions:
REMARK  status: ('A' for Active; 'I' for Inactive)
REMARK    1  A    between atoms: N_1  and  C_23
REMARK    2  A    between atoms: C_3  and  C_10
REMARK    3  A    between atoms: C_10  and  C_16
REMARK    4  A    between atoms: C_23  and  C_25
REMARK    5  A    between atoms: C_25  and  O_26
REMARK                            x       y       z     vdW  Elec       q    Type
REMARK                         _______ _______ _______ _____ _____    ______ ____
ROOT
ATOM      1  N   UNL     1      32.413  -7.793 -23.021  0.00  0.00    -0.261 N 
ATOM      2  N   UNL     1      32.602  -6.214 -21.210  0.00  0.00    -0.229 NA
ATOM      3  C   UNL     1      31.386  -9.481 -21.998  0.00  0.00    +0.003 C 
ATOM      4  C   UNL     1      31.581  -8.439 -21.052  0.00  0.00    +0.030 C 
ATOM      5  C   UNL     1      32.223  -7.402 -21.721  0.00  0.00    +0.136 C 
ATOM      6  C   UNL     1      31.908  -9.054 -23.200  0.00  0.00    +0.063 C 
ATOM      7  C   UNL     1      31.286  -8.245 -19.693  0.00  0.00    +0.004 C 
ATOM      8  C   UNL     1      31.656  -7.034 -19.112  0.00  0.00    +0.021 C 
ATOM      9  C   UNL     1      32.293  -6.084 -19.899  0.00  0.00    +0.100 C 
ENDROOT
BRANCH   3  10
ATOM     10  C   UNL     1      30.742 -10.786 -21.749  0.00  0.00    +0.094 C 
BRANCH  10  16
ATOM     11  S   UNL     1      32.342 -12.746 -20.668  0.00  0.00    -0.055 S 
ATOM     12  F   UNL     1      32.949 -14.011 -25.394  0.00  0.00    -0.222 F 
ATOM     13  F   UNL     1      34.297 -15.234 -20.206  0.00  0.00    -0.204 F 
ATOM     14  F   UNL     1      34.607 -16.106 -24.850  0.00  0.00    -0.205 F 
ATOM     15  N   UNL     1      31.899 -12.428 -23.188  0.00  0.00    -0.400 NA
ATOM     16  C   UNL     1      31.648 -11.982 -22.006  0.00  0.00    +0.143 C 
ATOM     17  C   UNL     1      32.748 -13.518 -23.064  0.00  0.00    +0.156 C 
ATOM     18  C   UNL     1      33.106 -13.846 -21.753  0.00  0.00    +0.087 C 
ATOM     19  C   UNL     1      33.265 -14.296 -24.122  0.00  0.00    +0.262 C 
ATOM     20  C   UNL     1      33.959 -14.924 -21.465  0.00  0.00    +0.150 C 
ATOM     21  C   UNL     1      34.115 -15.370 -23.844  0.00  0.00    +0.159 C 
ATOM     22  C   UNL     1      34.457 -15.677 -22.531  0.00  0.00    +0.059 C 
ENDBRANCH  10  16
ENDBRANCH   3  10
BRANCH   1  23
ATOM     23  C   UNL     1      33.048  -7.005 -24.054  0.00  0.00    +0.207 C 
BRANCH  23  25
ATOM     24  O   UNL     1      31.446  -6.325 -25.760  0.00  0.00    -0.248 OA
ATOM     25  C   UNL     1      32.081  -6.082 -24.744  0.00  0.00    +0.335 C 
BRANCH  25  26
ATOM     26  O   UNL     1      32.004  -4.904 -24.072  0.00  0.00    -0.479 OA
ATOM     27  H   UNL     1      32.278  -4.110 -24.487  0.00  0.00    +0.295 HD
ENDBRANCH  25  26
ENDBRANCH  23  25
ENDBRANCH   1  23
TORSDOF 5
ENDMDL
MODEL 8
REMARK VINA RESULT:     -10.0      6.520     10.760
REMARK  Name = 10150441
REMARK  5 active torsions:
REMARK  status: ('A' for Active; 'I' for Inactive)
REMARK    1  A    between atoms: N_1  and  C_23
REMARK    2  A    between atoms: C_3  and  C_10
REMARK    3  A    between atoms: C_10  and  C_16
REMARK    4  A    between atoms: C_23  and  C_25
REMARK    5  A    between atoms: C_25  and  O_26
REMARK                            x       y       z     vdW  Elec       q    Type
REMARK                         _______ _______ _______ _____ _____    ______ ____
ROOT
ATOM      1  N   UNL     1      36.348 -24.070 -13.328  0.00  0.00    -0.261 N 
ATOM      2  N   UNL     1      38.046 -25.738 -12.951  0.00  0.00    -0.229 NA
ATOM      3  C   UNL     1      37.281 -22.886 -14.964  0.00  0.00    +0.003 C 
ATOM      4  C   UNL     1      38.171 -23.936 -14.611  0.00  0.00    +0.030 C 
ATOM      5  C   UNL     1      37.560 -24.655 -13.589  0.00  0.00    +0.136 C 
ATOM      6  C   UNL     1      36.169 -22.995 -14.158  0.00  0.00    +0.063 C 
ATOM      7  C   UNL     1      39.435 -24.371 -15.040  0.00  0.00    +0.004 C 
ATOM      8  C   UNL     1      39.988 -25.487 -14.414  0.00  0.00    +0.021 C 
ATOM      9  C   UNL     1      39.266 -26.110 -13.404  0.00  0.00    +0.100 C 
ENDROOT
BRANCH   3  10
ATOM     10  C   UNL     1      37.499 -21.861 -16.005  0.00  0.00    +0.094 C 
BRANCH  10  16
ATOM     11  S   UNL     1      34.834 -22.356 -16.482  0.00  0.00    -0.055 S 
ATOM     12  F   UNL     1      35.670 -19.619 -20.496  0.00  0.00    -0.222 F 
ATOM     13  F   UNL     1      31.884 -22.467 -17.708  0.00  0.00    -0.204 F 
ATOM     14  F   UNL     1      33.112 -19.800 -21.422  0.00  0.00    -0.205 F 
ATOM     15  N   UNL     1      36.371 -20.954 -18.007  0.00  0.00    -0.400 NA
ATOM     16  C   UNL     1      36.304 -21.647 -16.923  0.00  0.00    +0.143 C 
ATOM     17  C   UNL     1      35.116 -20.959 -18.597  0.00  0.00    +0.156 C 
ATOM     18  C   UNL     1      34.136 -21.679 -17.906  0.00  0.00    +0.087 C 
ATOM     19  C   UNL     1      34.759 -20.316 -19.802  0.00  0.00    +0.262 C 
ATOM     20  C   UNL     1      32.817 -21.776 -18.376  0.00  0.00    +0.150 C 
ATOM     21  C   UNL     1      33.448 -20.409 -20.277  0.00  0.00    +0.159 C 
ATOM     22  C   UNL     1      32.491 -21.131 -19.572  0.00  0.00    +0.059 C 
ENDBRANCH  10  16
ENDBRANCH   3  10
BRANCH   1  23
ATOM     23  C   UNL     1      35.396 -24.511 -12.332  0.00  0.00    +0.207 C 
BRANCH  23  25
ATOM     24  O   UNL     1      36.492 -23.080 -10.693  0.00  0.00    -0.248 OA
ATOM     25  C   UNL     1      35.724 -23.993 -10.959  0.00  0.00    +0.335 C 
BRANCH  25  26
ATOM     26  O   UNL     1      35.036 -24.694 -10.022  0.00  0.00    -0.479 OA
ATOM     27  H   UNL     1      34.153 -24.957 -10.190  0.00  0.00    +0.295 HD
ENDBRANCH  25  26
ENDBRANCH  23  25
ENDBRANCH   1  23
TORSDOF 5
ENDMDL
MODEL 9
REMARK VINA RESULT:     -10.0      7.713     10.097
REMARK  Name = 10150441
REMARK  5 active torsions:
REMARK  status: ('A' for Active; 'I' for Inactive)
REMARK    1  A    between atoms: N_1  and  C_23
REMARK    2  A    between atoms: C_3  and  C_10
REMARK    3  A    between atoms: C_10  and  C_16
REMARK    4  A    between atoms: C_23  and  C_25
REMARK    5  A    between atoms: C_25  and  O_26
REMARK                            x       y       z     vdW  Elec       q    Type
REMARK                         _______ _______ _______ _____ _____    ______ ____
ROOT
ATOM      1  N   UNL     1      31.997 -22.394 -16.669  0.00  0.00    -0.261 N 
ATOM      2  N   UNL     1      29.617 -22.132 -16.939  0.00  0.00    -0.229 NA
ATOM      3  C   UNL     1      32.086 -23.349 -14.661  0.00  0.00    +0.003 C 
ATOM      4  C   UNL     1      30.721 -23.118 -14.985  0.00  0.00    +0.030 C 
ATOM      5  C   UNL     1      30.701 -22.523 -16.241  0.00  0.00    +0.136 C 
ATOM      6  C   UNL     1      32.846 -22.893 -15.717  0.00  0.00    +0.063 C 
ATOM      7  C   UNL     1      29.486 -23.346 -14.357  0.00  0.00    +0.004 C 
ATOM      8  C   UNL     1      28.331 -22.960 -15.034  0.00  0.00    +0.021 C 
ATOM      9  C   UNL     1      28.456 -22.374 -16.287  0.00  0.00    +0.100 C 
ENDROOT
BRANCH   3  10
ATOM     10  C   UNL     1      32.605 -23.965 -13.424  0.00  0.00    +0.094 C 
BRANCH  10  16
ATOM     11  S   UNL     1      35.014 -23.274 -12.287  0.00  0.00    -0.055 S 
ATOM     12  F   UNL     1      36.799 -26.462 -15.597  0.00  0.00    -0.222 F 
ATOM     13  F   UNL     1      38.106 -23.011 -11.521  0.00  0.00    -0.204 F 
ATOM     14  F   UNL     1      39.397 -26.136 -14.836  0.00  0.00    -0.205 F 
ATOM     15  N   UNL     1      34.723 -24.957 -14.220  0.00  0.00    -0.400 NA
ATOM     16  C   UNL     1      34.114 -24.157 -13.414  0.00  0.00    +0.143 C 
ATOM     17  C   UNL     1      36.081 -24.894 -13.942  0.00  0.00    +0.156 C 
ATOM     18  C   UNL     1      36.437 -24.021 -12.910  0.00  0.00    +0.087 C 
ATOM     19  C   UNL     1      37.099 -25.617 -14.599  0.00  0.00    +0.262 C 
ATOM     20  C   UNL     1      37.772 -23.849 -12.513  0.00  0.00    +0.150 C 
ATOM     21  C   UNL     1      38.431 -25.450 -14.210  0.00  0.00    +0.159 C 
ATOM     22  C   UNL     1      38.761 -24.576 -13.180  0.00  0.00    +0.059 C 
ENDBRANCH  10  16
ENDBRANCH   3  10
BRANCH   1  23
ATOM     23  C   UNL     1      32.416 -21.821 -17.929  0.00  0.00    +0.207 C 
BRANCH  23  25
ATOM     24  O   UNL     1      34.821 -22.031 -18.254  0.00  0.00    -0.248 OA
ATOM     25  C   UNL     1      33.685 -22.440 -18.445  0.00  0.00    +0.335 C 
BRANCH  25  26
ATOM     26  O   UNL     1      33.397 -23.549 -19.175  0.00  0.00    -0.479 OA
ATOM     27  H   UNL     1      33.010 -23.462 -20.023  0.00  0.00    +0.295 HD
ENDBRANCH  25  26
ENDBRANCH  23  25
ENDBRANCH   1  23
TORSDOF 5
ENDMDL
