MODEL 1
REMARK VINA RESULT:     -13.9      0.000      0.000
REMARK  Name = 204109
REMARK  5 active torsions:
REMARK  status: ('A' for Active; 'I' for Inactive)
REMARK    1  A    between atoms: C_1  and  C_20
REMARK    2  A    between atoms: C_9  and  O_11
REMARK    3  A    between atoms: O_11  and  C_12
REMARK    4  A    between atoms: C_12  and  C_14
REMARK    5  A    between atoms: C_20  and  C_25
REMARK                            x       y       z     vdW  Elec       q    Type
REMARK                         _______ _______ _______ _____ _____    ______ ____
ROOT
ATOM      1  C   UNL     1      33.176 -21.991 -18.362  0.00  0.00    -0.021 C 
ATOM      2  C   UNL     1      34.790 -20.594 -19.529  0.00  0.00    -0.000 C 
ATOM      3  C   UNL     1      34.496 -21.621 -18.617  0.00  0.00    -0.004 C 
ATOM      4  C   UNL     1      33.728 -19.933 -20.190  0.00  0.00    +0.003 C 
ATOM      5  C   UNL     1      32.132 -21.341 -19.013  0.00  0.00    -0.004 C 
ATOM      6  C   UNL     1      32.405 -20.318 -19.923  0.00  0.00    -0.000 C 
ATOM      7  C   UNL     1      34.021 -18.906 -21.102  0.00  0.00    +0.037 C 
ATOM      8  C   UNL     1      36.113 -20.208 -19.797  0.00  0.00    +0.003 C 
ATOM      9  C   UNL     1      35.342 -18.535 -21.357  0.00  0.00    +0.139 C 
ATOM     10  C   UNL     1      36.386 -19.186 -20.706  0.00  0.00    +0.037 C 
ENDROOT
BRANCH   9  11
ATOM     11  O   UNL     1      35.611 -17.538 -22.244  0.00  0.00    -0.471 OA
BRANCH  11  12
ATOM     12  C   UNL     1      34.520 -17.048 -23.022  0.00  0.00    +0.234 C 
BRANCH  12  14
ATOM     13  F   UNL     1      33.842 -15.109 -24.962  0.00  0.00    -0.204 F 
ATOM     14  C   UNL     1      34.175 -15.640 -22.672  0.00  0.00    +0.049 C 
ATOM     15  C   UNL     1      33.849 -14.730 -23.677  0.00  0.00    +0.140 C 
ATOM     16  C   UNL     1      34.181 -15.235 -21.338  0.00  0.00    +0.002 C 
ATOM     17  C   UNL     1      33.527 -13.413 -23.346  0.00  0.00    +0.029 C 
ATOM     18  C   UNL     1      33.859 -13.918 -21.007  0.00  0.00    -0.000 C 
ATOM     19  C   UNL     1      33.531 -13.007 -22.011  0.00  0.00    +0.002 C 
ENDBRANCH  12  14
ENDBRANCH  11  12
ENDBRANCH   9  11
BRANCH   1  20
ATOM     20  C   UNL     1      32.883 -23.085 -17.391  0.00  0.00    +0.047 C 
BRANCH  20  25
ATOM     21  S   UNL     1      33.250 -23.406 -14.673  0.00  0.00    -0.048 S 
ATOM     22  O   UNL     1      30.062 -22.405 -16.605  0.00  0.00    -0.274 OA
ATOM     23  O   UNL     1      31.721 -24.581 -12.886  0.00  0.00    -0.263 OA
ATOM     24  N   UNL     1      30.698 -23.523 -14.685  0.00  0.00    -0.246 N 
ATOM     25  C   UNL     1      32.408 -22.551 -16.041  0.00  0.00    +0.137 C 
ATOM     26  C   UNL     1      30.931 -22.802 -15.837  0.00  0.00    +0.239 C 
ATOM     27  C   UNL     1      31.760 -23.938 -13.924  0.00  0.00    +0.279 C 
ATOM     28  H   UNL     1      29.778 -23.740 -14.411  0.00  0.00    +0.158 HD
ENDBRANCH  20  25
ENDBRANCH   1  20
TORSDOF 5
ENDMDL
MODEL 2
REMARK VINA RESULT:     -13.7      4.693      9.779
REMARK  Name = 204109
REMARK  5 active torsions:
REMARK  status: ('A' for Active; 'I' for Inactive)
REMARK    1  A    between atoms: C_1  and  C_20
REMARK    2  A    between atoms: C_9  and  O_11
REMARK    3  A    between atoms: O_11  and  C_12
REMARK    4  A    between atoms: C_12  and  C_14
REMARK    5  A    between atoms: C_20  and  C_25
REMARK                            x       y       z     vdW  Elec       q    Type
REMARK                         _______ _______ _______ _____ _____    ______ ____
ROOT
ATOM      1  C   UNL     1      35.276 -18.386 -21.444  0.00  0.00    -0.021 C 
ATOM      2  C   UNL     1      33.892 -19.957 -20.204  0.00  0.00    -0.000 C 
ATOM      3  C   UNL     1      34.021 -18.905 -21.126  0.00  0.00    -0.004 C 
ATOM      4  C   UNL     1      35.054 -20.490 -19.597  0.00  0.00    +0.003 C 
ATOM      5  C   UNL     1      36.418 -18.910 -20.846  0.00  0.00    -0.004 C 
ATOM      6  C   UNL     1      36.310 -19.956 -19.929  0.00  0.00    -0.000 C 
ATOM      7  C   UNL     1      34.926 -21.542 -18.676  0.00  0.00    +0.037 C 
ATOM      8  C   UNL     1      32.637 -20.492 -19.872  0.00  0.00    +0.003 C 
ATOM      9  C   UNL     1      33.670 -22.061 -18.358  0.00  0.00    +0.139 C 
ATOM     10  C   UNL     1      32.528 -21.537 -18.955  0.00  0.00    +0.037 C 
ENDROOT
BRANCH   9  11
ATOM     11  O   UNL     1      33.562 -23.082 -17.463  0.00  0.00    -0.471 OA
BRANCH  11  12
ATOM     12  C   UNL     1      33.680 -22.751 -16.081  0.00  0.00    +0.234 C 
BRANCH  12  14
ATOM     13  F   UNL     1      33.744 -24.263 -13.695  0.00  0.00    -0.204 F 
ATOM     14  C   UNL     1      32.451 -23.107 -15.317  0.00  0.00    +0.049 C 
ATOM     15  C   UNL     1      32.549 -23.857 -14.145  0.00  0.00    +0.140 C 
ATOM     16  C   UNL     1      31.202 -22.690 -15.776  0.00  0.00    +0.002 C 
ATOM     17  C   UNL     1      31.396 -24.189 -13.431  0.00  0.00    +0.029 C 
ATOM     18  C   UNL     1      30.049 -23.023 -15.063  0.00  0.00    -0.000 C 
ATOM     19  C   UNL     1      30.147 -23.771 -13.890  0.00  0.00    +0.002 C 
ENDBRANCH  12  14
ENDBRANCH  11  12
ENDBRANCH   9  11
BRANCH   1  20
ATOM     20  C   UNL     1      35.393 -17.268 -22.424  0.00  0.00    +0.047 C 
BRANCH  20  25
ATOM     21  S   UNL     1      33.662 -16.805 -24.524  0.00  0.00    -0.048 S 
ATOM     22  O   UNL     1      34.303 -14.672 -21.372  0.00  0.00    -0.274 OA
ATOM     23  O   UNL     1      33.157 -14.588 -25.845  0.00  0.00    -0.263 OA
ATOM     24  N   UNL     1      33.704 -14.427 -23.592  0.00  0.00    -0.246 N 
ATOM     25  C   UNL     1      34.041 -16.639 -22.753  0.00  0.00    +0.137 C 
ATOM     26  C   UNL     1      34.040 -15.154 -22.468  0.00  0.00    +0.239 C 
ATOM     27  C   UNL     1      33.462 -15.083 -24.770  0.00  0.00    +0.279 C 
ATOM     28  H   UNL     1      33.639 -13.446 -23.548  0.00  0.00    +0.158 HD
ENDBRANCH  20  25
ENDBRANCH   1  20
TORSDOF 5
ENDMDL
MODEL 3
REMARK VINA RESULT:     -13.6      3.144      3.721
REMARK  Name = 204109
REMARK  5 active torsions:
REMARK  status: ('A' for Active; 'I' for Inactive)
REMARK    1  A    between atoms: C_1  and  C_20
REMARK    2  A    between atoms: C_9  and  O_11
REMARK    3  A    between atoms: O_11  and  C_12
REMARK    4  A    between atoms: C_12  and  C_14
REMARK    5  A    between atoms: C_20  and  C_25
REMARK                            x       y       z     vdW  Elec       q    Type
REMARK                         _______ _______ _______ _____ _____    ______ ____
ROOT
ATOM      1  C   UNL     1      34.235 -22.683 -16.378  0.00  0.00    -0.021 C 
ATOM      2  C   UNL     1      34.842 -21.389 -18.347  0.00  0.00    -0.000 C 
ATOM      3  C   UNL     1      35.201 -22.053 -17.163  0.00  0.00    -0.004 C 
ATOM      4  C   UNL     1      33.483 -21.364 -18.741  0.00  0.00    +0.003 C 
ATOM      5  C   UNL     1      32.898 -22.658 -16.766  0.00  0.00    -0.004 C 
ATOM      6  C   UNL     1      32.523 -22.004 -17.940  0.00  0.00    -0.000 C 
ATOM      7  C   UNL     1      33.123 -20.700 -19.925  0.00  0.00    +0.037 C 
ATOM      8  C   UNL     1      35.801 -20.749 -19.149  0.00  0.00    +0.003 C 
ATOM      9  C   UNL     1      34.090 -20.070 -20.710  0.00  0.00    +0.139 C 
ATOM     10  C   UNL     1      35.426 -20.095 -20.323  0.00  0.00    +0.037 C 
ENDROOT
BRANCH   9  11
ATOM     11  O   UNL     1      33.726 -19.431 -21.856  0.00  0.00    -0.471 OA
BRANCH  11  12
ATOM     12  C   UNL     1      34.762 -18.797 -22.603  0.00  0.00    +0.234 C 
BRANCH  12  14
ATOM     13  F   UNL     1      35.002 -16.726 -20.696  0.00  0.00    -0.204 F 
ATOM     14  C   UNL     1      34.437 -17.374 -22.909  0.00  0.00    +0.049 C 
ATOM     15  C   UNL     1      34.576 -16.397 -21.923  0.00  0.00    +0.140 C 
ATOM     16  C   UNL     1      33.992 -17.022 -24.182  0.00  0.00    +0.002 C 
ATOM     17  C   UNL     1      34.271 -15.067 -22.212  0.00  0.00    +0.029 C 
ATOM     18  C   UNL     1      33.686 -15.691 -24.472  0.00  0.00    -0.000 C 
ATOM     19  C   UNL     1      33.827 -14.714 -23.487  0.00  0.00    +0.002 C 
ENDBRANCH  12  14
ENDBRANCH  11  12
ENDBRANCH   9  11
BRANCH   1  20
ATOM     20  C   UNL     1      34.634 -23.383 -15.124  0.00  0.00    +0.047 C 
BRANCH  20  25
ATOM     21  S   UNL     1      36.156 -25.642 -14.674  0.00  0.00    -0.048 S 
ATOM     22  O   UNL     1      37.109 -21.929 -14.230  0.00  0.00    -0.274 OA
ATOM     23  O   UNL     1      37.768 -26.229 -12.682  0.00  0.00    -0.263 OA
ATOM     24  N   UNL     1      37.579 -24.004 -13.327  0.00  0.00    -0.246 N 
ATOM     25  C   UNL     1      36.072 -23.896 -15.177  0.00  0.00    +0.137 C 
ATOM     26  C   UNL     1      36.962 -23.145 -14.212  0.00  0.00    +0.239 C 
ATOM     27  C   UNL     1      37.308 -25.346 -13.390  0.00  0.00    +0.279 C 
ATOM     28  H   UNL     1      38.209 -23.657 -12.655  0.00  0.00    +0.158 HD
ENDBRANCH  20  25
ENDBRANCH   1  20
TORSDOF 5
ENDMDL
MODEL 4
REMARK VINA RESULT:     -13.6      4.784      9.573
REMARK  Name = 204109
REMARK  5 active torsions:
REMARK  status: ('A' for Active; 'I' for Inactive)
REMARK    1  A    between atoms: C_1  and  C_20
REMARK    2  A    between atoms: C_9  and  O_11
REMARK    3  A    between atoms: O_11  and  C_12
REMARK    4  A    between atoms: C_12  and  C_14
REMARK    5  A    between atoms: C_20  and  C_25
REMARK                            x       y       z     vdW  Elec       q    Type
REMARK                         _______ _______ _______ _____ _____    ______ ____
ROOT
ATOM      1  C   UNL     1      35.177 -17.825 -21.890  0.00  0.00    -0.021 C 
ATOM      2  C   UNL     1      33.989 -19.528 -20.622  0.00  0.00    -0.000 C 
ATOM      3  C   UNL     1      33.984 -18.441 -21.511  0.00  0.00    -0.004 C 
ATOM      4  C   UNL     1      35.222 -19.997 -20.111  0.00  0.00    +0.003 C 
ATOM      5  C   UNL     1      36.389 -18.287 -21.388  0.00  0.00    -0.004 C 
ATOM      6  C   UNL     1      36.414 -19.367 -20.504  0.00  0.00    -0.000 C 
ATOM      7  C   UNL     1      35.228 -21.085 -19.223  0.00  0.00    +0.037 C 
ATOM      8  C   UNL     1      32.798 -20.159 -20.229  0.00  0.00    +0.003 C 
ATOM      9  C   UNL     1      34.034 -21.700 -18.843  0.00  0.00    +0.139 C 
ATOM     10  C   UNL     1      32.822 -21.238 -19.346  0.00  0.00    +0.037 C 
ENDROOT
BRANCH   9  11
ATOM     11  O   UNL     1      34.055 -22.754 -17.981  0.00  0.00    -0.471 OA
BRANCH  11  12
ATOM     12  C   UNL     1      33.904 -22.462 -16.594  0.00  0.00    +0.234 C 
BRANCH  12  14
ATOM     13  F   UNL     1      36.473 -21.294 -16.437  0.00  0.00    -0.204 F 
ATOM     14  C   UNL     1      35.009 -23.044 -15.779  0.00  0.00    +0.049 C 
ATOM     15  C   UNL     1      36.256 -22.420 -15.743  0.00  0.00    +0.140 C 
ATOM     16  C   UNL     1      34.795 -24.215 -15.053  0.00  0.00    +0.002 C 
ATOM     17  C   UNL     1      37.288 -22.966 -14.979  0.00  0.00    +0.029 C 
ATOM     18  C   UNL     1      35.827 -24.763 -14.290  0.00  0.00    -0.000 C 
ATOM     19  C   UNL     1      37.073 -24.138 -14.253  0.00  0.00    +0.002 C 
ENDBRANCH  12  14
ENDBRANCH  11  12
ENDBRANCH   9  11
BRANCH   1  20
ATOM     20  C   UNL     1      35.153 -16.671 -22.835  0.00  0.00    +0.047 C 
BRANCH  20  25
ATOM     21  S   UNL     1      33.472 -15.065 -24.324  0.00  0.00    -0.048 S 
ATOM     22  O   UNL     1      34.274 -14.925 -20.551  0.00  0.00    -0.274 OA
ATOM     23  O   UNL     1      33.154 -12.455 -24.289  0.00  0.00    -0.263 OA
ATOM     24  N   UNL     1      33.704 -13.524 -22.300  0.00  0.00    -0.246 N 
ATOM     25  C   UNL     1      33.858 -15.868 -22.738  0.00  0.00    +0.137 C 
ATOM     26  C   UNL     1      33.977 -14.749 -21.728  0.00  0.00    +0.239 C 
ATOM     27  C   UNL     1      33.414 -13.456 -23.638  0.00  0.00    +0.279 C 
ATOM     28  H   UNL     1      33.719 -12.706 -21.754  0.00  0.00    +0.158 HD
ENDBRANCH  20  25
ENDBRANCH   1  20
TORSDOF 5
ENDMDL
MODEL 5
REMARK VINA RESULT:     -13.4      4.999      9.761
REMARK  Name = 204109
REMARK  5 active torsions:
REMARK  status: ('A' for Active; 'I' for Inactive)
REMARK    1  A    between atoms: C_1  and  C_20
REMARK    2  A    between atoms: C_9  and  O_11
REMARK    3  A    between atoms: O_11  and  C_12
REMARK    4  A    between atoms: C_12  and  C_14
REMARK    5  A    between atoms: C_20  and  C_25
REMARK                            x       y       z     vdW  Elec       q    Type
REMARK                         _______ _______ _______ _____ _____    ______ ____
ROOT
ATOM      1  C   UNL     1      34.525 -18.571 -21.986  0.00  0.00    -0.021 C 
ATOM      2  C   UNL     1      33.914 -20.158 -20.246  0.00  0.00    -0.000 C 
ATOM      3  C   UNL     1      33.564 -19.344 -21.335  0.00  0.00    -0.004 C 
ATOM      4  C   UNL     1      35.260 -20.187 -19.810  0.00  0.00    +0.003 C 
ATOM      5  C   UNL     1      35.849 -18.600 -21.556  0.00  0.00    -0.004 C 
ATOM      6  C   UNL     1      36.216 -19.404 -20.476  0.00  0.00    -0.000 C 
ATOM      7  C   UNL     1      35.611 -21.001 -18.721  0.00  0.00    +0.037 C 
ATOM      8  C   UNL     1      32.959 -20.943 -19.580  0.00  0.00    +0.003 C 
ATOM      9  C   UNL     1      34.649 -21.775 -18.070  0.00  0.00    +0.139 C 
ATOM     10  C   UNL     1      33.325 -21.746 -18.500  0.00  0.00    +0.037 C 
ENDROOT
BRANCH   9  11
ATOM     11  O   UNL     1      35.004 -22.560 -17.016  0.00  0.00    -0.471 OA
BRANCH  11  12
ATOM     12  C   UNL     1      36.062 -22.089 -16.183  0.00  0.00    +0.234 C 
BRANCH  12  14
ATOM     13  F   UNL     1      38.672 -23.033 -15.649  0.00  0.00    -0.204 F 
ATOM     14  C   UNL     1      36.366 -23.043 -15.079  0.00  0.00    +0.049 C 
ATOM     15  C   UNL     1      37.676 -23.472 -14.866  0.00  0.00    +0.140 C 
ATOM     16  C   UNL     1      35.338 -23.507 -14.259  0.00  0.00    +0.002 C 
ATOM     17  C   UNL     1      37.959 -24.365 -13.831  0.00  0.00    +0.029 C 
ATOM     18  C   UNL     1      35.620 -24.401 -13.224  0.00  0.00    -0.000 C 
ATOM     19  C   UNL     1      36.930 -24.829 -13.010  0.00  0.00    +0.002 C 
ENDBRANCH  12  14
ENDBRANCH  11  12
ENDBRANCH   9  11
BRANCH   1  20
ATOM     20  C   UNL     1      34.135 -17.712 -23.141  0.00  0.00    +0.047 C 
BRANCH  20  25
ATOM     21  S   UNL     1      34.228 -15.551 -21.425  0.00  0.00    -0.048 S 
ATOM     22  O   UNL     1      34.184 -15.604 -25.284  0.00  0.00    -0.274 OA
ATOM     23  O   UNL     1      32.925 -13.269 -21.504  0.00  0.00    -0.263 OA
ATOM     24  N   UNL     1      33.484 -14.288 -23.517  0.00  0.00    -0.246 N 
ATOM     25  C   UNL     1      34.686 -16.293 -23.022  0.00  0.00    +0.137 C 
ATOM     26  C   UNL     1      34.103 -15.384 -24.081  0.00  0.00    +0.239 C 
ATOM     27  C   UNL     1      33.435 -14.171 -22.153  0.00  0.00    +0.279 C 
ATOM     28  H   UNL     1      33.080 -13.596 -24.089  0.00  0.00    +0.158 HD
ENDBRANCH  20  25
ENDBRANCH   1  20
TORSDOF 5
ENDMDL
MODEL 6
REMARK VINA RESULT:     -13.4      6.063     10.862
REMARK  Name = 204109
REMARK  5 active torsions:
REMARK  status: ('A' for Active; 'I' for Inactive)
REMARK    1  A    between atoms: C_1  and  C_20
REMARK    2  A    between atoms: C_9  and  O_11
REMARK    3  A    between atoms: O_11  and  C_12
REMARK    4  A    between atoms: C_12  and  C_14
REMARK    5  A    between atoms: C_20  and  C_25
REMARK                            x       y       z     vdW  Elec       q    Type
REMARK                         _______ _______ _______ _____ _____    ______ ____
ROOT
ATOM      1  C   UNL     1      32.797 -12.195 -22.679  0.00  0.00    -0.021 C 
ATOM      2  C   UNL     1      33.866 -14.380 -22.728  0.00  0.00    -0.000 C 
ATOM      3  C   UNL     1      33.414 -13.226 -23.388  0.00  0.00    -0.004 C 
ATOM      4  C   UNL     1      33.688 -14.490 -21.328  0.00  0.00    +0.003 C 
ATOM      5  C   UNL     1      32.623 -12.304 -21.303  0.00  0.00    -0.004 C 
ATOM      6  C   UNL     1      33.066 -13.443 -20.630  0.00  0.00    -0.000 C 
ATOM      7  C   UNL     1      34.140 -15.644 -20.667  0.00  0.00    +0.037 C 
ATOM      8  C   UNL     1      34.489 -15.428 -23.425  0.00  0.00    +0.003 C 
ATOM      9  C   UNL     1      34.757 -16.675 -21.377  0.00  0.00    +0.139 C 
ATOM     10  C   UNL     1      34.931 -16.567 -22.753  0.00  0.00    +0.037 C 
ENDROOT
BRANCH   9  11
ATOM     11  O   UNL     1      35.191 -17.788 -20.722  0.00  0.00    -0.471 OA
BRANCH  11  12
ATOM     12  C   UNL     1      34.897 -19.049 -21.320  0.00  0.00    +0.234 C 
BRANCH  12  14
ATOM     13  F   UNL     1      36.337 -20.851 -19.687  0.00  0.00    -0.204 F 
ATOM     14  C   UNL     1      34.234 -19.978 -20.361  0.00  0.00    +0.049 C 
ATOM     15  C   UNL     1      35.001 -20.845 -19.582  0.00  0.00    +0.140 C 
ATOM     16  C   UNL     1      32.845 -19.980 -20.244  0.00  0.00    +0.002 C 
ATOM     17  C   UNL     1      34.378 -21.713 -18.685  0.00  0.00    +0.029 C 
ATOM     18  C   UNL     1      32.221 -20.849 -19.347  0.00  0.00    -0.000 C 
ATOM     19  C   UNL     1      32.987 -21.715 -18.568  0.00  0.00    +0.002 C 
ENDBRANCH  12  14
ENDBRANCH  11  12
ENDBRANCH   9  11
BRANCH   1  20
ATOM     20  C   UNL     1      32.323 -10.977 -23.397  0.00  0.00    +0.047 C 
BRANCH  20  25
ATOM     21  S   UNL     1      30.645  -9.120 -22.231  0.00  0.00    -0.048 S 
ATOM     22  O   UNL     1      34.256  -8.677 -23.522  0.00  0.00    -0.274 OA
ATOM     23  O   UNL     1      30.171  -6.619 -22.888  0.00  0.00    -0.263 OA
ATOM     24  N   UNL     1      32.298  -7.473 -23.272  0.00  0.00    -0.246 N 
ATOM     25  C   UNL     1      32.335  -9.736 -22.506  0.00  0.00    +0.137 C 
ATOM     26  C   UNL     1      33.089  -8.597 -23.155  0.00  0.00    +0.239 C 
ATOM     27  C   UNL     1      30.994  -7.521 -22.851  0.00  0.00    +0.279 C 
ATOM     28  H   UNL     1      32.665  -6.644 -23.655  0.00  0.00    +0.158 HD
ENDBRANCH  20  25
ENDBRANCH   1  20
TORSDOF 5
ENDMDL
MODEL 7
REMARK VINA RESULT:     -13.3      6.481     11.176
REMARK  Name = 204109
REMARK  5 active torsions:
REMARK  status: ('A' for Active; 'I' for Inactive)
REMARK    1  A    between atoms: C_1  and  C_20
REMARK    2  A    between atoms: C_9  and  O_11
REMARK    3  A    between atoms: O_11  and  C_12
REMARK    4  A    between atoms: C_12  and  C_14
REMARK    5  A    between atoms: C_20  and  C_25
REMARK                            x       y       z     vdW  Elec       q    Type
REMARK                         _______ _______ _______ _____ _____    ______ ____
ROOT
ATOM      1  C   UNL     1      31.584 -11.068 -21.748  0.00  0.00    -0.021 C 
ATOM      2  C   UNL     1      32.943 -13.013 -22.286  0.00  0.00    -0.000 C 
ATOM      3  C   UNL     1      32.295 -11.830 -22.676  0.00  0.00    -0.004 C 
ATOM      4  C   UNL     1      32.870 -13.428 -20.935  0.00  0.00    +0.003 C 
ATOM      5  C   UNL     1      31.513 -11.477 -20.420  0.00  0.00    -0.004 C 
ATOM      6  C   UNL     1      32.152 -12.649 -20.014  0.00  0.00    -0.000 C 
ATOM      7  C   UNL     1      33.519 -14.610 -20.544  0.00  0.00    +0.037 C 
ATOM      8  C   UNL     1      33.663 -13.793 -23.206  0.00  0.00    +0.003 C 
ATOM      9  C   UNL     1      34.230 -15.373 -21.472  0.00  0.00    +0.139 C 
ATOM     10  C   UNL     1      34.301 -14.965 -22.800  0.00  0.00    +0.037 C 
ENDROOT
BRANCH   9  11
ATOM     11  O   UNL     1      34.854 -16.517 -21.078  0.00  0.00    -0.471 OA
BRANCH  11  12
ATOM     12  C   UNL     1      34.582 -17.698 -21.830  0.00  0.00    +0.234 C 
BRANCH  12  14
ATOM     13  F   UNL     1      36.883 -18.906 -20.718  0.00  0.00    -0.204 F 
ATOM     14  C   UNL     1      34.521 -18.909 -20.961  0.00  0.00    +0.049 C 
ATOM     15  C   UNL     1      35.693 -19.458 -20.443  0.00  0.00    +0.140 C 
ATOM     16  C   UNL     1      33.288 -19.492 -20.669  0.00  0.00    +0.002 C 
ATOM     17  C   UNL     1      35.632 -20.591 -19.630  0.00  0.00    +0.029 C 
ATOM     18  C   UNL     1      33.227 -20.625 -19.857  0.00  0.00    -0.000 C 
ATOM     19  C   UNL     1      34.399 -21.174 -19.337  0.00  0.00    +0.002 C 
ENDBRANCH  12  14
ENDBRANCH  11  12
ENDBRANCH   9  11
BRANCH   1  20
ATOM     20  C   UNL     1      30.901  -9.814 -22.181  0.00  0.00    +0.047 C 
BRANCH  20  25
ATOM     21  S   UNL     1      31.718  -7.805 -20.472  0.00  0.00    -0.048 S 
ATOM     22  O   UNL     1      31.326  -7.737 -24.311  0.00  0.00    -0.274 OA
ATOM     23  O   UNL     1      31.072  -5.257 -20.424  0.00  0.00    -0.263 OA
ATOM     24  N   UNL     1      31.160  -6.332 -22.483  0.00  0.00    -0.246 N 
ATOM     25  C   UNL     1      31.820  -8.597 -22.107  0.00  0.00    +0.137 C 
ATOM     26  C   UNL     1      31.412  -7.537 -23.105  0.00  0.00    +0.239 C 
ATOM     27  C   UNL     1      31.263  -6.244 -21.119  0.00  0.00    +0.279 C 
ATOM     28  H   UNL     1      30.908  -5.542 -23.013  0.00  0.00    +0.158 HD
ENDBRANCH  20  25
ENDBRANCH   1  20
TORSDOF 5
ENDMDL
MODEL 8
REMARK VINA RESULT:     -13.2      5.128      9.956
REMARK  Name = 204109
REMARK  5 active torsions:
REMARK  status: ('A' for Active; 'I' for Inactive)
REMARK    1  A    between atoms: C_1  and  C_20
REMARK    2  A    between atoms: C_9  and  O_11
REMARK    3  A    between atoms: O_11  and  C_12
REMARK    4  A    between atoms: C_12  and  C_14
REMARK    5  A    between atoms: C_20  and  C_25
REMARK                            x       y       z     vdW  Elec       q    Type
REMARK                         _______ _______ _______ _____ _____    ______ ____
ROOT
ATOM      1  C   UNL     1      34.728 -20.105 -20.418  0.00  0.00    -0.021 C 
ATOM      2  C   UNL     1      35.282 -21.213 -18.324  0.00  0.00    -0.000 C 
ATOM      3  C   UNL     1      35.661 -20.452 -19.441  0.00  0.00    -0.004 C 
ATOM      4  C   UNL     1      33.935 -21.629 -18.197  0.00  0.00    +0.003 C 
ATOM      5  C   UNL     1      33.404 -20.514 -20.292  0.00  0.00    -0.004 C 
ATOM      6  C   UNL     1      33.008 -21.270 -19.189  0.00  0.00    -0.000 C 
ATOM      7  C   UNL     1      33.554 -22.390 -17.080  0.00  0.00    +0.037 C 
ATOM      8  C   UNL     1      36.208 -21.572 -17.331  0.00  0.00    +0.003 C 
ATOM      9  C   UNL     1      34.488 -22.737 -16.103  0.00  0.00    +0.139 C 
ATOM     10  C   UNL     1      35.813 -22.328 -16.228  0.00  0.00    +0.037 C 
ENDROOT
BRANCH   9  11
ATOM     11  O   UNL     1      34.104 -23.475 -15.025  0.00  0.00    -0.471 OA
BRANCH  11  12
ATOM     12  C   UNL     1      34.885 -24.627 -14.715  0.00  0.00    +0.234 C 
BRANCH  12  14
ATOM     13  F   UNL     1      37.582 -25.462 -14.855  0.00  0.00    -0.204 F 
ATOM     14  C   UNL     1      35.874 -24.355 -13.632  0.00  0.00    +0.049 C 
ATOM     15  C   UNL     1      37.191 -24.793 -13.760  0.00  0.00    +0.140 C 
ATOM     16  C   UNL     1      35.478 -23.661 -12.489  0.00  0.00    +0.002 C 
ATOM     17  C   UNL     1      38.114 -24.537 -12.746  0.00  0.00    +0.029 C 
ATOM     18  C   UNL     1      36.400 -23.405 -11.473  0.00  0.00    -0.000 C 
ATOM     19  C   UNL     1      37.718 -23.842 -11.602  0.00  0.00    +0.002 C 
ENDBRANCH  12  14
ENDBRANCH  11  12
ENDBRANCH   9  11
BRANCH   1  20
ATOM     20  C   UNL     1      35.149 -19.296 -21.598  0.00  0.00    +0.047 C 
BRANCH  20  25
ATOM     21  S   UNL     1      33.829 -18.212 -23.767  0.00  0.00    -0.048 S 
ATOM     22  O   UNL     1      34.939 -16.511 -20.485  0.00  0.00    -0.274 OA
ATOM     23  O   UNL     1      34.203 -15.923 -25.005  0.00  0.00    -0.263 OA
ATOM     24  N   UNL     1      34.614 -16.018 -22.720  0.00  0.00    -0.246 N 
ATOM     25  C   UNL     1      34.119 -18.232 -21.971  0.00  0.00    +0.137 C 
ATOM     26  C   UNL     1      34.605 -16.845 -21.616  0.00  0.00    +0.239 C 
ATOM     27  C   UNL     1      34.245 -16.520 -23.940  0.00  0.00    +0.279 C 
ATOM     28  H   UNL     1      34.885 -15.076 -22.633  0.00  0.00    +0.158 HD
ENDBRANCH  20  25
ENDBRANCH   1  20
TORSDOF 5
ENDMDL
MODEL 9
REMARK VINA RESULT:     -13.0      4.839      9.632
REMARK  Name = 204109
REMARK  5 active torsions:
REMARK  status: ('A' for Active; 'I' for Inactive)
REMARK    1  A    between atoms: C_1  and  C_20
REMARK    2  A    between atoms: C_9  and  O_11
REMARK    3  A    between atoms: O_11  and  C_12
REMARK    4  A    between atoms: C_12  and  C_14
REMARK    5  A    between atoms: C_20  and  C_25
REMARK                            x       y       z     vdW  Elec       q    Type
REMARK                         _______ _______ _______ _____ _____    ______ ____
ROOT
ATOM      1  C   UNL     1      34.499 -18.248 -22.455  0.00  0.00    -0.021 C 
ATOM      2  C   UNL     1      33.979 -19.808 -20.661  0.00  0.00    -0.000 C 
ATOM      3  C   UNL     1      33.577 -19.029 -21.759  0.00  0.00    -0.004 C 
ATOM      4  C   UNL     1      35.338 -19.793 -20.265  0.00  0.00    +0.003 C 
ATOM      5  C   UNL     1      35.834 -18.233 -22.064  0.00  0.00    -0.004 C 
ATOM      6  C   UNL     1      36.253 -19.001 -20.977  0.00  0.00    -0.000 C 
ATOM      7  C   UNL     1      35.741 -20.571 -19.168  0.00  0.00    +0.037 C 
ATOM      8  C   UNL     1      33.064 -20.600 -19.949  0.00  0.00    +0.003 C 
ATOM      9  C   UNL     1      34.818 -21.353 -18.471  0.00  0.00    +0.139 C 
ATOM     10  C   UNL     1      33.482 -21.367 -18.862  0.00  0.00    +0.037 C 
ENDROOT
BRANCH   9  11
ATOM     11  O   UNL     1      35.224 -22.103 -17.410  0.00  0.00    -0.471 OA
BRANCH  11  12
ATOM     12  C   UNL     1      34.206 -22.686 -16.599  0.00  0.00    +0.234 C 
BRANCH  12  14
ATOM     13  F   UNL     1      32.508 -23.654 -14.558  0.00  0.00    -0.204 F 
ATOM     14  C   UNL     1      34.669 -22.910 -15.200  0.00  0.00    +0.049 C 
ATOM     15  C   UNL     1      33.782 -23.390 -14.237  0.00  0.00    +0.140 C 
ATOM     16  C   UNL     1      35.993 -22.638 -14.855  0.00  0.00    +0.002 C 
ATOM     17  C   UNL     1      34.219 -23.599 -12.928  0.00  0.00    +0.029 C 
ATOM     18  C   UNL     1      36.430 -22.846 -13.546  0.00  0.00    -0.000 C 
ATOM     19  C   UNL     1      35.543 -23.327 -12.583  0.00  0.00    +0.002 C 
ENDBRANCH  12  14
ENDBRANCH  11  12
ENDBRANCH   9  11
BRANCH   1  20
ATOM     20  C   UNL     1      34.053 -17.427 -23.618  0.00  0.00    +0.047 C 
BRANCH  20  25
ATOM     21  S   UNL     1      34.200 -15.373 -21.778  0.00  0.00    -0.048 S 
ATOM     22  O   UNL     1      33.496 -15.209 -25.570  0.00  0.00    -0.274 OA
ATOM     23  O   UNL     1      32.657 -13.268 -21.465  0.00  0.00    -0.263 OA
ATOM     24  N   UNL     1      32.970 -14.093 -23.615  0.00  0.00    -0.246 N 
ATOM     25  C   UNL     1      34.455 -15.960 -23.482  0.00  0.00    +0.137 C 
ATOM     26  C   UNL     1      33.601 -15.070 -24.356  0.00  0.00    +0.239 C 
ATOM     27  C   UNL     1      33.144 -14.062 -22.256  0.00  0.00    +0.279 C 
ATOM     28  H   UNL     1      32.399 -13.425 -24.057  0.00  0.00    +0.158 HD
ENDBRANCH  20  25
ENDBRANCH   1  20
TORSDOF 5
ENDMDL
