MODEL 1
REMARK VINA RESULT:     -13.2      0.000      0.000
REMARK  Name = 24880024
REMARK  5 active torsions:
REMARK  status: ('A' for Active; 'I' for Inactive)
REMARK    1  A    between atoms: N_5  and  C_12
REMARK    2  A    between atoms: C_6  and  C_22
REMARK    3  A    between atoms: C_13  and  C_21
REMARK    4  A    between atoms: C_22  and  C_23
REMARK    5  A    between atoms: C_23  and  N_25
REMARK                            x       y       z     vdW  Elec       q    Type
REMARK                         _______ _______ _______ _____ _____    ______ ____
ROOT
ATOM      1  S   UNL     1      36.043 -19.944 -19.841  0.00  0.00    -0.056 S 
ATOM      2  O   UNL     1      34.893 -22.803 -16.333  0.00  0.00    -0.252 OA
ATOM      3  N   UNL     1      34.103 -21.308 -18.810  0.00  0.00    -0.223 NA
ATOM      4  N   UNL     1      36.227 -21.412 -17.677  0.00  0.00    -0.248 N 
ATOM      5  N   UNL     1      37.141 -22.446 -15.794  0.00  0.00    -0.268 N 
ATOM      6  C   UNL     1      34.520 -19.894 -20.627  0.00  0.00    +0.031 C 
ATOM      7  C   UNL     1      33.617 -20.675 -19.937  0.00  0.00    +0.103 C 
ATOM      8  C   UNL     1      35.372 -20.995 -18.662  0.00  0.00    +0.166 C 
ATOM      9  C   UNL     1      35.979 -22.281 -16.565  0.00  0.00    +0.310 C 
ATOM     10  H   UNL     1      37.146 -21.064 -17.741  0.00  0.00    +0.158 HD
ATOM     11  H   UNL     1      37.939 -21.962 -16.107  0.00  0.00    +0.156 HD
ENDROOT
BRANCH   5  12
ATOM     12  C   UNL     1      37.306 -23.223 -14.623  0.00  0.00    +0.052 C 
ATOM     13  C   UNL     1      36.626 -23.791 -12.376  0.00  0.00    +0.073 C 
ATOM     14  C   UNL     1      36.464 -23.025 -13.529  0.00  0.00    +0.019 C 
ATOM     15  C   UNL     1      38.310 -24.189 -14.563  0.00  0.00    +0.015 C 
ATOM     16  C   UNL     1      37.631 -24.757 -12.316  0.00  0.00    +0.004 C 
ATOM     17  C   UNL     1      38.473 -24.956 -13.410  0.00  0.00    +0.001 C 
BRANCH  13  21
ATOM     18  F   UNL     1      34.555 -22.952 -11.521  0.00  0.00    -0.166 F 
ATOM     19  F   UNL     1      35.354 -24.738 -10.585  0.00  0.00    -0.166 F 
ATOM     20  F   UNL     1      36.301 -22.813 -10.233  0.00  0.00    -0.166 F 
ATOM     21  C   UNL     1      35.726 -23.579 -11.205  0.00  0.00    +0.419 C 
ENDBRANCH  13  21
ENDBRANCH   5  12
BRANCH   6  22
ATOM     22  C   UNL     1      34.330 -19.076 -21.881  0.00  0.00    +0.056 C 
BRANCH  22  23
ATOM     23  C   UNL     1      35.218 -17.832 -21.926  0.00  0.00    +0.093 C 
BRANCH  23  25
ATOM     24  S   UNL     1      33.467 -14.762 -24.932  0.00  0.00    -0.101 S 
ATOM     25  N   UNL     1      34.668 -16.842 -22.801  0.00  0.00    -0.320 N 
ATOM     26  N   UNL     1      34.299 -15.284 -21.040  0.00  0.00    -0.233 NA
ATOM     27  N   UNL     1      33.330 -13.101 -21.424  0.00  0.00    -0.247 NA
ATOM     28  C   UNL     1      34.217 -15.587 -22.350  0.00  0.00    +0.118 C 
ATOM     29  C   UNL     1      33.689 -14.652 -23.233  0.00  0.00    +0.145 C 
ATOM     30  C   UNL     1      33.255 -13.422 -22.742  0.00  0.00    +0.073 C 
ATOM     31  C   UNL     1      32.743 -12.585 -23.780  0.00  0.00    +0.022 C 
ATOM     32  C   UNL     1      32.800 -13.191 -25.014  0.00  0.00    +0.033 C 
ATOM     33  C   UNL     1      33.855 -14.072 -20.660  0.00  0.00    +0.251 C 
ATOM     34  H   UNL     1      34.601 -17.048 -23.761  0.00  0.00    +0.148 HD
ENDBRANCH  23  25
ENDBRANCH  22  23
ENDBRANCH   6  22
TORSDOF 5
ENDMDL
MODEL 2
REMARK VINA RESULT:     -13.2      1.230      1.733
REMARK  Name = 24880024
REMARK  5 active torsions:
REMARK  status: ('A' for Active; 'I' for Inactive)
REMARK    1  A    between atoms: N_5  and  C_12
REMARK    2  A    between atoms: C_6  and  C_22
REMARK    3  A    between atoms: C_13  and  C_21
REMARK    4  A    between atoms: C_22  and  C_23
REMARK    5  A    between atoms: C_23  and  N_25
REMARK                            x       y       z     vdW  Elec       q    Type
REMARK                         _______ _______ _______ _____ _____    ______ ____
ROOT
ATOM      1  S   UNL     1      36.065 -20.138 -19.522  0.00  0.00    -0.056 S 
ATOM      2  O   UNL     1      34.780 -23.014 -16.076  0.00  0.00    -0.252 OA
ATOM      3  N   UNL     1      34.081 -21.490 -18.564  0.00  0.00    -0.223 NA
ATOM      4  N   UNL     1      36.168 -21.625 -17.366  0.00  0.00    -0.248 N 
ATOM      5  N   UNL     1      37.013 -22.683 -15.465  0.00  0.00    -0.268 N 
ATOM      6  C   UNL     1      34.568 -20.066 -20.355  0.00  0.00    +0.031 C 
ATOM      7  C   UNL     1      33.636 -20.843 -19.699  0.00  0.00    +0.103 C 
ATOM      8  C   UNL     1      35.348 -21.192 -18.374  0.00  0.00    +0.166 C 
ATOM      9  C   UNL     1      35.877 -22.501 -16.270  0.00  0.00    +0.310 C 
ATOM     10  H   UNL     1      37.092 -21.285 -17.399  0.00  0.00    +0.158 HD
ATOM     11  H   UNL     1      37.825 -22.205 -15.749  0.00  0.00    +0.156 HD
ENDROOT
BRANCH   5  12
ATOM     12  C   UNL     1      37.134 -23.472 -14.296  0.00  0.00    +0.052 C 
ATOM     13  C   UNL     1      36.459 -23.974 -12.032  0.00  0.00    +0.073 C 
ATOM     14  C   UNL     1      36.340 -23.196 -13.183  0.00  0.00    +0.019 C 
ATOM     15  C   UNL     1      38.046 -24.526 -14.258  0.00  0.00    +0.015 C 
ATOM     16  C   UNL     1      37.372 -25.028 -11.993  0.00  0.00    +0.004 C 
ATOM     17  C   UNL     1      38.166 -25.304 -13.107  0.00  0.00    +0.001 C 
BRANCH  13  21
ATOM     18  F   UNL     1      35.188 -24.797 -10.180  0.00  0.00    -0.166 F 
ATOM     19  F   UNL     1      36.243 -22.924  -9.893  0.00  0.00    -0.166 F 
ATOM     20  F   UNL     1      34.477 -22.991 -11.161  0.00  0.00    -0.166 F 
ATOM     21  C   UNL     1      35.611 -23.680 -10.840  0.00  0.00    +0.419 C 
ENDBRANCH  13  21
ENDBRANCH   5  12
BRANCH   6  22
ATOM     22  C   UNL     1      34.425 -19.235 -21.607  0.00  0.00    +0.056 C 
BRANCH  22  23
ATOM     23  C   UNL     1      35.482 -18.137 -21.723  0.00  0.00    +0.093 C 
BRANCH  23  25
ATOM     24  S   UNL     1      33.647 -13.963 -20.869  0.00  0.00    -0.101 S 
ATOM     25  N   UNL     1      34.901 -16.844 -21.526  0.00  0.00    -0.320 N 
ATOM     26  N   UNL     1      34.374 -16.572 -23.831  0.00  0.00    -0.233 NA
ATOM     27  N   UNL     1      33.285 -14.588 -24.685  0.00  0.00    -0.247 NA
ATOM     28  C   UNL     1      34.358 -16.081 -22.576  0.00  0.00    +0.118 C 
ATOM     29  C   UNL     1      33.803 -14.828 -22.343  0.00  0.00    +0.145 C 
ATOM     30  C   UNL     1      33.276 -14.107 -23.414  0.00  0.00    +0.073 C 
ATOM     31  C   UNL     1      32.749 -12.847 -22.999  0.00  0.00    +0.022 C 
ATOM     32  C   UNL     1      32.887 -12.644 -21.645  0.00  0.00    +0.033 C 
ATOM     33  C   UNL     1      33.842 -15.804 -24.799  0.00  0.00    +0.251 C 
ATOM     34  H   UNL     1      34.883 -16.471 -20.616  0.00  0.00    +0.148 HD
ENDBRANCH  23  25
ENDBRANCH  22  23
ENDBRANCH   6  22
TORSDOF 5
ENDMDL
MODEL 3
REMARK VINA RESULT:     -12.8      2.015      2.482
REMARK  Name = 24880024
REMARK  5 active torsions:
REMARK  status: ('A' for Active; 'I' for Inactive)
REMARK    1  A    between atoms: N_5  and  C_12
REMARK    2  A    between atoms: C_6  and  C_22
REMARK    3  A    between atoms: C_13  and  C_21
REMARK    4  A    between atoms: C_22  and  C_23
REMARK    5  A    between atoms: C_23  and  N_25
REMARK                            x       y       z     vdW  Elec       q    Type
REMARK                         _______ _______ _______ _____ _____    ______ ____
ROOT
ATOM      1  S   UNL     1      35.759 -19.406 -20.587  0.00  0.00    -0.056 S 
ATOM      2  O   UNL     1      34.798 -22.263 -17.022  0.00  0.00    -0.252 OA
ATOM      3  N   UNL     1      33.894 -20.822 -19.492  0.00  0.00    -0.223 NA
ATOM      4  N   UNL     1      36.049 -20.843 -18.414  0.00  0.00    -0.248 N 
ATOM      5  N   UNL     1      37.046 -21.825 -16.546  0.00  0.00    -0.268 N 
ATOM      6  C   UNL     1      34.215 -19.415 -21.334  0.00  0.00    +0.031 C 
ATOM      7  C   UNL     1      33.357 -20.218 -20.611  0.00  0.00    +0.103 C 
ATOM      8  C   UNL     1      35.155 -20.466 -19.380  0.00  0.00    +0.166 C 
ATOM      9  C   UNL     1      35.860 -21.708 -17.288  0.00  0.00    +0.310 C 
ATOM     10  H   UNL     1      36.954 -20.465 -18.507  0.00  0.00    +0.158 HD
ATOM     11  H   UNL     1      37.819 -21.319 -16.885  0.00  0.00    +0.156 HD
ENDROOT
BRANCH   5  12
ATOM     12  C   UNL     1      37.268 -22.584 -15.373  0.00  0.00    +0.052 C 
ATOM     13  C   UNL     1      38.403 -24.382 -14.226  0.00  0.00    +0.073 C 
ATOM     14  C   UNL     1      38.184 -23.635 -15.383  0.00  0.00    +0.019 C 
ATOM     15  C   UNL     1      36.569 -22.280 -14.204  0.00  0.00    +0.015 C 
ATOM     16  C   UNL     1      37.704 -24.078 -13.058  0.00  0.00    +0.004 C 
ATOM     17  C   UNL     1      36.788 -23.026 -13.046  0.00  0.00    +0.001 C 
BRANCH  13  21
ATOM     18  F   UNL     1      40.175 -25.532 -15.347  0.00  0.00    -0.166 F 
ATOM     19  F   UNL     1      40.250 -25.485 -13.181  0.00  0.00    -0.166 F 
ATOM     20  F   UNL     1      38.779 -26.729 -14.189  0.00  0.00    -0.166 F 
ATOM     21  C   UNL     1      39.383 -25.506 -14.236  0.00  0.00    +0.419 C 
ENDBRANCH  13  21
ENDBRANCH   5  12
BRANCH   6  22
ATOM     22  C   UNL     1      33.966 -18.617 -22.590  0.00  0.00    +0.056 C 
BRANCH  22  23
ATOM     23  C   UNL     1      35.063 -17.593 -22.879  0.00  0.00    +0.093 C 
BRANCH  23  25
ATOM     24  S   UNL     1      33.287 -13.774 -24.824  0.00  0.00    -0.101 S 
ATOM     25  N   UNL     1      34.510 -16.387 -23.416  0.00  0.00    -0.320 N 
ATOM     26  N   UNL     1      34.296 -15.362 -21.279  0.00  0.00    -0.233 NA
ATOM     27  N   UNL     1      33.399 -13.133 -20.995  0.00  0.00    -0.247 NA
ATOM     28  C   UNL     1      34.135 -15.293 -22.615  0.00  0.00    +0.118 C 
ATOM     29  C   UNL     1      33.601 -14.139 -23.176  0.00  0.00    +0.145 C 
ATOM     30  C   UNL     1      33.243 -13.079 -22.344  0.00  0.00    +0.073 C 
ATOM     31  C   UNL     1      32.714 -11.977 -23.082  0.00  0.00    +0.022 C 
ATOM     32  C   UNL     1      32.682 -12.223 -24.435  0.00  0.00    +0.033 C 
ATOM     33  C   UNL     1      33.923 -14.289 -20.557  0.00  0.00    +0.251 C 
ATOM     34  H   UNL     1      34.385 -16.321 -24.390  0.00  0.00    +0.148 HD
ENDBRANCH  23  25
ENDBRANCH  22  23
ENDBRANCH   6  22
TORSDOF 5
ENDMDL
MODEL 4
REMARK VINA RESULT:     -12.4      3.691      4.588
REMARK  Name = 24880024
REMARK  5 active torsions:
REMARK  status: ('A' for Active; 'I' for Inactive)
REMARK    1  A    between atoms: N_5  and  C_12
REMARK    2  A    between atoms: C_6  and  C_22
REMARK    3  A    between atoms: C_13  and  C_21
REMARK    4  A    between atoms: C_22  and  C_23
REMARK    5  A    between atoms: C_23  and  N_25
REMARK                            x       y       z     vdW  Elec       q    Type
REMARK                         _______ _______ _______ _____ _____    ______ ____
ROOT
ATOM      1  S   UNL     1      33.176 -19.725 -20.623  0.00  0.00    -0.056 S 
ATOM      2  O   UNL     1      32.773 -22.674 -17.026  0.00  0.00    -0.252 OA
ATOM      3  N   UNL     1      34.507 -21.259 -19.023  0.00  0.00    -0.223 NA
ATOM      4  N   UNL     1      32.119 -21.173 -18.711  0.00  0.00    -0.248 N 
ATOM      5  N   UNL     1      30.518 -22.118 -17.300  0.00  0.00    -0.268 N 
ATOM      6  C   UNL     1      34.878 -19.804 -20.817  0.00  0.00    +0.031 C 
ATOM      7  C   UNL     1      35.411 -20.667 -19.883  0.00  0.00    +0.103 C 
ATOM      8  C   UNL     1      33.298 -20.836 -19.320  0.00  0.00    +0.166 C 
ATOM      9  C   UNL     1      31.886 -22.059 -17.609  0.00  0.00    +0.310 C 
ATOM     10  H   UNL     1      31.314 -20.745 -19.084  0.00  0.00    +0.158 HD
ATOM     11  H   UNL     1      29.924 -21.566 -17.858  0.00  0.00    +0.156 HD
ENDROOT
BRANCH   5  12
ATOM     12  C   UNL     1      29.887 -22.874 -16.283  0.00  0.00    +0.052 C 
ATOM     13  C   UNL     1      29.897 -23.797 -14.051  0.00  0.00    +0.073 C 
ATOM     14  C   UNL     1      30.519 -23.053 -15.053  0.00  0.00    +0.019 C 
ATOM     15  C   UNL     1      28.632 -23.438 -16.511  0.00  0.00    +0.015 C 
ATOM     16  C   UNL     1      28.642 -24.362 -14.279  0.00  0.00    +0.004 C 
ATOM     17  C   UNL     1      28.009 -24.182 -15.509  0.00  0.00    +0.001 C 
BRANCH  13  21
ATOM     18  F   UNL     1      29.730 -24.399 -11.742  0.00  0.00    -0.166 F 
ATOM     19  F   UNL     1      31.569 -24.924 -12.765  0.00  0.00    -0.166 F 
ATOM     20  F   UNL     1      31.157 -22.847 -12.272  0.00  0.00    -0.166 F 
ATOM     21  C   UNL     1      30.573 -23.990 -12.735  0.00  0.00    +0.419 C 
ENDBRANCH  13  21
ENDBRANCH   5  12
BRANCH   6  22
ATOM     22  C   UNL     1      35.566 -18.998 -21.892  0.00  0.00    +0.056 C 
BRANCH  22  23
ATOM     23  C   UNL     1      35.703 -17.518 -21.538  0.00  0.00    +0.093 C 
BRANCH  23  25
ATOM     24  S   UNL     1      33.697 -14.994 -24.874  0.00  0.00    -0.101 S 
ATOM     25  N   UNL     1      35.064 -16.695 -22.519  0.00  0.00    -0.320 N 
ATOM     26  N   UNL     1      34.299 -15.119 -20.907  0.00  0.00    -0.233 NA
ATOM     27  N   UNL     1      33.006 -13.167 -21.517  0.00  0.00    -0.247 NA
ATOM     28  C   UNL     1      34.373 -15.513 -22.194  0.00  0.00    +0.118 C 
ATOM     29  C   UNL     1      33.765 -14.741 -23.177  0.00  0.00    +0.145 C 
ATOM     30  C   UNL     1      33.090 -13.577 -22.810  0.00  0.00    +0.073 C 
ATOM     31  C   UNL     1      32.527 -12.909 -23.938  0.00  0.00    +0.022 C 
ATOM     32  C   UNL     1      32.782 -13.571 -25.117  0.00  0.00    +0.033 C 
ATOM     33  C   UNL     1      33.627 -13.982 -20.649  0.00  0.00    +0.251 C 
ATOM     34  H   UNL     1      35.108 -16.969 -23.463  0.00  0.00    +0.148 HD
ENDBRANCH  23  25
ENDBRANCH  22  23
ENDBRANCH   6  22
TORSDOF 5
ENDMDL
MODEL 5
REMARK VINA RESULT:     -12.4      2.118      2.783
REMARK  Name = 24880024
REMARK  5 active torsions:
REMARK  status: ('A' for Active; 'I' for Inactive)
REMARK    1  A    between atoms: N_5  and  C_12
REMARK    2  A    between atoms: C_6  and  C_22
REMARK    3  A    between atoms: C_13  and  C_21
REMARK    4  A    between atoms: C_22  and  C_23
REMARK    5  A    between atoms: C_23  and  N_25
REMARK                            x       y       z     vdW  Elec       q    Type
REMARK                         _______ _______ _______ _____ _____    ______ ____
ROOT
ATOM      1  S   UNL     1      33.688 -20.651 -20.099  0.00  0.00    -0.056 S 
ATOM      2  O   UNL     1      36.495 -21.694 -16.517  0.00  0.00    -0.252 OA
ATOM      3  N   UNL     1      36.054 -20.281 -19.126  0.00  0.00    -0.223 NA
ATOM      4  N   UNL     1      34.559 -21.674 -17.849  0.00  0.00    -0.248 N 
ATOM      5  N   UNL     1      34.593 -22.880 -15.851  0.00  0.00    -0.268 N 
ATOM      6  C   UNL     1      34.773 -19.660 -20.983  0.00  0.00    +0.031 C 
ATOM      7  C   UNL     1      35.977 -19.581 -20.314  0.00  0.00    +0.103 C 
ATOM      8  C   UNL     1      34.905 -20.883 -18.912  0.00  0.00    +0.166 C 
ATOM      9  C   UNL     1      35.337 -22.053 -16.707  0.00  0.00    +0.310 C 
ATOM     10  H   UNL     1      33.643 -22.035 -17.872  0.00  0.00    +0.158 HD
ATOM     11  H   UNL     1      33.673 -23.082 -16.137  0.00  0.00    +0.156 HD
ENDROOT
BRANCH   5  12
ATOM     12  C   UNL     1      35.002 -23.459 -14.626  0.00  0.00    +0.052 C 
ATOM     13  C   UNL     1      36.658 -24.633 -13.317  0.00  0.00    +0.073 C 
ATOM     14  C   UNL     1      36.255 -24.063 -14.524  0.00  0.00    +0.019 C 
ATOM     15  C   UNL     1      34.153 -23.424 -13.520  0.00  0.00    +0.015 C 
ATOM     16  C   UNL     1      35.809 -24.598 -12.211  0.00  0.00    +0.004 C 
ATOM     17  C   UNL     1      34.556 -23.993 -12.312  0.00  0.00    +0.001 C 
BRANCH  13  21
ATOM     18  F   UNL     1      39.040 -24.415 -13.380  0.00  0.00    -0.166 F 
ATOM     19  F   UNL     1      38.221 -25.870 -11.995  0.00  0.00    -0.166 F 
ATOM     20  F   UNL     1      38.182 -26.266 -14.133  0.00  0.00    -0.166 F 
ATOM     21  C   UNL     1      37.998 -25.280 -13.207  0.00  0.00    +0.419 C 
ENDBRANCH  13  21
ENDBRANCH   5  12
BRANCH   6  22
ATOM     22  C   UNL     1      34.349 -19.030 -22.287  0.00  0.00    +0.056 C 
BRANCH  22  23
ATOM     23  C   UNL     1      35.223 -17.843 -22.692  0.00  0.00    +0.093 C 
BRANCH  23  25
ATOM     24  S   UNL     1      33.566 -13.931 -20.829  0.00  0.00    -0.101 S 
ATOM     25  N   UNL     1      34.691 -16.617 -22.180  0.00  0.00    -0.320 N 
ATOM     26  N   UNL     1      33.977 -15.864 -24.322  0.00  0.00    -0.233 NA
ATOM     27  N   UNL     1      32.867 -13.739 -24.645  0.00  0.00    -0.247 NA
ATOM     28  C   UNL     1      34.079 -15.647 -22.996  0.00  0.00    +0.118 C 
ATOM     29  C   UNL     1      33.576 -14.468 -22.459  0.00  0.00    +0.145 C 
ATOM     30  C   UNL     1      32.977 -13.535 -23.305  0.00  0.00    +0.073 C 
ATOM     31  C   UNL     1      32.517 -12.388 -22.592  0.00  0.00    +0.022 C 
ATOM     32  C   UNL     1      32.774 -12.474 -21.243  0.00  0.00    +0.033 C 
ATOM     33  C   UNL     1      33.384 -14.907 -25.059  0.00  0.00    +0.251 C 
ATOM     34  H   UNL     1      34.759 -16.443 -21.214  0.00  0.00    +0.148 HD
ENDBRANCH  23  25
ENDBRANCH  22  23
ENDBRANCH   6  22
TORSDOF 5
ENDMDL
MODEL 6
REMARK VINA RESULT:     -12.0      5.440     11.507
REMARK  Name = 24880024
REMARK  5 active torsions:
REMARK  status: ('A' for Active; 'I' for Inactive)
REMARK    1  A    between atoms: N_5  and  C_12
REMARK    2  A    between atoms: C_6  and  C_22
REMARK    3  A    between atoms: C_13  and  C_21
REMARK    4  A    between atoms: C_22  and  C_23
REMARK    5  A    between atoms: C_23  and  N_25
REMARK                            x       y       z     vdW  Elec       q    Type
REMARK                         _______ _______ _______ _____ _____    ______ ____
ROOT
ATOM      1  S   UNL     1      33.611 -22.773 -16.434  0.00  0.00    -0.056 S 
ATOM      2  O   UNL     1      31.916 -20.272 -19.994  0.00  0.00    -0.252 OA
ATOM      3  N   UNL     1      31.432 -21.999 -17.590  0.00  0.00    -0.223 NA
ATOM      4  N   UNL     1      33.504 -21.256 -18.569  0.00  0.00    -0.248 N 
ATOM      5  N   UNL     1      34.202 -19.951 -20.375  0.00  0.00    -0.268 N 
ATOM      6  C   UNL     1      32.119 -23.282 -15.758  0.00  0.00    +0.031 C 
ATOM      7  C   UNL     1      31.076 -22.776 -16.506  0.00  0.00    +0.103 C 
ATOM      8  C   UNL     1      32.743 -21.928 -17.650  0.00  0.00    +0.166 C 
ATOM      9  C   UNL     1      33.089 -20.465 -19.689  0.00  0.00    +0.310 C 
ATOM     10  H   UNL     1      34.478 -21.326 -18.442  0.00  0.00    +0.158 HD
ATOM     11  H   UNL     1      35.084 -20.192 -20.009  0.00  0.00    +0.156 HD
ENDROOT
BRANCH   5  12
ATOM     12  C   UNL     1      34.211 -19.128 -21.525  0.00  0.00    +0.052 C 
ATOM     13  C   UNL     1      34.238 -16.929 -22.525  0.00  0.00    +0.073 C 
ATOM     14  C   UNL     1      34.228 -17.740 -21.391  0.00  0.00    +0.019 C 
ATOM     15  C   UNL     1      34.206 -19.705 -22.795  0.00  0.00    +0.015 C 
ATOM     16  C   UNL     1      34.232 -17.506 -23.795  0.00  0.00    +0.004 C 
ATOM     17  C   UNL     1      34.216 -18.894 -23.930  0.00  0.00    +0.001 C 
BRANCH  13  21
ATOM     18  F   UNL     1      33.061 -14.852 -22.676  0.00  0.00    -0.166 F 
ATOM     19  F   UNL     1      34.561 -15.021 -21.119  0.00  0.00    -0.166 F 
ATOM     20  F   UNL     1      35.171 -14.848 -23.199  0.00  0.00    -0.166 F 
ATOM     21  C   UNL     1      34.255 -15.444 -22.381  0.00  0.00    +0.419 C 
ENDBRANCH  13  21
ENDBRANCH   5  12
BRANCH   6  22
ATOM     22  C   UNL     1      32.092 -24.154 -14.527  0.00  0.00    +0.056 C 
BRANCH  22  23
ATOM     23  C   UNL     1      33.140 -23.757 -13.487  0.00  0.00    +0.093 C 
BRANCH  23  25
ATOM     24  S   UNL     1      37.139 -25.840 -14.578  0.00  0.00    -0.101 S 
ATOM     25  N   UNL     1      34.406 -24.358 -13.780  0.00  0.00    -0.320 N 
ATOM     26  N   UNL     1      35.590 -22.928 -12.290  0.00  0.00    -0.233 NA
ATOM     27  N   UNL     1      37.984 -23.083 -11.976  0.00  0.00    -0.247 NA
ATOM     28  C   UNL     1      35.609 -23.939 -13.182  0.00  0.00    +0.118 C 
ATOM     29  C   UNL     1      36.818 -24.549 -13.494  0.00  0.00    +0.145 C 
ATOM     30  C   UNL     1      37.986 -24.101 -12.878  0.00  0.00    +0.073 C 
ATOM     31  C   UNL     1      39.132 -24.834 -13.310  0.00  0.00    +0.022 C 
ATOM     32  C   UNL     1      38.812 -25.805 -14.231  0.00  0.00    +0.033 C 
ATOM     33  C   UNL     1      36.767 -22.566 -11.747  0.00  0.00    +0.251 C 
ATOM     34  H   UNL     1      34.436 -25.096 -14.430  0.00  0.00    +0.148 HD
ENDBRANCH  23  25
ENDBRANCH  22  23
ENDBRANCH   6  22
TORSDOF 5
ENDMDL
MODEL 7
REMARK VINA RESULT:     -11.8      7.162     13.325
REMARK  Name = 24880024
REMARK  5 active torsions:
REMARK  status: ('A' for Active; 'I' for Inactive)
REMARK    1  A    between atoms: N_5  and  C_12
REMARK    2  A    between atoms: C_6  and  C_22
REMARK    3  A    between atoms: C_13  and  C_21
REMARK    4  A    between atoms: C_22  and  C_23
REMARK    5  A    between atoms: C_23  and  N_25
REMARK                            x       y       z     vdW  Elec       q    Type
REMARK                         _______ _______ _______ _____ _____    ______ ____
ROOT
ATOM      1  S   UNL     1      34.605 -16.323 -23.141  0.00  0.00    -0.056 S 
ATOM      2  O   UNL     1      33.174 -12.464 -20.937  0.00  0.00    -0.252 OA
ATOM      3  N   UNL     1      34.161 -15.293 -20.811  0.00  0.00    -0.223 NA
ATOM      4  N   UNL     1      33.732 -13.888 -22.720  0.00  0.00    -0.248 N 
ATOM      5  N   UNL     1      32.987 -11.717 -23.146  0.00  0.00    -0.268 N 
ATOM      6  C   UNL     1      34.905 -17.298 -21.762  0.00  0.00    +0.031 C 
ATOM      7  C   UNL     1      34.611 -16.584 -20.618  0.00  0.00    +0.103 C 
ATOM      8  C   UNL     1      34.118 -15.047 -22.102  0.00  0.00    +0.166 C 
ATOM      9  C   UNL     1      33.281 -12.656 -22.144  0.00  0.00    +0.310 C 
ATOM     10  H   UNL     1      33.771 -13.902 -23.705  0.00  0.00    +0.158 HD
ATOM     11  H   UNL     1      33.123 -12.017 -24.073  0.00  0.00    +0.156 HD
ENDROOT
BRANCH   5  12
ATOM     12  C   UNL     1      32.518 -10.391 -22.985  0.00  0.00    +0.052 C 
ATOM     13  C   UNL     1      32.881  -8.009 -23.153  0.00  0.00    +0.073 C 
ATOM     14  C   UNL     1      33.343  -9.315 -23.311  0.00  0.00    +0.019 C 
ATOM     15  C   UNL     1      31.230 -10.161 -22.503  0.00  0.00    +0.015 C 
ATOM     16  C   UNL     1      31.593  -7.779 -22.670  0.00  0.00    +0.004 C 
ATOM     17  C   UNL     1      30.767  -8.855 -22.345  0.00  0.00    +0.001 C 
BRANCH  13  21
ATOM     18  F   UNL     1      33.079  -5.740 -23.884  0.00  0.00    -0.166 F 
ATOM     19  F   UNL     1      34.561  -6.450 -22.469  0.00  0.00    -0.166 F 
ATOM     20  F   UNL     1      34.613  -7.139 -24.531  0.00  0.00    -0.166 F 
ATOM     21  C   UNL     1      33.763  -6.857 -23.500  0.00  0.00    +0.419 C 
ENDBRANCH  13  21
ENDBRANCH   5  12
BRANCH   6  22
ATOM     22  C   UNL     1      35.412 -18.711 -21.916  0.00  0.00    +0.056 C 
BRANCH  22  23
ATOM     23  C   UNL     1      34.575 -19.735 -21.150  0.00  0.00    +0.093 C 
BRANCH  23  25
ATOM     24  S   UNL     1      36.776 -20.739 -17.191  0.00  0.00    -0.101 S 
ATOM     25  N   UNL     1      35.204 -20.090 -19.914  0.00  0.00    -0.320 N 
ATOM     26  N   UNL     1      33.502 -21.646 -19.328  0.00  0.00    -0.233 NA
ATOM     27  N   UNL     1      33.562 -22.919 -17.271  0.00  0.00    -0.247 NA
ATOM     28  C   UNL     1      34.663 -21.035 -19.023  0.00  0.00    +0.118 C 
ATOM     29  C   UNL     1      35.306 -21.351 -17.831  0.00  0.00    +0.145 C 
ATOM     30  C   UNL     1      34.733 -22.293 -16.978  0.00  0.00    +0.073 C 
ATOM     31  C   UNL     1      35.520 -22.498 -15.805  0.00  0.00    +0.022 C 
ATOM     32  C   UNL     1      36.653 -21.717 -15.795  0.00  0.00    +0.033 C 
ATOM     33  C   UNL     1      33.026 -22.542 -18.443  0.00  0.00    +0.251 C 
ATOM     34  H   UNL     1      36.053 -19.651 -19.676  0.00  0.00    +0.148 HD
ENDBRANCH  23  25
ENDBRANCH  22  23
ENDBRANCH   6  22
TORSDOF 5
ENDMDL
MODEL 8
REMARK VINA RESULT:     -11.7      7.334     13.257
REMARK  Name = 24880024
REMARK  5 active torsions:
REMARK  status: ('A' for Active; 'I' for Inactive)
REMARK    1  A    between atoms: N_5  and  C_12
REMARK    2  A    between atoms: C_6  and  C_22
REMARK    3  A    between atoms: C_13  and  C_21
REMARK    4  A    between atoms: C_22  and  C_23
REMARK    5  A    between atoms: C_23  and  N_25
REMARK                            x       y       z     vdW  Elec       q    Type
REMARK                         _______ _______ _______ _____ _____    ______ ____
ROOT
ATOM      1  S   UNL     1      34.526 -16.289 -23.274  0.00  0.00    -0.056 S 
ATOM      2  O   UNL     1      33.192 -12.448 -20.979  0.00  0.00    -0.252 OA
ATOM      3  N   UNL     1      34.151 -15.289 -20.919  0.00  0.00    -0.223 NA
ATOM      4  N   UNL     1      33.691 -13.850 -22.796  0.00  0.00    -0.248 N 
ATOM      5  N   UNL     1      32.959 -11.665 -23.171  0.00  0.00    -0.268 N 
ATOM      6  C   UNL     1      34.849 -17.287 -21.918  0.00  0.00    +0.031 C 
ATOM      7  C   UNL     1      34.591 -16.588 -20.757  0.00  0.00    +0.103 C 
ATOM      8  C   UNL     1      34.079 -15.023 -22.205  0.00  0.00    +0.166 C 
ATOM      9  C   UNL     1      33.268 -12.623 -22.191  0.00  0.00    +0.310 C 
ATOM     10  H   UNL     1      33.705 -13.850 -23.781  0.00  0.00    +0.158 HD
ATOM     11  H   UNL     1      33.070 -11.953 -24.106  0.00  0.00    +0.156 HD
ENDROOT
BRANCH   5  12
ATOM     12  C   UNL     1      32.509 -10.337 -22.979  0.00  0.00    +0.052 C 
ATOM     13  C   UNL     1      32.891  -7.957 -23.127  0.00  0.00    +0.073 C 
ATOM     14  C   UNL     1      33.335  -9.265 -23.315  0.00  0.00    +0.019 C 
ATOM     15  C   UNL     1      31.239 -10.101 -22.454  0.00  0.00    +0.015 C 
ATOM     16  C   UNL     1      31.621  -7.720 -22.602  0.00  0.00    +0.004 C 
ATOM     17  C   UNL     1      30.794  -8.792 -22.266  0.00  0.00    +0.001 C 
BRANCH  13  21
ATOM     18  F   UNL     1      34.608  -6.423 -22.477  0.00  0.00    -0.166 F 
ATOM     19  F   UNL     1      34.595  -7.063 -24.549  0.00  0.00    -0.166 F 
ATOM     20  F   UNL     1      33.070  -5.692 -23.827  0.00  0.00    -0.166 F 
ATOM     21  C   UNL     1      33.774  -6.809 -23.486  0.00  0.00    +0.419 C 
ENDBRANCH  13  21
ENDBRANCH   5  12
BRANCH   6  22
ATOM     22  C   UNL     1      35.336 -18.703 -22.106  0.00  0.00    +0.056 C 
BRANCH  22  23
ATOM     23  C   UNL     1      35.890 -19.322 -20.823  0.00  0.00    +0.093 C 
BRANCH  23  25
ATOM     24  S   UNL     1      32.465 -21.658 -18.741  0.00  0.00    -0.101 S 
ATOM     25  N   UNL     1      34.878 -20.062 -20.132  0.00  0.00    -0.320 N 
ATOM     26  N   UNL     1      36.366 -20.770 -18.414  0.00  0.00    -0.233 NA
ATOM     27  N   UNL     1      35.651 -22.178 -16.581  0.00  0.00    -0.247 NA
ATOM     28  C   UNL     1      35.126 -20.773 -18.943  0.00  0.00    +0.118 C 
ATOM     29  C   UNL     1      34.115 -21.480 -18.303  0.00  0.00    +0.145 C 
ATOM     30  C   UNL     1      34.406 -22.171 -17.127  0.00  0.00    +0.073 C 
ATOM     31  C   UNL     1      33.259 -22.839 -16.604  0.00  0.00    +0.022 C 
ATOM     32  C   UNL     1      32.141 -22.643 -17.382  0.00  0.00    +0.033 C 
ATOM     33  C   UNL     1      36.551 -21.465 -17.277  0.00  0.00    +0.251 C 
ATOM     34  H   UNL     1      33.968 -20.075 -20.506  0.00  0.00    +0.148 HD
ENDBRANCH  23  25
ENDBRANCH  22  23
ENDBRANCH   6  22
TORSDOF 5
ENDMDL
MODEL 9
REMARK VINA RESULT:     -11.7      6.027     11.547
REMARK  Name = 24880024
REMARK  5 active torsions:
REMARK  status: ('A' for Active; 'I' for Inactive)
REMARK    1  A    between atoms: N_5  and  C_12
REMARK    2  A    between atoms: C_6  and  C_22
REMARK    3  A    between atoms: C_13  and  C_21
REMARK    4  A    between atoms: C_22  and  C_23
REMARK    5  A    between atoms: C_23  and  N_25
REMARK                            x       y       z     vdW  Elec       q    Type
REMARK                         _______ _______ _______ _____ _____    ______ ____
ROOT
ATOM      1  S   UNL     1      33.199 -23.293 -15.911  0.00  0.00    -0.056 S 
ATOM      2  O   UNL     1      32.447 -20.397 -19.495  0.00  0.00    -0.252 OA
ATOM      3  N   UNL     1      31.360 -22.082 -17.265  0.00  0.00    -0.223 NA
ATOM      4  N   UNL     1      33.638 -21.711 -17.954  0.00  0.00    -0.248 N 
ATOM      5  N   UNL     1      34.782 -20.500 -19.590  0.00  0.00    -0.268 N 
ATOM      6  C   UNL     1      31.567 -23.534 -15.442  0.00  0.00    +0.031 C 
ATOM      7  C   UNL     1      30.736 -22.815 -16.275  0.00  0.00    +0.103 C 
ATOM      8  C   UNL     1      32.659 -22.259 -17.169  0.00  0.00    +0.166 C 
ATOM      9  C   UNL     1      33.517 -20.818 -19.068  0.00  0.00    +0.310 C 
ATOM     10  H   UNL     1      34.560 -21.968 -17.719  0.00  0.00    +0.158 HD
ATOM     11  H   UNL     1      35.552 -20.916 -19.140  0.00  0.00    +0.156 HD
ENDROOT
BRANCH   5  12
ATOM     12  C   UNL     1      35.085 -19.654 -20.683  0.00  0.00    +0.052 C 
ATOM     13  C   UNL     1      34.537 -18.780 -22.867  0.00  0.00    +0.073 C 
ATOM     14  C   UNL     1      34.238 -19.614 -21.790  0.00  0.00    +0.019 C 
ATOM     15  C   UNL     1      36.231 -18.860 -20.653  0.00  0.00    +0.015 C 
ATOM     16  C   UNL     1      35.683 -17.985 -22.837  0.00  0.00    +0.004 C 
ATOM     17  C   UNL     1      36.530 -18.025 -21.729  0.00  0.00    +0.001 C 
BRANCH  13  21
ATOM     18  F   UNL     1      32.311 -18.880 -23.738  0.00  0.00    -0.166 F 
ATOM     19  F   UNL     1      33.706 -17.566 -24.754  0.00  0.00    -0.166 F 
ATOM     20  F   UNL     1      33.903 -19.723 -24.956  0.00  0.00    -0.166 F 
ATOM     21  C   UNL     1      33.632 -18.736 -24.052  0.00  0.00    +0.419 C 
ENDBRANCH  13  21
ENDBRANCH   5  12
BRANCH   6  22
ATOM     22  C   UNL     1      31.229 -24.427 -14.274  0.00  0.00    +0.056 C 
BRANCH  22  23
ATOM     23  C   UNL     1      32.167 -24.239 -13.083  0.00  0.00    +0.093 C 
BRANCH  23  25
ATOM     24  S   UNL     1      36.464 -25.358 -14.430  0.00  0.00    -0.101 S 
ATOM     25  N   UNL     1      33.516 -24.564 -13.437  0.00  0.00    -0.320 N 
ATOM     26  N   UNL     1      34.389 -23.862 -11.337  0.00  0.00    -0.233 NA
ATOM     27  N   UNL     1      36.747 -23.979 -10.809  0.00  0.00    -0.247 NA
ATOM     28  C   UNL     1      34.604 -24.372 -12.565  0.00  0.00    +0.118 C 
ATOM     29  C   UNL     1      35.899 -24.700 -12.948  0.00  0.00    +0.145 C 
ATOM     30  C   UNL     1      36.947 -24.493 -12.052  0.00  0.00    +0.073 C 
ATOM     31  C   UNL     1      38.205 -24.882 -12.604  0.00  0.00    +0.022 C 
ATOM     32  C   UNL     1      38.084 -25.368 -13.886  0.00  0.00    +0.033 C 
ATOM     33  C   UNL     1      35.462 -23.698 -10.541  0.00  0.00    +0.251 C 
ATOM     34  H   UNL     1      33.690 -24.936 -14.331  0.00  0.00    +0.148 HD
ENDBRANCH  23  25
ENDBRANCH  22  23
ENDBRANCH   6  22
TORSDOF 5
ENDMDL
