MODEL 1
REMARK VINA RESULT:     -12.6      0.000      0.000
REMARK  Name = 9911830
REMARK  5 active torsions:
REMARK  status: ('A' for Active; 'I' for Inactive)
REMARK    1  A    between atoms: C_2  and  O_20
REMARK    2  A    between atoms: C_3  and  N_10
REMARK    3  A    between atoms: O_20  and  C_24
REMARK    4  A    between atoms: C_26  and  O_31
REMARK    5  A    between atoms: C_28  and  O_33
REMARK                            x       y       z     vdW  Elec       q    Type
REMARK                         _______ _______ _______ _____ _____    ______ ____
ROOT
ATOM      1 CL   UNL     1      34.209 -15.689 -24.975  0.00  0.00    -0.081 Cl
ATOM      2  C   UNL     1      34.779 -17.620 -21.547  0.00  0.00    +0.146 C 
ATOM      3  C   UNL     1      34.161 -15.037 -22.325  0.00  0.00    +0.062 C 
ATOM      4  C   UNL     1      34.663 -17.331 -22.894  0.00  0.00    +0.050 C 
ATOM      5  C   UNL     1      34.593 -16.648 -20.578  0.00  0.00    +0.039 C 
ATOM      6  C   UNL     1      34.351 -16.030 -23.287  0.00  0.00    +0.074 C 
ATOM      7  C   UNL     1      34.281 -15.347 -20.971  0.00  0.00    +0.019 C 
ENDROOT
BRANCH   3  10
ATOM      8  O   UNL     1      30.452  -9.303 -21.826  0.00  0.00    -0.357 OA
ATOM      9  O   UNL     1      32.018 -13.223 -21.308  0.00  0.00    -0.252 OA
ATOM     10  N   UNL     1      33.845 -13.723 -22.686  0.00  0.00    -0.267 N 
ATOM     11  N   UNL     1      32.854 -11.645 -22.818  0.00  0.00    -0.251 N 
ATOM     12  N   UNL     1      31.028 -10.562 -21.723  0.00  0.00    -0.062 NA
ATOM     13  C   UNL     1      32.819 -12.893 -22.178  0.00  0.00    +0.309 C 
ATOM     14  C   UNL     1      32.006 -10.532 -22.606  0.00  0.00    +0.177 C 
ATOM     15  C   UNL     1      32.127  -9.337 -23.296  0.00  0.00    +0.073 C 
ATOM     16  C   UNL     1      31.115  -8.582 -22.766  0.00  0.00    +0.156 C 
ATOM     17  C   UNL     1      30.634  -7.215 -23.005  0.00  0.00    +0.075 C 
ATOM     18  H   UNL     1      34.413 -13.323 -23.383  0.00  0.00    +0.156 HD
ATOM     19  H   UNL     1      33.557 -11.527 -23.498  0.00  0.00    +0.158 HD
ENDBRANCH   3  10
BRANCH   2  20
ATOM     20  O   UNL     1      35.090 -18.910 -21.156  0.00  0.00    -0.453 OA
BRANCH  20  24
ATOM     21  N   UNL     1      31.982 -21.194 -19.631  0.00  0.00    -0.244 NA
ATOM     22  C   UNL     1      34.299 -20.534 -19.553  0.00  0.00    +0.055 C 
ATOM     23  C   UNL     1      33.206 -21.286 -19.076  0.00  0.00    +0.087 C 
ATOM     24  C   UNL     1      34.083 -19.671 -20.637  0.00  0.00    +0.148 C 
ATOM     25  C   UNL     1      35.562 -20.656 -18.950  0.00  0.00    +0.045 C 
ATOM     26  C   UNL     1      35.748 -21.520 -17.875  0.00  0.00    +0.173 C 
ATOM     27  C   UNL     1      33.420 -22.143 -18.000  0.00  0.00    +0.059 C 
ATOM     28  C   UNL     1      34.676 -22.264 -17.400  0.00  0.00    +0.174 C 
ATOM     29  C   UNL     1      32.824 -19.574 -21.211  0.00  0.00    +0.058 C 
ATOM     30  C   UNL     1      31.816 -20.350 -20.675  0.00  0.00    +0.102 C 
BRANCH  26  31
ATOM     31  O   UNL     1      36.979 -21.626 -17.301  0.00  0.00    -0.468 OA
ATOM     32  C   UNL     1      37.214 -20.858 -16.122  0.00  0.00    +0.253 C 
ENDBRANCH  26  31
BRANCH  28  33
ATOM     33  O   UNL     1      34.836 -23.116 -16.348  0.00  0.00    -0.468 OA
ATOM     34  C   UNL     1      34.112 -22.818 -15.156  0.00  0.00    +0.253 C 
ENDBRANCH  28  33
ENDBRANCH  20  24
ENDBRANCH   2  20
TORSDOF 5
ENDMDL
MODEL 2
REMARK VINA RESULT:     -12.4      3.858     10.312
REMARK  Name = 9911830
REMARK  5 active torsions:
REMARK  status: ('A' for Active; 'I' for Inactive)
REMARK    1  A    between atoms: C_2  and  O_20
REMARK    2  A    between atoms: C_3  and  N_10
REMARK    3  A    between atoms: O_20  and  C_24
REMARK    4  A    between atoms: C_26  and  O_31
REMARK    5  A    between atoms: C_28  and  O_33
REMARK                            x       y       z     vdW  Elec       q    Type
REMARK                         _______ _______ _______ _____ _____    ______ ____
ROOT
ATOM      1 CL   UNL     1      36.309 -21.651 -17.714  0.00  0.00    -0.081 Cl
ATOM      2  C   UNL     1      34.953 -19.410 -20.706  0.00  0.00    +0.146 C 
ATOM      3  C   UNL     1      33.875 -21.154 -18.846  0.00  0.00    +0.062 C 
ATOM      4  C   UNL     1      35.789 -20.021 -19.789  0.00  0.00    +0.050 C 
ATOM      5  C   UNL     1      33.589 -19.650 -20.714  0.00  0.00    +0.039 C 
ATOM      6  C   UNL     1      35.247 -20.899 -18.851  0.00  0.00    +0.074 C 
ATOM      7  C   UNL     1      33.047 -20.528 -19.776  0.00  0.00    +0.019 C 
ENDROOT
BRANCH   3  10
ATOM      8  O   UNL     1      28.599 -23.580 -15.217  0.00  0.00    -0.357 OA
ATOM      9  O   UNL     1      31.059 -21.345 -17.871  0.00  0.00    -0.252 OA
ATOM     10  N   UNL     1      33.299 -22.027 -17.918  0.00  0.00    -0.267 N 
ATOM     11  N   UNL     1      31.804 -23.117 -16.539  0.00  0.00    -0.251 N 
ATOM     12  N   UNL     1      29.475 -22.905 -16.058  0.00  0.00    -0.062 NA
ATOM     13  C   UNL     1      31.955 -22.087 -17.482  0.00  0.00    +0.309 C 
ATOM     14  C   UNL     1      30.628 -23.511 -15.859  0.00  0.00    +0.177 C 
ATOM     15  C   UNL     1      30.588 -24.548 -14.942  0.00  0.00    +0.073 C 
ATOM     16  C   UNL     1      29.274 -24.557 -14.557  0.00  0.00    +0.156 C 
ATOM     17  C   UNL     1      28.493 -25.374 -13.620  0.00  0.00    +0.075 C 
ATOM     18  H   UNL     1      33.909 -22.688 -17.517  0.00  0.00    +0.156 HD
ATOM     19  H   UNL     1      32.618 -23.629 -16.325  0.00  0.00    +0.158 HD
ENDBRANCH   3  10
BRANCH   2  20
ATOM     20  O   UNL     1      35.489 -18.541 -21.637  0.00  0.00    -0.453 OA
BRANCH  20  24
ATOM     21  N   UNL     1      33.309 -17.920 -25.110  0.00  0.00    -0.244 NA
ATOM     22  C   UNL     1      34.307 -17.030 -23.105  0.00  0.00    +0.055 C 
ATOM     23  C   UNL     1      33.571 -16.878 -24.298  0.00  0.00    +0.087 C 
ATOM     24  C   UNL     1      34.770 -18.312 -22.775  0.00  0.00    +0.148 C 
ATOM     25  C   UNL     1      34.562 -15.921 -22.281  0.00  0.00    +0.045 C 
ATOM     26  C   UNL     1      34.091 -14.660 -22.633  0.00  0.00    +0.173 C 
ATOM     27  C   UNL     1      33.111 -15.605 -24.626  0.00  0.00    +0.059 C 
ATOM     28  C   UNL     1      33.365 -14.502 -23.807  0.00  0.00    +0.174 C 
ATOM     29  C   UNL     1      34.502 -19.387 -23.609  0.00  0.00    +0.058 C 
ATOM     30  C   UNL     1      33.773 -19.140 -24.755  0.00  0.00    +0.102 C 
BRANCH  26  31
ATOM     31  O   UNL     1      34.347 -13.594 -21.823  0.00  0.00    -0.468 OA
ATOM     32  C   UNL     1      33.484 -13.408 -20.703  0.00  0.00    +0.253 C 
ENDBRANCH  26  31
BRANCH  28  33
ATOM     33  O   UNL     1      32.894 -13.276 -24.171  0.00  0.00    -0.468 OA
ATOM     34  C   UNL     1      32.712 -13.040 -25.566  0.00  0.00    +0.253 C 
ENDBRANCH  28  33
ENDBRANCH  20  24
ENDBRANCH   2  20
TORSDOF 5
ENDMDL
MODEL 3
REMARK VINA RESULT:     -12.3      2.492      4.359
REMARK  Name = 9911830
REMARK  5 active torsions:
REMARK  status: ('A' for Active; 'I' for Inactive)
REMARK    1  A    between atoms: C_2  and  O_20
REMARK    2  A    between atoms: C_3  and  N_10
REMARK    3  A    between atoms: O_20  and  C_24
REMARK    4  A    between atoms: C_26  and  O_31
REMARK    5  A    between atoms: C_28  and  O_33
REMARK                            x       y       z     vdW  Elec       q    Type
REMARK                         _______ _______ _______ _____ _____    ______ ____
ROOT
ATOM      1 CL   UNL     1      36.983 -18.629 -21.069  0.00  0.00    -0.081 Cl
ATOM      2  C   UNL     1      34.633 -21.270 -19.248  0.00  0.00    +0.146 C 
ATOM      3  C   UNL     1      34.294 -19.051 -20.867  0.00  0.00    +0.062 C 
ATOM      4  C   UNL     1      35.748 -20.585 -19.698  0.00  0.00    +0.050 C 
ATOM      5  C   UNL     1      33.352 -20.871 -19.588  0.00  0.00    +0.039 C 
ATOM      6  C   UNL     1      35.578 -19.468 -20.515  0.00  0.00    +0.074 C 
ATOM      7  C   UNL     1      33.182 -19.754 -20.405  0.00  0.00    +0.019 C 
ENDROOT
BRANCH   3  10
ATOM      8  O   UNL     1      33.842 -12.311 -21.988  0.00  0.00    -0.357 OA
ATOM      9  O   UNL     1      34.334 -16.140 -20.203  0.00  0.00    -0.252 OA
ATOM     10  N   UNL     1      34.088 -17.937 -21.686  0.00  0.00    -0.267 N 
ATOM     11  N   UNL     1      33.858 -15.777 -22.464  0.00  0.00    -0.251 N 
ATOM     12  N   UNL     1      33.987 -13.600 -21.491  0.00  0.00    -0.062 NA
ATOM     13  C   UNL     1      34.117 -16.567 -21.333  0.00  0.00    +0.309 C 
ATOM     14  C   UNL     1      33.795 -14.366 -22.545  0.00  0.00    +0.177 C 
ATOM     15  C   UNL     1      33.530 -13.680 -23.720  0.00  0.00    +0.073 C 
ATOM     16  C   UNL     1      33.570 -12.372 -23.318  0.00  0.00    +0.156 C 
ATOM     17  C   UNL     1      33.386 -11.090 -24.008  0.00  0.00    +0.075 C 
ATOM     18  H   UNL     1      33.900 -18.130 -22.633  0.00  0.00    +0.156 HD
ATOM     19  H   UNL     1      33.701 -16.265 -23.305  0.00  0.00    +0.158 HD
ENDBRANCH   3  10
BRANCH   2  20
ATOM     20  O   UNL     1      34.801 -22.377 -18.436  0.00  0.00    -0.453 OA
BRANCH  20  24
ATOM     21  N   UNL     1      32.184 -22.776 -15.244  0.00  0.00    -0.244 NA
ATOM     22  C   UNL     1      34.447 -22.672 -16.065  0.00  0.00    +0.055 C 
ATOM     23  C   UNL     1      33.511 -22.802 -15.019  0.00  0.00    +0.087 C 
ATOM     24  C   UNL     1      33.959 -22.511 -17.370  0.00  0.00    +0.148 C 
ATOM     25  C   UNL     1      35.825 -22.704 -15.793  0.00  0.00    +0.045 C 
ATOM     26  C   UNL     1      36.282 -22.864 -14.489  0.00  0.00    +0.173 C 
ATOM     27  C   UNL     1      33.995 -22.963 -13.723  0.00  0.00    +0.059 C 
ATOM     28  C   UNL     1      35.365 -22.994 -13.453  0.00  0.00    +0.174 C 
ATOM     29  C   UNL     1      32.592 -22.483 -17.606  0.00  0.00    +0.058 C 
ATOM     30  C   UNL     1      31.754 -22.619 -16.518  0.00  0.00    +0.102 C 
BRANCH  26  31
ATOM     31  O   UNL     1      37.621 -22.893 -14.242  0.00  0.00    -0.468 OA
ATOM     32  C   UNL     1      38.298 -24.126 -14.477  0.00  0.00    +0.253 C 
ENDBRANCH  26  31
BRANCH  28  33
ATOM     33  O   UNL     1      35.790 -23.152 -12.168  0.00  0.00    -0.468 OA
ATOM     34  C   UNL     1      35.799 -24.479 -11.646  0.00  0.00    +0.253 C 
ENDBRANCH  28  33
ENDBRANCH  20  24
ENDBRANCH   2  20
TORSDOF 5
ENDMDL
MODEL 4
REMARK VINA RESULT:     -12.0      2.553      4.595
REMARK  Name = 9911830
REMARK  5 active torsions:
REMARK  status: ('A' for Active; 'I' for Inactive)
REMARK    1  A    between atoms: C_2  and  O_20
REMARK    2  A    between atoms: C_3  and  N_10
REMARK    3  A    between atoms: O_20  and  C_24
REMARK    4  A    between atoms: C_26  and  O_31
REMARK    5  A    between atoms: C_28  and  O_33
REMARK                            x       y       z     vdW  Elec       q    Type
REMARK                         _______ _______ _______ _____ _____    ______ ____
ROOT
ATOM      1 CL   UNL     1      37.103 -18.389 -21.390  0.00  0.00    -0.081 Cl
ATOM      2  C   UNL     1      34.759 -21.064 -19.612  0.00  0.00    +0.146 C 
ATOM      3  C   UNL     1      34.414 -18.755 -21.099  0.00  0.00    +0.062 C 
ATOM      4  C   UNL     1      35.873 -20.384 -20.072  0.00  0.00    +0.050 C 
ATOM      5  C   UNL     1      33.476 -20.616 -19.877  0.00  0.00    +0.039 C 
ATOM      6  C   UNL     1      35.700 -19.222 -20.823  0.00  0.00    +0.074 C 
ATOM      7  C   UNL     1      33.303 -19.453 -20.627  0.00  0.00    +0.019 C 
ENDROOT
BRANCH   3  10
ATOM      8  O   UNL     1      33.698 -11.979 -21.773  0.00  0.00    -0.357 OA
ATOM      9  O   UNL     1      34.266 -15.901 -20.232  0.00  0.00    -0.252 OA
ATOM     10  N   UNL     1      34.206 -17.594 -21.850  0.00  0.00    -0.267 N 
ATOM     11  N   UNL     1      33.918 -15.396 -22.488  0.00  0.00    -0.251 N 
ATOM     12  N   UNL     1      33.875 -13.292 -21.358  0.00  0.00    -0.062 NA
ATOM     13  C   UNL     1      34.143 -16.254 -21.400  0.00  0.00    +0.309 C 
ATOM     14  C   UNL     1      33.790 -13.987 -22.475  0.00  0.00    +0.177 C 
ATOM     15  C   UNL     1      33.566 -13.230 -23.613  0.00  0.00    +0.073 C 
ATOM     16  C   UNL     1      33.515 -11.954 -23.119  0.00  0.00    +0.156 C 
ATOM     17  C   UNL     1      33.311 -10.635 -23.729  0.00  0.00    +0.075 C 
ATOM     18  H   UNL     1      34.089 -17.726 -22.818  0.00  0.00    +0.156 HD
ATOM     19  H   UNL     1      33.840 -15.828 -23.370  0.00  0.00    +0.158 HD
ENDBRANCH   3  10
BRANCH   2  20
ATOM     20  O   UNL     1      34.930 -22.216 -18.866  0.00  0.00    -0.453 OA
BRANCH  20  24
ATOM     21  N   UNL     1      35.857 -21.756 -14.851  0.00  0.00    -0.244 NA
ATOM     22  C   UNL     1      34.261 -22.365 -16.550  0.00  0.00    +0.055 C 
ATOM     23  C   UNL     1      34.632 -22.190 -15.201  0.00  0.00    +0.087 C 
ATOM     24  C   UNL     1      35.212 -22.072 -17.538  0.00  0.00    +0.148 C 
ATOM     25  C   UNL     1      32.973 -22.819 -16.880  0.00  0.00    +0.045 C 
ATOM     26  C   UNL     1      32.049 -23.102 -15.879  0.00  0.00    +0.173 C 
ATOM     27  C   UNL     1      33.687 -22.480 -14.220  0.00  0.00    +0.059 C 
ATOM     28  C   UNL     1      32.407 -22.932 -14.548  0.00  0.00    +0.174 C 
ATOM     29  C   UNL     1      36.475 -21.625 -17.180  0.00  0.00    +0.058 C 
ATOM     30  C   UNL     1      36.745 -21.485 -15.834  0.00  0.00    +0.102 C 
BRANCH  26  31
ATOM     31  O   UNL     1      30.804 -23.542 -16.215  0.00  0.00    -0.468 OA
ATOM     32  C   UNL     1      29.749 -22.582 -16.198  0.00  0.00    +0.253 C 
ENDBRANCH  26  31
BRANCH  28  33
ATOM     33  O   UNL     1      31.518 -23.204 -13.551  0.00  0.00    -0.468 OA
ATOM     34  C   UNL     1      31.394 -24.566 -13.146  0.00  0.00    +0.253 C 
ENDBRANCH  28  33
ENDBRANCH  20  24
ENDBRANCH   2  20
TORSDOF 5
ENDMDL
MODEL 5
REMARK VINA RESULT:     -11.8      3.131      5.419
REMARK  Name = 9911830
REMARK  5 active torsions:
REMARK  status: ('A' for Active; 'I' for Inactive)
REMARK    1  A    between atoms: C_2  and  O_20
REMARK    2  A    between atoms: C_3  and  N_10
REMARK    3  A    between atoms: O_20  and  C_24
REMARK    4  A    between atoms: C_26  and  O_31
REMARK    5  A    between atoms: C_28  and  O_33
REMARK                            x       y       z     vdW  Elec       q    Type
REMARK                         _______ _______ _______ _____ _____    ______ ____
ROOT
ATOM      1 CL   UNL     1      32.019 -20.464 -20.274  0.00  0.00    -0.081 Cl
ATOM      2  C   UNL     1      35.387 -21.406 -18.384  0.00  0.00    +0.146 C 
ATOM      3  C   UNL     1      34.652 -19.785 -20.503  0.00  0.00    +0.062 C 
ATOM      4  C   UNL     1      34.057 -21.345 -18.757  0.00  0.00    +0.050 C 
ATOM      5  C   UNL     1      36.360 -20.675 -19.045  0.00  0.00    +0.039 C 
ATOM      6  C   UNL     1      33.685 -20.527 -19.824  0.00  0.00    +0.074 C 
ATOM      7  C   UNL     1      35.988 -19.858 -20.112  0.00  0.00    +0.019 C 
ENDROOT
BRANCH   3  10
ATOM      8  O   UNL     1      33.861 -13.657 -23.456  0.00  0.00    -0.357 OA
ATOM      9  O   UNL     1      34.686 -16.806 -20.719  0.00  0.00    -0.252 OA
ATOM     10  N   UNL     1      34.313 -18.954 -21.576  0.00  0.00    -0.267 N 
ATOM     11  N   UNL     1      33.923 -17.112 -22.908  0.00  0.00    -0.251 N 
ATOM     12  N   UNL     1      34.106 -14.747 -22.630  0.00  0.00    -0.062 NA
ATOM     13  C   UNL     1      34.344 -17.541 -21.640  0.00  0.00    +0.309 C 
ATOM     14  C   UNL     1      33.808 -15.785 -23.385  0.00  0.00    +0.177 C 
ATOM     15  C   UNL     1      33.380 -15.468 -24.664  0.00  0.00    +0.073 C 
ATOM     16  C   UNL     1      33.429 -14.099 -24.665  0.00  0.00    +0.156 C 
ATOM     17  C   UNL     1      33.122 -13.072 -25.668  0.00  0.00    +0.075 C 
ATOM     18  H   UNL     1      34.016 -19.413 -22.394  0.00  0.00    +0.156 HD
ATOM     19  H   UNL     1      33.679 -17.822 -23.546  0.00  0.00    +0.158 HD
ENDBRANCH   3  10
BRANCH   2  20
ATOM     20  O   UNL     1      35.757 -22.217 -17.326  0.00  0.00    -0.453 OA
BRANCH  20  24
ATOM     21  N   UNL     1      32.738 -23.349 -14.718  0.00  0.00    -0.244 NA
ATOM     22  C   UNL     1      35.087 -23.037 -15.156  0.00  0.00    +0.055 C 
ATOM     23  C   UNL     1      34.021 -23.409 -14.312  0.00  0.00    +0.087 C 
ATOM     24  C   UNL     1      34.780 -22.595 -16.450  0.00  0.00    +0.148 C 
ATOM     25  C   UNL     1      36.414 -23.112 -14.699  0.00  0.00    +0.045 C 
ATOM     26  C   UNL     1      36.690 -23.554 -13.408  0.00  0.00    +0.173 C 
ATOM     27  C   UNL     1      34.325 -23.848 -13.026  0.00  0.00    +0.059 C 
ATOM     28  C   UNL     1      35.644 -23.922 -12.572  0.00  0.00    +0.174 C 
ATOM     29  C   UNL     1      33.460 -22.532 -16.872  0.00  0.00    +0.058 C 
ATOM     30  C   UNL     1      32.485 -22.917 -15.974  0.00  0.00    +0.102 C 
BRANCH  26  31
ATOM     31  O   UNL     1      37.982 -23.621 -12.981  0.00  0.00    -0.468 OA
ATOM     32  C   UNL     1      38.737 -24.766 -13.372  0.00  0.00    +0.253 C 
ENDBRANCH  26  31
BRANCH  28  33
ATOM     33  O   UNL     1      35.892 -24.358 -11.304  0.00  0.00    -0.468 OA
ATOM     34  C   UNL     1      35.695 -23.421 -10.247  0.00  0.00    +0.253 C 
ENDBRANCH  28  33
ENDBRANCH  20  24
ENDBRANCH   2  20
TORSDOF 5
ENDMDL
MODEL 6
REMARK VINA RESULT:     -11.7      2.633      5.002
REMARK  Name = 9911830
REMARK  5 active torsions:
REMARK  status: ('A' for Active; 'I' for Inactive)
REMARK    1  A    between atoms: C_2  and  O_20
REMARK    2  A    between atoms: C_3  and  N_10
REMARK    3  A    between atoms: O_20  and  C_24
REMARK    4  A    between atoms: C_26  and  O_31
REMARK    5  A    between atoms: C_28  and  O_33
REMARK                            x       y       z     vdW  Elec       q    Type
REMARK                         _______ _______ _______ _____ _____    ______ ____
ROOT
ATOM      1 CL   UNL     1      36.899 -18.727 -20.961  0.00  0.00    -0.081 Cl
ATOM      2  C   UNL     1      34.526 -21.283 -19.054  0.00  0.00    +0.146 C 
ATOM      3  C   UNL     1      34.208 -19.136 -20.770  0.00  0.00    +0.062 C 
ATOM      4  C   UNL     1      35.647 -20.621 -19.522  0.00  0.00    +0.050 C 
ATOM      5  C   UNL     1      33.249 -20.897 -19.425  0.00  0.00    +0.039 C 
ATOM      6  C   UNL     1      35.487 -19.539 -20.387  0.00  0.00    +0.074 C 
ATOM      7  C   UNL     1      33.089 -19.815 -20.290  0.00  0.00    +0.019 C 
ENDROOT
BRANCH   3  10
ATOM      8  O   UNL     1      33.879 -12.447 -22.202  0.00  0.00    -0.357 OA
ATOM      9  O   UNL     1      34.317 -16.198 -20.245  0.00  0.00    -0.252 OA
ATOM     10  N   UNL     1      34.013 -18.056 -21.638  0.00  0.00    -0.267 N 
ATOM     11  N   UNL     1      33.816 -15.931 -22.513  0.00  0.00    -0.251 N 
ATOM     12  N   UNL     1      34.005 -13.714 -21.646  0.00  0.00    -0.062 NA
ATOM     13  C   UNL     1      34.075 -16.673 -21.350  0.00  0.00    +0.309 C 
ATOM     14  C   UNL     1      33.781 -14.524 -22.660  0.00  0.00    +0.177 C 
ATOM     15  C   UNL     1      33.513 -13.889 -23.862  0.00  0.00    +0.073 C 
ATOM     16  C   UNL     1      33.586 -12.564 -23.523  0.00  0.00    +0.156 C 
ATOM     17  C   UNL     1      33.418 -11.312 -24.270  0.00  0.00    +0.075 C 
ATOM     18  H   UNL     1      33.807 -18.290 -22.572  0.00  0.00    +0.156 HD
ATOM     19  H   UNL     1      33.636 -16.454 -23.329  0.00  0.00    +0.158 HD
ENDBRANCH   3  10
BRANCH   2  20
ATOM     20  O   UNL     1      34.683 -22.356 -18.195  0.00  0.00    -0.453 OA
BRANCH  20  24
ATOM     21  N   UNL     1      37.080 -21.745 -14.867  0.00  0.00    -0.244 NA
ATOM     22  C   UNL     1      35.054 -22.631 -15.824  0.00  0.00    +0.055 C 
ATOM     23  C   UNL     1      35.909 -22.395 -14.728  0.00  0.00    +0.087 C 
ATOM     24  C   UNL     1      35.455 -22.166 -17.085  0.00  0.00    +0.148 C 
ATOM     25  C   UNL     1      33.838 -23.313 -15.644  0.00  0.00    +0.045 C 
ATOM     26  C   UNL     1      33.466 -23.764 -14.381  0.00  0.00    +0.173 C 
ATOM     27  C   UNL     1      35.511 -22.857 -13.476  0.00  0.00    +0.059 C 
ATOM     28  C   UNL     1      34.303 -23.535 -13.297  0.00  0.00    +0.174 C 
ATOM     29  C   UNL     1      36.660 -21.496 -17.231  0.00  0.00    +0.058 C 
ATOM     30  C   UNL     1      37.430 -21.313 -16.100  0.00  0.00    +0.102 C 
BRANCH  26  31
ATOM     31  O   UNL     1      32.285 -24.424 -14.223  0.00  0.00    -0.468 OA
ATOM     32  C   UNL     1      31.089 -23.676 -14.438  0.00  0.00    +0.253 C 
ENDBRANCH  26  31
BRANCH  28  33
ATOM     33  O   UNL     1      33.958 -23.968 -12.051  0.00  0.00    -0.468 OA
ATOM     34  C   UNL     1      35.021 -24.227 -11.137  0.00  0.00    +0.253 C 
ENDBRANCH  28  33
ENDBRANCH  20  24
ENDBRANCH   2  20
TORSDOF 5
ENDMDL
MODEL 7
REMARK VINA RESULT:     -11.2      3.373      5.105
REMARK  Name = 9911830
REMARK  5 active torsions:
REMARK  status: ('A' for Active; 'I' for Inactive)
REMARK    1  A    between atoms: C_2  and  O_20
REMARK    2  A    between atoms: C_3  and  N_10
REMARK    3  A    between atoms: O_20  and  C_24
REMARK    4  A    between atoms: C_26  and  O_31
REMARK    5  A    between atoms: C_28  and  O_33
REMARK                            x       y       z     vdW  Elec       q    Type
REMARK                         _______ _______ _______ _____ _____    ______ ____
ROOT
ATOM      1 CL   UNL     1      37.088 -18.285 -21.253  0.00  0.00    -0.081 Cl
ATOM      2  C   UNL     1      34.775 -21.005 -19.505  0.00  0.00    +0.146 C 
ATOM      3  C   UNL     1      34.414 -18.581 -20.789  0.00  0.00    +0.062 C 
ATOM      4  C   UNL     1      35.878 -20.331 -19.997  0.00  0.00    +0.050 C 
ATOM      5  C   UNL     1      33.495 -20.496 -19.640  0.00  0.00    +0.039 C 
ATOM      6  C   UNL     1      35.697 -19.110 -20.645  0.00  0.00    +0.074 C 
ATOM      7  C   UNL     1      33.314 -19.274 -20.288  0.00  0.00    +0.019 C 
ENDROOT
BRANCH   3  10
ATOM      8  O   UNL     1      32.977 -14.765 -26.291  0.00  0.00    -0.357 OA
ATOM      9  O   UNL     1      33.757 -18.002 -23.644  0.00  0.00    -0.252 OA
ATOM     10  N   UNL     1      34.198 -17.359 -21.435  0.00  0.00    -0.267 N 
ATOM     11  N   UNL     1      33.751 -15.747 -23.024  0.00  0.00    -0.251 N 
ATOM     12  N   UNL     1      33.242 -15.759 -25.357  0.00  0.00    -0.062 NA
ATOM     13  C   UNL     1      33.886 -17.126 -22.795  0.00  0.00    +0.309 C 
ATOM     14  C   UNL     1      33.445 -15.091 -24.239  0.00  0.00    +0.177 C 
ATOM     15  C   UNL     1      33.334 -13.715 -24.357  0.00  0.00    +0.073 C 
ATOM     16  C   UNL     1      33.035 -13.552 -25.683  0.00  0.00    +0.156 C 
ATOM     17  C   UNL     1      32.777 -12.381 -26.531  0.00  0.00    +0.075 C 
ATOM     18  H   UNL     1      34.271 -16.557 -20.869  0.00  0.00    +0.156 HD
ATOM     19  H   UNL     1      33.885 -15.164 -22.241  0.00  0.00    +0.158 HD
ENDBRANCH   3  10
BRANCH   2  20
ATOM     20  O   UNL     1      34.953 -22.216 -18.861  0.00  0.00    -0.453 OA
BRANCH  20  24
ATOM     21  N   UNL     1      35.818 -22.103 -14.806  0.00  0.00    -0.244 NA
ATOM     22  C   UNL     1      34.224 -22.481 -16.573  0.00  0.00    +0.055 C 
ATOM     23  C   UNL     1      34.575 -22.427 -15.209  0.00  0.00    +0.087 C 
ATOM     24  C   UNL     1      35.214 -22.185 -17.521  0.00  0.00    +0.148 C 
ATOM     25  C   UNL     1      32.916 -22.823 -16.958  0.00  0.00    +0.045 C 
ATOM     26  C   UNL     1      31.953 -23.112 -15.996  0.00  0.00    +0.173 C 
ATOM     27  C   UNL     1      33.591 -22.720 -14.268  0.00  0.00    +0.059 C 
ATOM     28  C   UNL     1      32.291 -23.060 -14.650  0.00  0.00    +0.174 C 
ATOM     29  C   UNL     1      36.496 -21.851 -17.110  0.00  0.00    +0.058 C 
ATOM     30  C   UNL     1      36.744 -21.825 -15.752  0.00  0.00    +0.102 C 
BRANCH  26  31
ATOM     31  O   UNL     1      30.690 -23.442 -16.385  0.00  0.00    -0.468 OA
ATOM     32  C   UNL     1      29.679 -22.448 -16.220  0.00  0.00    +0.253 C 
ENDBRANCH  26  31
BRANCH  28  33
ATOM     33  O   UNL     1      31.364 -23.340 -13.691  0.00  0.00    -0.468 OA
ATOM     34  C   UNL     1      31.264 -24.696 -13.261  0.00  0.00    +0.253 C 
ENDBRANCH  28  33
ENDBRANCH  20  24
ENDBRANCH   2  20
TORSDOF 5
ENDMDL
MODEL 8
REMARK VINA RESULT:     -11.2      1.934      2.955
REMARK  Name = 9911830
REMARK  5 active torsions:
REMARK  status: ('A' for Active; 'I' for Inactive)
REMARK    1  A    between atoms: C_2  and  O_20
REMARK    2  A    between atoms: C_3  and  N_10
REMARK    3  A    between atoms: O_20  and  C_24
REMARK    4  A    between atoms: C_26  and  O_31
REMARK    5  A    between atoms: C_28  and  O_33
REMARK                            x       y       z     vdW  Elec       q    Type
REMARK                         _______ _______ _______ _____ _____    ______ ____
ROOT
ATOM      1 CL   UNL     1      32.991 -13.753 -25.846  0.00  0.00    -0.081 Cl
ATOM      2  C   UNL     1      33.729 -16.315 -22.897  0.00  0.00    +0.146 C 
ATOM      3  C   UNL     1      33.638 -13.565 -23.201  0.00  0.00    +0.062 C 
ATOM      4  C   UNL     1      33.423 -15.782 -24.137  0.00  0.00    +0.050 C 
ATOM      5  C   UNL     1      33.991 -15.505 -21.805  0.00  0.00    +0.039 C 
ATOM      6  C   UNL     1      33.376 -14.397 -24.291  0.00  0.00    +0.074 C 
ATOM      7  C   UNL     1      33.944 -14.119 -21.959  0.00  0.00    +0.019 C 
ENDROOT
BRANCH   3  10
ATOM      8  O   UNL     1      30.724  -7.445 -22.232  0.00  0.00    -0.357 OA
ATOM      9  O   UNL     1      31.578 -11.611 -22.276  0.00  0.00    -0.252 OA
ATOM     10  N   UNL     1      33.598 -12.173 -23.322  0.00  0.00    -0.267 N 
ATOM     11  N   UNL     1      32.956  -9.961 -23.195  0.00  0.00    -0.251 N 
ATOM     12  N   UNL     1      31.084  -8.785 -22.291  0.00  0.00    -0.062 NA
ATOM     13  C   UNL     1      32.601 -11.278 -22.867  0.00  0.00    +0.309 C 
ATOM     14  C   UNL     1      32.240  -8.771 -22.924  0.00  0.00    +0.177 C 
ATOM     15  C   UNL     1      32.683  -7.512 -23.295  0.00  0.00    +0.073 C 
ATOM     16  C   UNL     1      31.685  -6.696 -22.832  0.00  0.00    +0.156 C 
ATOM     17  C   UNL     1      31.463  -5.245 -22.859  0.00  0.00    +0.075 C 
ATOM     18  H   UNL     1      34.365 -11.761 -23.781  0.00  0.00    +0.156 HD
ATOM     19  H   UNL     1      33.811  -9.850 -23.673  0.00  0.00    +0.158 HD
ENDBRANCH   3  10
BRANCH   2  20
ATOM     20  O   UNL     1      33.777 -17.688 -22.743  0.00  0.00    -0.453 OA
BRANCH  20  24
ATOM     21  N   UNL     1      37.025 -19.223 -20.672  0.00  0.00    -0.244 NA
ATOM     22  C   UNL     1      34.653 -19.220 -21.094  0.00  0.00    +0.055 C 
ATOM     23  C   UNL     1      35.793 -19.704 -20.421  0.00  0.00    +0.087 C 
ATOM     24  C   UNL     1      34.831 -18.209 -22.049  0.00  0.00    +0.148 C 
ATOM     25  C   UNL     1      33.382 -19.745 -20.806  0.00  0.00    +0.045 C 
ATOM     26  C   UNL     1      33.234 -20.749 -19.854  0.00  0.00    +0.173 C 
ATOM     27  C   UNL     1      35.616 -20.708 -19.472  0.00  0.00    +0.059 C 
ATOM     28  C   UNL     1      34.353 -21.230 -19.186  0.00  0.00    +0.174 C 
ATOM     29  C   UNL     1      36.099 -17.711 -22.310  0.00  0.00    +0.058 C 
ATOM     30  C   UNL     1      37.154 -18.247 -21.601  0.00  0.00    +0.102 C 
BRANCH  26  31
ATOM     31  O   UNL     1      31.995 -21.248 -19.587  0.00  0.00    -0.468 OA
ATOM     32  C   UNL     1      31.600 -21.308 -18.218  0.00  0.00    +0.253 C 
ENDBRANCH  26  31
BRANCH  28  33
ATOM     33  O   UNL     1      34.231 -22.214 -18.250  0.00  0.00    -0.468 OA
ATOM     34  C   UNL     1      34.969 -22.052 -17.041  0.00  0.00    +0.253 C 
ENDBRANCH  28  33
ENDBRANCH  20  24
ENDBRANCH   2  20
TORSDOF 5
ENDMDL
MODEL 9
REMARK VINA RESULT:     -11.0      3.530      4.997
REMARK  Name = 9911830
REMARK  5 active torsions:
REMARK  status: ('A' for Active; 'I' for Inactive)
REMARK    1  A    between atoms: C_2  and  O_20
REMARK    2  A    between atoms: C_3  and  N_10
REMARK    3  A    between atoms: O_20  and  C_24
REMARK    4  A    between atoms: C_26  and  O_31
REMARK    5  A    between atoms: C_28  and  O_33
REMARK                            x       y       z     vdW  Elec       q    Type
REMARK                         _______ _______ _______ _____ _____    ______ ____
ROOT
ATOM      1 CL   UNL     1      36.856 -18.991 -20.597  0.00  0.00    -0.081 Cl
ATOM      2  C   UNL     1      34.151 -21.530 -19.166  0.00  0.00    +0.146 C 
ATOM      3  C   UNL     1      34.131 -19.097 -20.485  0.00  0.00    +0.062 C 
ATOM      4  C   UNL     1      35.353 -20.938 -19.510  0.00  0.00    +0.050 C 
ATOM      5  C   UNL     1      32.938 -20.934 -19.466  0.00  0.00    +0.039 C 
ATOM      6  C   UNL     1      35.344 -19.713 -20.175  0.00  0.00    +0.074 C 
ATOM      7  C   UNL     1      32.928 -19.709 -20.131  0.00  0.00    +0.019 C 
ENDROOT
BRANCH   3  10
ATOM      8  O   UNL     1      33.036 -15.199 -26.007  0.00  0.00    -0.357 OA
ATOM      9  O   UNL     1      33.413 -18.469 -23.315  0.00  0.00    -0.252 OA
ATOM     10  N   UNL     1      34.086 -17.869 -21.153  0.00  0.00    -0.267 N 
ATOM     11  N   UNL     1      33.824 -16.236 -22.760  0.00  0.00    -0.251 N 
ATOM     12  N   UNL     1      33.184 -16.205 -25.061  0.00  0.00    -0.062 NA
ATOM     13  C   UNL     1      33.738 -17.612 -22.500  0.00  0.00    +0.309 C 
ATOM     14  C   UNL     1      33.562 -15.560 -23.976  0.00  0.00    +0.177 C 
ATOM     15  C   UNL     1      33.678 -14.188 -24.127  0.00  0.00    +0.073 C 
ATOM     16  C   UNL     1      33.333 -14.002 -25.439  0.00  0.00    +0.156 C 
ATOM     17  C   UNL     1      33.227 -12.821 -26.305  0.00  0.00    +0.075 C 
ATOM     18  H   UNL     1      34.326 -17.081 -20.615  0.00  0.00    +0.156 HD
ATOM     19  H   UNL     1      34.101 -15.669 -22.003  0.00  0.00    +0.158 HD
ENDBRANCH   3  10
BRANCH   2  20
ATOM     20  O   UNL     1      34.160 -22.745 -18.504  0.00  0.00    -0.453 OA
BRANCH  20  24
ATOM     21  N   UNL     1      32.345 -22.892 -14.778  0.00  0.00    -0.244 NA
ATOM     22  C   UNL     1      34.358 -22.785 -16.098  0.00  0.00    +0.055 C 
ATOM     23  C   UNL     1      33.688 -22.836 -14.859  0.00  0.00    +0.087 C 
ATOM     24  C   UNL     1      33.585 -22.793 -17.267  0.00  0.00    +0.148 C 
ATOM     25  C   UNL     1      35.762 -22.727 -16.144  0.00  0.00    +0.045 C 
ATOM     26  C   UNL     1      36.505 -22.721 -14.968  0.00  0.00    +0.173 C 
ATOM     27  C   UNL     1      34.456 -22.828 -13.697  0.00  0.00    +0.059 C 
ATOM     28  C   UNL     1      35.851 -22.771 -13.743  0.00  0.00    +0.174 C 
ATOM     29  C   UNL     1      32.201 -22.850 -17.188  0.00  0.00    +0.058 C 
ATOM     30  C   UNL     1      31.635 -22.897 -15.930  0.00  0.00    +0.102 C 
BRANCH  26  31
ATOM     31  O   UNL     1      37.865 -22.664 -15.030  0.00  0.00    -0.468 OA
ATOM     32  C   UNL     1      38.569 -23.903 -14.972  0.00  0.00    +0.253 C 
ENDBRANCH  26  31
BRANCH  28  33
ATOM     33  O   UNL     1      36.559 -22.765 -12.578  0.00  0.00    -0.468 OA
ATOM     34  C   UNL     1      35.867 -23.163 -11.397  0.00  0.00    +0.253 C 
ENDBRANCH  28  33
ENDBRANCH  20  24
ENDBRANCH   2  20
TORSDOF 5
ENDMDL
