MODEL 1
REMARK VINA RESULT:     -12.3      0.000      0.000
REMARK  Name = 11234052
REMARK  6 active torsions:
REMARK  status: ('A' for Active; 'I' for Inactive)
REMARK    1  A    between atoms: C_6  and  O_11
REMARK    2  A    between atoms: C_8  and  O_17
REMARK    3  A    between atoms: O_11  and  C_12
REMARK    4  A    between atoms: C_12  and  C_13
REMARK    5  A    between atoms: C_13  and  O_15
REMARK    6  A    between atoms: O_17  and  C_22
REMARK                            x       y       z     vdW  Elec       q    Type
REMARK                         _______ _______ _______ _____ _____    ______ ____
ROOT
ATOM      1  N   UNL     1      31.722 -23.054 -14.594  0.00  0.00    -0.180 N 
ATOM      2  N   UNL     1      30.510 -22.643 -15.058  0.00  0.00    -0.151 NA
ATOM      3  N   UNL     1      31.548 -22.439 -17.232  0.00  0.00    -0.187 NA
ATOM      4  C   UNL     1      32.838 -23.170 -15.382  0.00  0.00    +0.126 C 
ATOM      5  C   UNL     1      33.881 -23.607 -14.598  0.00  0.00    +0.034 C 
ATOM      6  C   UNL     1      33.371 -23.759 -13.282  0.00  0.00    +0.153 C 
ATOM      7  C   UNL     1      32.036 -23.411 -13.308  0.00  0.00    +0.126 C 
ATOM      8  C   UNL     1      32.683 -22.833 -16.753  0.00  0.00    +0.247 C 
ATOM      9  C   UNL     1      35.279 -23.881 -14.989  0.00  0.00    +0.036 C 
ATOM     10  C   UNL     1      30.492 -22.362 -16.334  0.00  0.00    +0.220 C 
ENDROOT
BRANCH   6  11
ATOM     11  O   UNL     1      34.025 -24.164 -12.184  0.00  0.00    -0.472 OA
BRANCH  11  12
ATOM     12  C   UNL     1      34.925 -23.231 -11.577  0.00  0.00    +0.234 C 
BRANCH  12  13
ATOM     13  C   UNL     1      36.049 -23.998 -10.895  0.00  0.00    +0.154 C 
ATOM     14  C   UNL     1      37.392 -23.717 -11.550  0.00  0.00    +0.036 C 
BRANCH  13  15
ATOM     15  O   UNL     1      36.107 -23.589  -9.529  0.00  0.00    -0.381 OA
ATOM     16  H   UNL     1      36.805 -22.926  -9.419  0.00  0.00    +0.210 HD
ENDBRANCH  13  15
ENDBRANCH  12  13
ENDBRANCH  11  12
ENDBRANCH   6  11
BRANCH   8  17
ATOM     17  O   UNL     1      33.769 -22.939 -17.554  0.00  0.00    -0.433 OA
BRANCH  17  22
ATOM     18  F   UNL     1      36.170 -21.805 -18.255  0.00  0.00    -0.201 F 
ATOM     19  N   UNL     1      34.176 -18.898 -21.236  0.00  0.00    -0.316 N 
ATOM     20  C   UNL     1      35.071 -20.332 -19.779  0.00  0.00    +0.045 C 
ATOM     21  C   UNL     1      33.869 -19.905 -20.349  0.00  0.00    +0.050 C 
ATOM     22  C   UNL     1      33.809 -21.937 -18.476  0.00  0.00    +0.175 C 
ATOM     23  C   UNL     1      35.527 -18.674 -21.248  0.00  0.00    +0.026 C 
ATOM     24  C   UNL     1      35.038 -21.368 -18.824  0.00  0.00    +0.176 C 
ATOM     25  C   UNL     1      36.108 -19.546 -20.356  0.00  0.00    +0.014 C 
ATOM     26  C   UNL     1      32.632 -20.465 -20.010  0.00  0.00    +0.018 C 
ATOM     27  C   UNL     1      32.625 -21.491 -19.061  0.00  0.00    +0.041 C 
ATOM     28  C   UNL     1      36.126 -17.643 -22.116  0.00  0.00    +0.047 C 
ATOM     29  H   UNL     1      33.520 -18.411 -21.784  0.00  0.00    +0.152 HD
ENDBRANCH  17  22
ENDBRANCH   8  17
TORSDOF 6
ENDMDL
MODEL 2
REMARK VINA RESULT:     -12.2      8.018     12.218
REMARK  Name = 11234052
REMARK  6 active torsions:
REMARK  status: ('A' for Active; 'I' for Inactive)
REMARK    1  A    between atoms: C_6  and  O_11
REMARK    2  A    between atoms: C_8  and  O_17
REMARK    3  A    between atoms: O_11  and  C_12
REMARK    4  A    between atoms: C_12  and  C_13
REMARK    5  A    between atoms: C_13  and  O_15
REMARK    6  A    between atoms: O_17  and  C_22
REMARK                            x       y       z     vdW  Elec       q    Type
REMARK                         _______ _______ _______ _____ _____    ______ ____
ROOT
ATOM      1  N   UNL     1      33.383 -15.012 -24.838  0.00  0.00    -0.180 N 
ATOM      2  N   UNL     1      32.996 -14.403 -25.993  0.00  0.00    -0.151 NA
ATOM      3  N   UNL     1      32.797 -12.365 -24.708  0.00  0.00    -0.187 NA
ATOM      4  C   UNL     1      33.489 -14.362 -23.635  0.00  0.00    +0.126 C 
ATOM      5  C   UNL     1      33.901 -15.268 -22.686  0.00  0.00    +0.034 C 
ATOM      6  C   UNL     1      34.049 -16.516 -23.345  0.00  0.00    +0.153 C 
ATOM      7  C   UNL     1      33.722 -16.329 -24.672  0.00  0.00    +0.126 C 
ATOM      8  C   UNL     1      33.168 -12.978 -23.632  0.00  0.00    +0.247 C 
ATOM      9  C   UNL     1      34.157 -15.048 -21.247  0.00  0.00    +0.036 C 
ATOM     10  C   UNL     1      32.728 -13.130 -25.863  0.00  0.00    +0.220 C 
ENDROOT
BRANCH   6  11
ATOM     11  O   UNL     1      34.432 -17.689 -22.819  0.00  0.00    -0.472 OA
BRANCH  11  12
ATOM     12  C   UNL     1      35.749 -17.756 -22.261  0.00  0.00    +0.234 C 
BRANCH  12  13
ATOM     13  C   UNL     1      35.652 -18.234 -20.819  0.00  0.00    +0.154 C 
ATOM     14  C   UNL     1      34.906 -19.555 -20.719  0.00  0.00    +0.036 C 
BRANCH  13  15
ATOM     15  O   UNL     1      36.976 -18.411 -20.315  0.00  0.00    -0.381 OA
ATOM     16  H   UNL     1      36.995 -19.173 -19.717  0.00  0.00    +0.210 HD
ENDBRANCH  13  15
ENDBRANCH  12  13
ENDBRANCH  11  12
ENDBRANCH   6  11
BRANCH   8  17
ATOM     17  O   UNL     1      33.265 -12.313 -22.458  0.00  0.00    -0.433 OA
BRANCH  17  22
ATOM     18  F   UNL     1      34.166  -9.987 -23.608  0.00  0.00    -0.201 F 
ATOM     19  N   UNL     1      30.295  -7.705 -22.549  0.00  0.00    -0.316 N 
ATOM     20  C   UNL     1      32.137  -8.870 -23.028  0.00  0.00    +0.045 C 
ATOM     21  C   UNL     1      30.879  -8.946 -22.425  0.00  0.00    +0.050 C 
ATOM     22  C   UNL     1      32.482 -11.197 -22.450  0.00  0.00    +0.175 C 
ATOM     23  C   UNL     1      31.138  -6.850 -23.208  0.00  0.00    +0.026 C 
ATOM     24  C   UNL     1      32.953 -10.019 -23.040  0.00  0.00    +0.176 C 
ATOM     25  C   UNL     1      32.286  -7.542 -23.517  0.00  0.00    +0.014 C 
ATOM     26  C   UNL     1      30.395 -10.117 -21.832  0.00  0.00    +0.018 C 
ATOM     27  C   UNL     1      31.222 -11.243 -21.855  0.00  0.00    +0.041 C 
ATOM     28  C   UNL     1      30.755  -5.451 -23.474  0.00  0.00    +0.047 C 
ATOM     29  H   UNL     1      29.401  -7.468 -22.213  0.00  0.00    +0.152 HD
ENDBRANCH  17  22
ENDBRANCH   8  17
TORSDOF 6
ENDMDL
MODEL 3
REMARK VINA RESULT:     -11.6      8.243     12.516
REMARK  Name = 11234052
REMARK  6 active torsions:
REMARK  status: ('A' for Active; 'I' for Inactive)
REMARK    1  A    between atoms: C_6  and  O_11
REMARK    2  A    between atoms: C_8  and  O_17
REMARK    3  A    between atoms: O_11  and  C_12
REMARK    4  A    between atoms: C_12  and  C_13
REMARK    5  A    between atoms: C_13  and  O_15
REMARK    6  A    between atoms: O_17  and  C_22
REMARK                            x       y       z     vdW  Elec       q    Type
REMARK                         _______ _______ _______ _____ _____    ______ ____
ROOT
ATOM      1  N   UNL     1      33.552 -14.773 -24.615  0.00  0.00    -0.180 N 
ATOM      2  N   UNL     1      33.171 -14.354 -25.853  0.00  0.00    -0.151 NA
ATOM      3  N   UNL     1      32.332 -12.354 -24.786  0.00  0.00    -0.187 NA
ATOM      4  C   UNL     1      33.352 -14.043 -23.471  0.00  0.00    +0.126 C 
ATOM      5  C   UNL     1      33.854 -14.755 -22.407  0.00  0.00    +0.034 C 
ATOM      6  C   UNL     1      34.378 -15.966 -22.932  0.00  0.00    +0.153 C 
ATOM      7  C   UNL     1      34.178 -15.950 -24.297  0.00  0.00    +0.126 C 
ATOM      8  C   UNL     1      32.708 -12.786 -23.626  0.00  0.00    +0.247 C 
ATOM      9  C   UNL     1      33.874 -14.388 -20.976  0.00  0.00    +0.036 C 
ATOM     10  C   UNL     1      32.590 -13.183 -25.868  0.00  0.00    +0.220 C 
ENDROOT
BRANCH   6  11
ATOM     11  O   UNL     1      34.967 -16.969 -22.266  0.00  0.00    -0.472 OA
BRANCH  11  12
ATOM     12  C   UNL     1      34.347 -18.257 -22.342  0.00  0.00    +0.234 C 
BRANCH  12  13
ATOM     13  C   UNL     1      35.052 -19.204 -21.379  0.00  0.00    +0.154 C 
ATOM     14  C   UNL     1      36.351 -18.606 -20.862  0.00  0.00    +0.036 C 
BRANCH  13  15
ATOM     15  O   UNL     1      34.183 -19.448 -20.274  0.00  0.00    -0.381 OA
ATOM     16  H   UNL     1      33.317 -19.735 -20.601  0.00  0.00    +0.210 HD
ENDBRANCH  13  15
ENDBRANCH  12  13
ENDBRANCH  11  12
ENDBRANCH   6  11
BRANCH   8  17
ATOM     17  O   UNL     1      32.499 -12.045 -22.513  0.00  0.00    -0.433 OA
BRANCH  17  22
ATOM     18  F   UNL     1      30.300 -10.467 -22.051  0.00  0.00    -0.201 F 
ATOM     19  N   UNL     1      32.447  -6.659 -23.534  0.00  0.00    -0.316 N 
ATOM     20  C   UNL     1      31.473  -8.539 -22.832  0.00  0.00    +0.045 C 
ATOM     21  C   UNL     1      32.657  -8.007 -23.347  0.00  0.00    +0.050 C 
ATOM     22  C   UNL     1      32.545 -10.710 -22.787  0.00  0.00    +0.175 C 
ATOM     23  C   UNL     1      31.175  -6.321 -23.156  0.00  0.00    +0.026 C 
ATOM     24  C   UNL     1      31.417  -9.918 -22.547  0.00  0.00    +0.176 C 
ATOM     25  C   UNL     1      30.548  -7.464 -22.717  0.00  0.00    +0.014 C 
ATOM     26  C   UNL     1      33.793  -8.787 -23.592  0.00  0.00    +0.018 C 
ATOM     27  C   UNL     1      33.713 -10.152 -23.302  0.00  0.00    +0.041 C 
ATOM     28  C   UNL     1      30.690  -4.932 -23.254  0.00  0.00    +0.047 C 
ATOM     29  H   UNL     1      33.116  -6.029 -23.888  0.00  0.00    +0.152 HD
ENDBRANCH  17  22
ENDBRANCH   8  17
TORSDOF 6
ENDMDL
MODEL 4
REMARK VINA RESULT:     -11.2      4.441      9.778
REMARK  Name = 11234052
REMARK  6 active torsions:
REMARK  status: ('A' for Active; 'I' for Inactive)
REMARK    1  A    between atoms: C_6  and  O_11
REMARK    2  A    between atoms: C_8  and  O_17
REMARK    3  A    between atoms: O_11  and  C_12
REMARK    4  A    between atoms: C_12  and  C_13
REMARK    5  A    between atoms: C_13  and  O_15
REMARK    6  A    between atoms: O_17  and  C_22
REMARK                            x       y       z     vdW  Elec       q    Type
REMARK                         _______ _______ _______ _____ _____    ______ ____
ROOT
ATOM      1  N   UNL     1      33.606 -16.885 -24.208  0.00  0.00    -0.180 N 
ATOM      2  N   UNL     1      33.433 -17.879 -25.121  0.00  0.00    -0.151 NA
ATOM      3  N   UNL     1      34.397 -19.380 -23.490  0.00  0.00    -0.187 NA
ATOM      4  C   UNL     1      34.151 -17.081 -22.965  0.00  0.00    +0.126 C 
ATOM      5  C   UNL     1      34.178 -15.874 -22.306  0.00  0.00    +0.034 C 
ATOM      6  C   UNL     1      33.627 -14.910 -23.190  0.00  0.00    +0.153 C 
ATOM      7  C   UNL     1      33.282 -15.561 -24.357  0.00  0.00    +0.126 C 
ATOM      8  C   UNL     1      34.545 -18.409 -22.648  0.00  0.00    +0.247 C 
ATOM      9  C   UNL     1      34.672 -15.574 -20.946  0.00  0.00    +0.036 C 
ATOM     10  C   UNL     1      33.833 -19.056 -24.715  0.00  0.00    +0.220 C 
ENDROOT
BRANCH   6  11
ATOM     11  O   UNL     1      33.452 -13.598 -22.978  0.00  0.00    -0.472 OA
BRANCH  11  12
ATOM     12  C   UNL     1      32.156 -13.174 -22.540  0.00  0.00    +0.234 C 
BRANCH  12  13
ATOM     13  C   UNL     1      32.246 -12.724 -21.088  0.00  0.00    +0.154 C 
ATOM     14  C   UNL     1      31.475 -11.434 -20.856  0.00  0.00    +0.036 C 
BRANCH  13  15
ATOM     15  O   UNL     1      31.690 -13.750 -20.266  0.00  0.00    -0.381 OA
ATOM     16  H   UNL     1      31.502 -13.392 -19.385  0.00  0.00    +0.210 HD
ENDBRANCH  13  15
ENDBRANCH  12  13
ENDBRANCH  11  12
ENDBRANCH   6  11
BRANCH   8  17
ATOM     17  O   UNL     1      35.085 -18.630 -21.428  0.00  0.00    -0.433 OA
BRANCH  17  22
ATOM     18  F   UNL     1      36.207 -20.312 -19.568  0.00  0.00    -0.201 F 
ATOM     19  N   UNL     1      32.100 -21.975 -18.272  0.00  0.00    -0.316 N 
ATOM     20  C   UNL     1      34.049 -21.126 -18.949  0.00  0.00    +0.045 C 
ATOM     21  C   UNL     1      32.667 -21.074 -19.146  0.00  0.00    +0.050 C 
ATOM     22  C   UNL     1      34.292 -19.440 -20.671  0.00  0.00    +0.175 C 
ATOM     23  C   UNL     1      33.072 -22.592 -17.531  0.00  0.00    +0.026 C 
ATOM     24  C   UNL     1      34.877 -20.292 -19.728  0.00  0.00    +0.176 C 
ATOM     25  C   UNL     1      34.289 -22.088 -17.928  0.00  0.00    +0.014 C 
ATOM     26  C   UNL     1      32.069 -20.227 -20.085  0.00  0.00    +0.018 C 
ATOM     27  C   UNL     1      32.910 -19.410 -20.846  0.00  0.00    +0.041 C 
ATOM     28  C   UNL     1      32.734 -23.606 -16.516  0.00  0.00    +0.047 C 
ATOM     29  H   UNL     1      31.134 -22.149 -18.191  0.00  0.00    +0.152 HD
ENDBRANCH  17  22
ENDBRANCH   8  17
TORSDOF 6
ENDMDL
MODEL 5
REMARK VINA RESULT:     -11.1      1.254      1.381
REMARK  Name = 11234052
REMARK  6 active torsions:
REMARK  status: ('A' for Active; 'I' for Inactive)
REMARK    1  A    between atoms: C_6  and  O_11
REMARK    2  A    between atoms: C_8  and  O_17
REMARK    3  A    between atoms: O_11  and  C_12
REMARK    4  A    between atoms: C_12  and  C_13
REMARK    5  A    between atoms: C_13  and  O_15
REMARK    6  A    between atoms: O_17  and  C_22
REMARK                            x       y       z     vdW  Elec       q    Type
REMARK                         _______ _______ _______ _____ _____    ______ ____
ROOT
ATOM      1  N   UNL     1      32.948 -23.007 -14.883  0.00  0.00    -0.180 N 
ATOM      2  N   UNL     1      31.610 -23.086 -15.121  0.00  0.00    -0.151 NA
ATOM      3  N   UNL     1      32.145 -22.980 -17.476  0.00  0.00    -0.187 NA
ATOM      4  C   UNL     1      33.891 -22.917 -15.874  0.00  0.00    +0.126 C 
ATOM      5  C   UNL     1      35.134 -22.854 -15.287  0.00  0.00    +0.034 C 
ATOM      6  C   UNL     1      34.930 -22.909 -13.884  0.00  0.00    +0.153 C 
ATOM      7  C   UNL     1      33.571 -23.003 -13.662  0.00  0.00    +0.126 C 
ATOM      8  C   UNL     1      33.409 -22.907 -17.210  0.00  0.00    +0.247 C 
ATOM      9  C   UNL     1      36.458 -22.750 -15.935  0.00  0.00    +0.036 C 
ATOM     10  C   UNL     1      31.289 -23.068 -16.388  0.00  0.00    +0.220 C 
ENDROOT
BRANCH   6  11
ATOM     11  O   UNL     1      35.853 -22.879 -12.912  0.00  0.00    -0.472 OA
BRANCH  11  12
ATOM     12  C   UNL     1      35.864 -23.971 -11.986  0.00  0.00    +0.234 C 
BRANCH  12  13
ATOM     13  C   UNL     1      37.283 -24.513 -11.876  0.00  0.00    +0.154 C 
ATOM     14  C   UNL     1      37.655 -25.349 -13.090  0.00  0.00    +0.036 C 
BRANCH  13  15
ATOM     15  O   UNL     1      38.179 -23.406 -11.784  0.00  0.00    -0.381 OA
ATOM     16  H   UNL     1      39.086 -23.712 -11.935  0.00  0.00    +0.210 HD
ENDBRANCH  13  15
ENDBRANCH  12  13
ENDBRANCH  11  12
ENDBRANCH   6  11
BRANCH   8  17
ATOM     17  O   UNL     1      34.319 -22.819 -18.207  0.00  0.00    -0.433 OA
BRANCH  17  22
ATOM     18  F   UNL     1      36.424 -21.374 -19.220  0.00  0.00    -0.201 F 
ATOM     19  N   UNL     1      33.629 -18.429 -21.419  0.00  0.00    -0.316 N 
ATOM     20  C   UNL     1      34.918 -19.890 -20.331  0.00  0.00    +0.045 C 
ATOM     21  C   UNL     1      33.594 -19.542 -20.609  0.00  0.00    +0.050 C 
ATOM     22  C   UNL     1      34.087 -21.735 -19.001  0.00  0.00    +0.175 C 
ATOM     23  C   UNL     1      34.926 -18.062 -21.662  0.00  0.00    +0.026 C 
ATOM     24  C   UNL     1      35.167 -21.008 -19.510  0.00  0.00    +0.176 C 
ATOM     25  C   UNL     1      35.746 -18.947 -21.002  0.00  0.00    +0.014 C 
ATOM     26  C   UNL     1      32.503 -20.260 -20.106  0.00  0.00    +0.018 C 
ATOM     27  C   UNL     1      32.775 -21.365 -19.295  0.00  0.00    +0.041 C 
ATOM     28  C   UNL     1      35.246 -16.896 -22.506  0.00  0.00    +0.047 C 
ATOM     29  H   UNL     1      32.836 -17.966 -21.773  0.00  0.00    +0.152 HD
ENDBRANCH  17  22
ENDBRANCH   8  17
TORSDOF 6
ENDMDL
MODEL 6
REMARK VINA RESULT:     -11.1      6.034      9.786
REMARK  Name = 11234052
REMARK  6 active torsions:
REMARK  status: ('A' for Active; 'I' for Inactive)
REMARK    1  A    between atoms: C_6  and  O_11
REMARK    2  A    between atoms: C_8  and  O_17
REMARK    3  A    between atoms: O_11  and  C_12
REMARK    4  A    between atoms: C_12  and  C_13
REMARK    5  A    between atoms: C_13  and  O_15
REMARK    6  A    between atoms: O_17  and  C_22
REMARK                            x       y       z     vdW  Elec       q    Type
REMARK                         _______ _______ _______ _____ _____    ______ ____
ROOT
ATOM      1  N   UNL     1      33.519 -17.773 -23.920  0.00  0.00    -0.180 N 
ATOM      2  N   UNL     1      32.957 -17.398 -25.102  0.00  0.00    -0.151 NA
ATOM      3  N   UNL     1      33.500 -15.120 -24.498  0.00  0.00    -0.187 NA
ATOM      4  C   UNL     1      34.067 -16.889 -23.025  0.00  0.00    +0.126 C 
ATOM      5  C   UNL     1      34.542 -17.601 -21.948  0.00  0.00    +0.034 C 
ATOM      6  C   UNL     1      34.268 -18.969 -22.205  0.00  0.00    +0.153 C 
ATOM      7  C   UNL     1      33.637 -19.047 -23.429  0.00  0.00    +0.126 C 
ATOM      8  C   UNL     1      34.026 -15.516 -23.385  0.00  0.00    +0.247 C 
ATOM      9  C   UNL     1      35.213 -17.097 -20.731  0.00  0.00    +0.036 C 
ATOM     10  C   UNL     1      32.979 -16.109 -25.321  0.00  0.00    +0.220 C 
ENDROOT
BRANCH   6  11
ATOM     11  O   UNL     1      34.551 -20.028 -21.433  0.00  0.00    -0.472 OA
BRANCH  11  12
ATOM     12  C   UNL     1      33.803 -20.173 -20.221  0.00  0.00    +0.234 C 
BRANCH  12  13
ATOM     13  C   UNL     1      34.334 -21.376 -19.452  0.00  0.00    +0.154 C 
ATOM     14  C   UNL     1      35.678 -21.076 -18.808  0.00  0.00    +0.036 C 
BRANCH  13  15
ATOM     15  O   UNL     1      33.394 -21.704 -18.429  0.00  0.00    -0.381 OA
ATOM     16  H   UNL     1      33.818 -22.275 -17.771  0.00  0.00    +0.210 HD
ENDBRANCH  13  15
ENDBRANCH  12  13
ENDBRANCH  11  12
ENDBRANCH   6  11
BRANCH   8  17
ATOM     17  O   UNL     1      34.560 -14.623 -22.519  0.00  0.00    -0.433 OA
BRANCH  17  22
ATOM     18  F   UNL     1      34.180 -12.347 -24.008  0.00  0.00    -0.201 F 
ATOM     19  N   UNL     1      30.924 -10.755 -21.148  0.00  0.00    -0.316 N 
ATOM     20  C   UNL     1      32.504 -11.586 -22.486  0.00  0.00    +0.045 C 
ATOM     21  C   UNL     1      31.772 -11.827 -21.321  0.00  0.00    +0.050 C 
ATOM     22  C   UNL     1      33.640 -13.695 -22.129  0.00  0.00    +0.175 C 
ATOM     23  C   UNL     1      31.094  -9.849 -22.160  0.00  0.00    +0.026 C 
ATOM     24  C   UNL     1      33.457 -12.540 -22.896  0.00  0.00    +0.176 C 
ATOM     25  C   UNL     1      32.066 -10.335 -23.004  0.00  0.00    +0.014 C 
ATOM     26  C   UNL     1      31.945 -12.977 -20.544  0.00  0.00    +0.018 C 
ATOM     27  C   UNL     1      32.895 -13.909 -20.970  0.00  0.00    +0.041 C 
ATOM     28  C   UNL     1      30.305  -8.605 -22.216  0.00  0.00    +0.047 C 
ATOM     29  H   UNL     1      30.287 -10.657 -20.404  0.00  0.00    +0.152 HD
ENDBRANCH  17  22
ENDBRANCH   8  17
TORSDOF 6
ENDMDL
MODEL 7
REMARK VINA RESULT:     -11.1      9.750     14.638
REMARK  Name = 11234052
REMARK  6 active torsions:
REMARK  status: ('A' for Active; 'I' for Inactive)
REMARK    1  A    between atoms: C_6  and  O_11
REMARK    2  A    between atoms: C_8  and  O_17
REMARK    3  A    between atoms: O_11  and  C_12
REMARK    4  A    between atoms: C_12  and  C_13
REMARK    5  A    between atoms: C_13  and  O_15
REMARK    6  A    between atoms: O_17  and  C_22
REMARK                            x       y       z     vdW  Elec       q    Type
REMARK                         _______ _______ _______ _____ _____    ______ ____
ROOT
ATOM      1  N   UNL     1      31.485  -8.868 -21.794  0.00  0.00    -0.180 N 
ATOM      2  N   UNL     1      30.441  -9.485 -21.175  0.00  0.00    -0.151 NA
ATOM      3  N   UNL     1      31.215 -11.540 -22.186  0.00  0.00    -0.187 NA
ATOM      4  C   UNL     1      32.390  -9.521 -22.591  0.00  0.00    +0.126 C 
ATOM      5  C   UNL     1      33.306  -8.604 -23.052  0.00  0.00    +0.034 C 
ATOM      6  C   UNL     1      32.937  -7.345 -22.510  0.00  0.00    +0.153 C 
ATOM      7  C   UNL     1      31.809  -7.537 -21.738  0.00  0.00    +0.126 C 
ATOM      8  C   UNL     1      32.195 -10.918 -22.757  0.00  0.00    +0.247 C 
ATOM      9  C   UNL     1      34.468  -8.823 -23.939  0.00  0.00    +0.036 C 
ATOM     10  C   UNL     1      30.367 -10.770 -21.404  0.00  0.00    +0.220 C 
ENDROOT
BRANCH   6  11
ATOM     11  O   UNL     1      33.539  -6.160 -22.685  0.00  0.00    -0.472 OA
BRANCH  11  12
ATOM     12  C   UNL     1      32.696  -5.008 -22.797  0.00  0.00    +0.234 C 
BRANCH  12  13
ATOM     13  C   UNL     1      32.868  -4.401 -24.183  0.00  0.00    +0.154 C 
ATOM     14  C   UNL     1      34.231  -4.730 -24.770  0.00  0.00    +0.036 C 
BRANCH  13  15
ATOM     15  O   UNL     1      31.856  -4.937 -25.035  0.00  0.00    -0.381 OA
ATOM     16  H   UNL     1      31.920  -4.527 -25.911  0.00  0.00    +0.210 HD
ENDBRANCH  13  15
ENDBRANCH  12  13
ENDBRANCH  11  12
ENDBRANCH   6  11
BRANCH   8  17
ATOM     17  O   UNL     1      33.074 -11.587 -23.538  0.00  0.00    -0.433 OA
BRANCH  17  22
ATOM     18  F   UNL     1      33.373 -13.826 -25.102  0.00  0.00    -0.201 F 
ATOM     19  N   UNL     1      34.543 -16.458 -21.494  0.00  0.00    -0.316 N 
ATOM     20  C   UNL     1      33.971 -15.126 -23.190  0.00  0.00    +0.045 C 
ATOM     21  C   UNL     1      34.188 -15.166 -21.810  0.00  0.00    +0.050 C 
ATOM     22  C   UNL     1      33.442 -12.773 -22.974  0.00  0.00    +0.175 C 
ATOM     23  C   UNL     1      34.559 -17.234 -22.621  0.00  0.00    +0.026 C 
ATOM     24  C   UNL     1      33.590 -13.905 -23.782  0.00  0.00    +0.176 C 
ATOM     25  C   UNL     1      34.208 -16.438 -23.687  0.00  0.00    +0.014 C 
ATOM     26  C   UNL     1      34.043 -14.041 -20.990  0.00  0.00    +0.018 C 
ATOM     27  C   UNL     1      33.664 -12.841 -21.600  0.00  0.00    +0.041 C 
ATOM     28  C   UNL     1      34.909 -18.665 -22.562  0.00  0.00    +0.047 C 
ATOM     29  H   UNL     1      34.756 -16.776 -20.587  0.00  0.00    +0.152 HD
ENDBRANCH  17  22
ENDBRANCH   8  17
TORSDOF 6
ENDMDL
MODEL 8
REMARK VINA RESULT:     -11.1      3.438      5.706
REMARK  Name = 11234052
REMARK  6 active torsions:
REMARK  status: ('A' for Active; 'I' for Inactive)
REMARK    1  A    between atoms: C_6  and  O_11
REMARK    2  A    between atoms: C_8  and  O_17
REMARK    3  A    between atoms: O_11  and  C_12
REMARK    4  A    between atoms: C_12  and  C_13
REMARK    5  A    between atoms: C_13  and  O_15
REMARK    6  A    between atoms: O_17  and  C_22
REMARK                            x       y       z     vdW  Elec       q    Type
REMARK                         _______ _______ _______ _____ _____    ______ ____
ROOT
ATOM      1  N   UNL     1      33.181 -21.029 -19.331  0.00  0.00    -0.180 N 
ATOM      2  N   UNL     1      31.890 -20.900 -19.745  0.00  0.00    -0.151 NA
ATOM      3  N   UNL     1      32.716 -19.396 -21.448  0.00  0.00    -0.187 NA
ATOM      4  C   UNL     1      34.237 -20.385 -19.923  0.00  0.00    +0.126 C 
ATOM      5  C   UNL     1      35.389 -20.738 -19.259  0.00  0.00    +0.034 C 
ATOM      6  C   UNL     1      35.010 -21.632 -18.223  0.00  0.00    +0.153 C 
ATOM      7  C   UNL     1      33.641 -21.794 -18.291  0.00  0.00    +0.126 C 
ATOM      8  C   UNL     1      33.929 -19.544 -21.025  0.00  0.00    +0.247 C 
ATOM      9  C   UNL     1      36.777 -20.306 -19.522  0.00  0.00    +0.036 C 
ATOM     10  C   UNL     1      31.734 -20.100 -20.767  0.00  0.00    +0.220 C 
ENDROOT
BRANCH   6  11
ATOM     11  O   UNL     1      35.798 -22.234 -17.321  0.00  0.00    -0.472 OA
BRANCH  11  12
ATOM     12  C   UNL     1      36.429 -21.400 -16.343  0.00  0.00    +0.234 C 
BRANCH  12  13
ATOM     13  C   UNL     1      37.023 -22.280 -15.251  0.00  0.00    +0.154 C 
ATOM     14  C   UNL     1      36.087 -23.421 -14.885  0.00  0.00    +0.036 C 
BRANCH  13  15
ATOM     15  O   UNL     1      38.251 -22.824 -15.732  0.00  0.00    -0.381 OA
ATOM     16  H   UNL     1      38.518 -22.357 -16.538  0.00  0.00    +0.210 HD
ENDBRANCH  13  15
ENDBRANCH  12  13
ENDBRANCH  11  12
ENDBRANCH   6  11
BRANCH   8  17
ATOM     17  O   UNL     1      34.953 -18.898 -21.628  0.00  0.00    -0.433 OA
BRANCH  17  22
ATOM     18  F   UNL     1      34.175 -18.384 -24.212  0.00  0.00    -0.201 F 
ATOM     19  N   UNL     1      33.479 -13.903 -23.345  0.00  0.00    -0.316 N 
ATOM     20  C   UNL     1      33.836 -16.079 -23.691  0.00  0.00    +0.045 C 
ATOM     21  C   UNL     1      33.879 -15.068 -22.727  0.00  0.00    +0.050 C 
ATOM     22  C   UNL     1      34.598 -17.635 -21.998  0.00  0.00    +0.175 C 
ATOM     23  C   UNL     1      33.186 -14.143 -24.661  0.00  0.00    +0.026 C 
ATOM     24  C   UNL     1      34.203 -17.387 -23.317  0.00  0.00    +0.176 C 
ATOM     25  C   UNL     1      33.397 -15.480 -24.905  0.00  0.00    +0.014 C 
ATOM     26  C   UNL     1      34.272 -15.301 -21.405  0.00  0.00    +0.018 C 
ATOM     27  C   UNL     1      34.631 -16.606 -21.058  0.00  0.00    +0.041 C 
ATOM     28  C   UNL     1      32.731 -13.060 -25.553  0.00  0.00    +0.047 C 
ATOM     29  H   UNL     1      33.413 -13.027 -22.903  0.00  0.00    +0.152 HD
ENDBRANCH  17  22
ENDBRANCH   8  17
TORSDOF 6
ENDMDL
MODEL 9
REMARK VINA RESULT:     -11.0      2.858      4.565
REMARK  Name = 11234052
REMARK  6 active torsions:
REMARK  status: ('A' for Active; 'I' for Inactive)
REMARK    1  A    between atoms: C_6  and  O_11
REMARK    2  A    between atoms: C_8  and  O_17
REMARK    3  A    between atoms: O_11  and  C_12
REMARK    4  A    between atoms: C_12  and  C_13
REMARK    5  A    between atoms: C_13  and  O_15
REMARK    6  A    between atoms: O_17  and  C_22
REMARK                            x       y       z     vdW  Elec       q    Type
REMARK                         _______ _______ _______ _____ _____    ______ ____
ROOT
ATOM      1  N   UNL     1      33.247 -21.719 -18.301  0.00  0.00    -0.180 N 
ATOM      2  N   UNL     1      32.006 -21.678 -18.860  0.00  0.00    -0.151 NA
ATOM      3  N   UNL     1      32.910 -20.101 -20.454  0.00  0.00    -0.187 NA
ATOM      4  C   UNL     1      34.315 -20.995 -18.766  0.00  0.00    +0.126 C 
ATOM      5  C   UNL     1      35.405 -21.272 -17.975  0.00  0.00    +0.034 C 
ATOM      6  C   UNL     1      34.976 -22.201 -16.992  0.00  0.00    +0.153 C 
ATOM      7  C   UNL     1      33.639 -22.460 -17.217  0.00  0.00    +0.126 C 
ATOM      8  C   UNL     1      34.075 -20.167 -19.895  0.00  0.00    +0.247 C 
ATOM      9  C   UNL     1      36.780 -20.739 -18.077  0.00  0.00    +0.036 C 
ATOM     10  C   UNL     1      31.910 -20.881 -19.892  0.00  0.00    +0.220 C 
ENDROOT
BRANCH   6  11
ATOM     11  O   UNL     1      35.697 -22.755 -16.007  0.00  0.00    -0.472 OA
BRANCH  11  12
ATOM     12  C   UNL     1      35.078 -23.803 -15.253  0.00  0.00    +0.234 C 
BRANCH  12  13
ATOM     13  C   UNL     1      36.162 -24.634 -14.578  0.00  0.00    +0.154 C 
ATOM     14  C   UNL     1      36.061 -26.101 -14.965  0.00  0.00    +0.036 C 
BRANCH  13  15
ATOM     15  O   UNL     1      37.433 -24.133 -14.989  0.00  0.00    -0.381 OA
ATOM     16  H   UNL     1      37.418 -23.958 -15.942  0.00  0.00    +0.210 HD
ENDBRANCH  13  15
ENDBRANCH  12  13
ENDBRANCH  11  12
ENDBRANCH   6  11
BRANCH   8  17
ATOM     17  O   UNL     1      35.112 -19.442 -20.375  0.00  0.00    -0.433 OA
BRANCH  17  22
ATOM     18  F   UNL     1      34.945 -16.706 -20.200  0.00  0.00    -0.201 F 
ATOM     19  N   UNL     1      33.664 -16.283 -24.615  0.00  0.00    -0.316 N 
ATOM     20  C   UNL     1      34.287 -16.563 -22.491  0.00  0.00    +0.045 C 
ATOM     21  C   UNL     1      34.004 -17.237 -23.682  0.00  0.00    +0.050 C 
ATOM     22  C   UNL     1      34.746 -18.708 -21.463  0.00  0.00    +0.175 C 
ATOM     23  C   UNL     1      33.723 -15.034 -24.058  0.00  0.00    +0.026 C 
ATOM     24  C   UNL     1      34.665 -17.315 -21.361  0.00  0.00    +0.176 C 
ATOM     25  C   UNL     1      34.105 -15.175 -22.744  0.00  0.00    +0.014 C 
ATOM     26  C   UNL     1      34.081 -18.629 -23.799  0.00  0.00    +0.018 C 
ATOM     27  C   UNL     1      34.457 -19.353 -22.665  0.00  0.00    +0.041 C 
ATOM     28  C   UNL     1      33.406 -13.828 -24.845  0.00  0.00    +0.047 C 
ATOM     29  H   UNL     1      33.416 -16.472 -25.549  0.00  0.00    +0.152 HD
ENDBRANCH  17  22
ENDBRANCH   8  17
TORSDOF 6
ENDMDL
