MODEL 1
REMARK VINA RESULT:     -11.6      0.000      0.000
REMARK  Name = 25011728
REMARK  4 active torsions:
REMARK  status: ('A' for Active; 'I' for Inactive)
REMARK    1  A    between atoms: N_1  and  C_15
REMARK    2  A    between atoms: N_2  and  C_22
REMARK    3  A    between atoms: C_21  and  S_27
REMARK    4  A    between atoms: S_27  and  N_30
REMARK                            x       y       z     vdW  Elec       q    Type
REMARK                         _______ _______ _______ _____ _____    ______ ____
ROOT
ATOM      1  N   UNL     1      34.367 -23.304 -14.562  0.00  0.00    -0.284 N 
ATOM      2  N   UNL     1      32.580 -21.597 -18.586  0.00  0.00    -0.247 N 
ATOM      3  N   UNL     1      33.489 -22.439 -16.593  0.00  0.00    -0.322 NA
ATOM      4  N   UNL     1      31.134 -22.640 -17.061  0.00  0.00    -0.170 NA
ATOM      5  C   UNL     1      33.273 -23.072 -15.422  0.00  0.00    +0.198 C 
ATOM      6  C   UNL     1      32.392 -22.258 -17.352  0.00  0.00    +0.150 C 
ATOM      7  C   UNL     1      32.033 -23.514 -15.006  0.00  0.00    +0.070 C 
ATOM      8  C   UNL     1      30.990 -23.267 -15.875  0.00  0.00    +0.116 C 
ATOM      9  H   UNL     1      34.122 -23.322 -13.608  0.00  0.00    +0.155 HD
ATOM     10  H   UNL     1      31.751 -21.488 -19.107  0.00  0.00    +0.165 HD
ENDROOT
BRANCH   1  15
ATOM     11 CL   UNL     1      35.930 -20.967 -15.746  0.00  0.00    -0.081 Cl
ATOM     12  O   UNL     1      35.678 -25.813 -13.968  0.00  0.00    -0.433 OA
ATOM     13  O   UNL     1      38.019 -26.232 -14.354  0.00  0.00    -0.435 OA
ATOM     14  C   UNL     1      36.316 -24.733 -14.498  0.00  0.00    +0.191 C 
ATOM     15  C   UNL     1      35.738 -23.517 -14.798  0.00  0.00    +0.098 C 
ATOM     16  C   UNL     1      37.653 -24.973 -14.718  0.00  0.00    +0.178 C 
ATOM     17  C   UNL     1      36.559 -22.524 -15.337  0.00  0.00    +0.074 C 
ATOM     18  C   UNL     1      38.486 -24.009 -15.250  0.00  0.00    +0.041 C 
ATOM     19  C   UNL     1      36.763 -26.759 -13.882  0.00  0.00    +0.429 C 
ATOM     20  C   UNL     1      37.926 -22.769 -15.562  0.00  0.00    +0.016 C 
ENDBRANCH   1  15
BRANCH   2  22
ATOM     21  C   UNL     1      34.720 -19.482 -20.744  0.00  0.00    +0.123 C 
ATOM     22  C   UNL     1      33.720 -21.065 -19.217  0.00  0.00    +0.059 C 
ATOM     23  C   UNL     1      33.590 -20.008 -20.117  0.00  0.00    +0.035 C 
ATOM     24  C   UNL     1      35.979 -20.014 -20.471  0.00  0.00    +0.020 C 
ATOM     25  C   UNL     1      34.980 -21.598 -18.944  0.00  0.00    +0.015 C 
ATOM     26  C   UNL     1      36.109 -21.072 -19.570  0.00  0.00    +0.003 C 
BRANCH  21  27
ATOM     27  S   UNL     1      34.558 -18.159 -21.871  0.00  0.00    +0.057 S 
ATOM     28  O   UNL     1      33.676 -18.580 -22.949  0.00  0.00    -0.153 OA
ATOM     29  O   UNL     1      34.257 -16.947 -21.121  0.00  0.00    -0.153 OA
BRANCH  27  30
ATOM     30  N   UNL     1      36.153 -18.049 -22.475  0.00  0.00    -0.203 NA
ATOM     31  H   UNL     1      36.586 -18.972 -22.459  0.00  0.00    +0.144 HD
ATOM     32  H   UNL     1      36.694 -17.409 -21.894  0.00  0.00    +0.144 HD
ENDBRANCH  27  30
ENDBRANCH  21  27
ENDBRANCH   2  22
TORSDOF 4
ENDMDL
MODEL 2
REMARK VINA RESULT:     -10.8      3.595      6.718
REMARK  Name = 25011728
REMARK  4 active torsions:
REMARK  status: ('A' for Active; 'I' for Inactive)
REMARK    1  A    between atoms: N_1  and  C_15
REMARK    2  A    between atoms: N_2  and  C_22
REMARK    3  A    between atoms: C_21  and  S_27
REMARK    4  A    between atoms: S_27  and  N_30
REMARK                            x       y       z     vdW  Elec       q    Type
REMARK                         _______ _______ _______ _____ _____    ______ ____
ROOT
ATOM      1  N   UNL     1      32.187 -22.281 -17.787  0.00  0.00    -0.284 N 
ATOM      2  N   UNL     1      33.039 -23.460 -13.294  0.00  0.00    -0.247 N 
ATOM      3  N   UNL     1      32.639 -22.874 -15.530  0.00  0.00    -0.322 NA
ATOM      4  N   UNL     1      30.819 -23.124 -13.971  0.00  0.00    -0.170 NA
ATOM      5  C   UNL     1      31.733 -22.571 -16.483  0.00  0.00    +0.198 C 
ATOM      6  C   UNL     1      32.121 -23.137 -14.316  0.00  0.00    +0.150 C 
ATOM      7  C   UNL     1      30.372 -22.524 -16.259  0.00  0.00    +0.070 C 
ATOM      8  C   UNL     1      29.968 -22.813 -14.972  0.00  0.00    +0.116 C 
ATOM      9  H   UNL     1      31.543 -22.523 -18.491  0.00  0.00    +0.155 HD
ATOM     10  H   UNL     1      32.616 -23.644 -12.424  0.00  0.00    +0.165 HD
ENDROOT
BRANCH   1  15
ATOM     11 CL   UNL     1      31.957 -20.620 -20.335  0.00  0.00    -0.081 Cl
ATOM     12  O   UNL     1      34.742 -22.645 -16.482  0.00  0.00    -0.433 OA
ATOM     13  O   UNL     1      36.809 -21.701 -17.283  0.00  0.00    -0.435 OA
ATOM     14  C   UNL     1      34.572 -21.919 -17.620  0.00  0.00    +0.191 C 
ATOM     15  C   UNL     1      33.377 -21.714 -18.279  0.00  0.00    +0.098 C 
ATOM     16  C   UNL     1      35.752 -21.379 -18.077  0.00  0.00    +0.178 C 
ATOM     17  C   UNL     1      33.401 -20.934 -19.438  0.00  0.00    +0.074 C 
ATOM     18  C   UNL     1      35.803 -20.606 -19.219  0.00  0.00    +0.041 C 
ATOM     19  C   UNL     1      36.162 -22.504 -16.275  0.00  0.00    +0.429 C 
ATOM     20  C   UNL     1      34.608 -20.383 -19.905  0.00  0.00    +0.016 C 
ENDBRANCH   1  15
BRANCH   2  22
ATOM     21  C   UNL     1      36.451 -24.816 -13.775  0.00  0.00    +0.123 C 
ATOM     22  C   UNL     1      34.443 -23.570 -13.275  0.00  0.00    +0.059 C 
ATOM     23  C   UNL     1      35.060 -24.707 -13.795  0.00  0.00    +0.035 C 
ATOM     24  C   UNL     1      37.224 -23.789 -13.235  0.00  0.00    +0.020 C 
ATOM     25  C   UNL     1      35.215 -22.542 -12.735  0.00  0.00    +0.015 C 
ATOM     26  C   UNL     1      36.605 -22.651 -12.715  0.00  0.00    +0.003 C 
BRANCH  21  27
ATOM     27  S   UNL     1      37.225 -26.240 -14.424  0.00  0.00    +0.057 S 
ATOM     28  O   UNL     1      38.562 -25.874 -14.869  0.00  0.00    -0.153 OA
ATOM     29  O   UNL     1      37.052 -27.333 -13.477  0.00  0.00    -0.153 OA
BRANCH  27  30
ATOM     30  N   UNL     1      36.252 -26.543 -15.796  0.00  0.00    -0.203 NA
ATOM     31  H   UNL     1      35.371 -26.037 -15.705  0.00  0.00    +0.144 HD
ATOM     32  H   UNL     1      36.064 -27.543 -15.866  0.00  0.00    +0.144 HD
ENDBRANCH  27  30
ENDBRANCH  21  27
ENDBRANCH   2  22
TORSDOF 4
ENDMDL
MODEL 3
REMARK VINA RESULT:     -10.6      1.742      2.277
REMARK  Name = 25011728
REMARK  4 active torsions:
REMARK  status: ('A' for Active; 'I' for Inactive)
REMARK    1  A    between atoms: N_1  and  C_15
REMARK    2  A    between atoms: N_2  and  C_22
REMARK    3  A    between atoms: C_21  and  S_27
REMARK    4  A    between atoms: S_27  and  N_30
REMARK                            x       y       z     vdW  Elec       q    Type
REMARK                         _______ _______ _______ _____ _____    ______ ____
ROOT
ATOM      1  N   UNL     1      34.008 -23.217 -14.658  0.00  0.00    -0.284 N 
ATOM      2  N   UNL     1      32.491 -21.468 -18.775  0.00  0.00    -0.247 N 
ATOM      3  N   UNL     1      33.266 -22.331 -16.735  0.00  0.00    -0.322 NA
ATOM      4  N   UNL     1      30.935 -22.464 -17.329  0.00  0.00    -0.170 NA
ATOM      5  C   UNL     1      32.969 -22.954 -15.576  0.00  0.00    +0.198 C 
ATOM      6  C   UNL     1      32.218 -22.120 -17.553  0.00  0.00    +0.150 C 
ATOM      7  C   UNL     1      31.696 -23.358 -15.228  0.00  0.00    +0.070 C 
ATOM      8  C   UNL     1      30.709 -23.084 -16.151  0.00  0.00    +0.116 C 
ATOM      9  H   UNL     1      33.712 -23.224 -13.719  0.00  0.00    +0.155 HD
ATOM     10  H   UNL     1      31.695 -21.336 -19.340  0.00  0.00    +0.165 HD
ENDROOT
BRANCH   1  15
ATOM     11 CL   UNL     1      35.004 -25.960 -13.771  0.00  0.00    -0.081 Cl
ATOM     12  O   UNL     1      35.832 -21.268 -15.770  0.00  0.00    -0.433 OA
ATOM     13  O   UNL     1      38.193 -21.648 -16.065  0.00  0.00    -0.435 OA
ATOM     14  C   UNL     1      36.211 -22.506 -15.354  0.00  0.00    +0.191 C 
ATOM     15  C   UNL     1      35.383 -23.471 -14.820  0.00  0.00    +0.098 C 
ATOM     16  C   UNL     1      37.560 -22.724 -15.523  0.00  0.00    +0.178 C 
ATOM     17  C   UNL     1      35.958 -24.689 -14.450  0.00  0.00    +0.074 C 
ATOM     18  C   UNL     1      38.153 -23.918 -15.166  0.00  0.00    +0.041 C 
ATOM     19  C   UNL     1      37.092 -20.729 -16.218  0.00  0.00    +0.429 C 
ATOM     20  C   UNL     1      37.336 -24.911 -14.622  0.00  0.00    +0.016 C 
ENDBRANCH   1  15
BRANCH   2  22
ATOM     21  C   UNL     1      34.830 -19.313 -20.671  0.00  0.00    +0.123 C 
ATOM     22  C   UNL     1      33.679 -20.972 -19.344  0.00  0.00    +0.059 C 
ATOM     23  C   UNL     1      33.652 -19.804 -20.105  0.00  0.00    +0.035 C 
ATOM     24  C   UNL     1      36.032 -19.991 -20.476  0.00  0.00    +0.020 C 
ATOM     25  C   UNL     1      34.882 -21.650 -19.150  0.00  0.00    +0.015 C 
ATOM     26  C   UNL     1      36.058 -21.160 -19.715  0.00  0.00    +0.003 C 
BRANCH  21  27
ATOM     27  S   UNL     1      34.798 -17.850 -21.624  0.00  0.00    +0.057 S 
ATOM     28  O   UNL     1      33.857 -18.037 -22.719  0.00  0.00    -0.153 OA
ATOM     29  O   UNL     1      34.646 -16.715 -20.724  0.00  0.00    -0.153 OA
BRANCH  27  30
ATOM     30  N   UNL     1      36.385 -17.840 -22.257  0.00  0.00    -0.203 NA
ATOM     31  H   UNL     1      36.852 -18.714 -22.017  0.00  0.00    +0.144 HD
ATOM     32  H   UNL     1      36.905 -17.057 -21.860  0.00  0.00    +0.144 HD
ENDBRANCH  27  30
ENDBRANCH  21  27
ENDBRANCH   2  22
TORSDOF 4
ENDMDL
MODEL 4
REMARK VINA RESULT:     -10.6      3.744      6.832
REMARK  Name = 25011728
REMARK  4 active torsions:
REMARK  status: ('A' for Active; 'I' for Inactive)
REMARK    1  A    between atoms: N_1  and  C_15
REMARK    2  A    between atoms: N_2  and  C_22
REMARK    3  A    between atoms: C_21  and  S_27
REMARK    4  A    between atoms: S_27  and  N_30
REMARK                            x       y       z     vdW  Elec       q    Type
REMARK                         _______ _______ _______ _____ _____    ______ ____
ROOT
ATOM      1  N   UNL     1      32.103 -22.044 -17.912  0.00  0.00    -0.284 N 
ATOM      2  N   UNL     1      32.904 -24.184 -13.779  0.00  0.00    -0.247 N 
ATOM      3  N   UNL     1      32.529 -23.123 -15.838  0.00  0.00    -0.322 NA
ATOM      4  N   UNL     1      30.741 -23.405 -14.247  0.00  0.00    -0.170 NA
ATOM      5  C   UNL     1      31.651 -22.512 -16.660  0.00  0.00    +0.198 C 
ATOM      6  C   UNL     1      32.014 -23.538 -14.665  0.00  0.00    +0.150 C 
ATOM      7  C   UNL     1      30.321 -22.313 -16.350  0.00  0.00    +0.070 C 
ATOM      8  C   UNL     1      29.918 -22.786 -15.118  0.00  0.00    +0.116 C 
ATOM      9  H   UNL     1      31.408 -22.049 -18.609  0.00  0.00    +0.155 HD
ATOM     10  H   UNL     1      32.485 -24.469 -12.935  0.00  0.00    +0.165 HD
ENDROOT
BRANCH   1  15
ATOM     11 CL   UNL     1      32.118 -20.527 -20.559  0.00  0.00    -0.081 Cl
ATOM     12  O   UNL     1      34.552 -22.464 -16.432  0.00  0.00    -0.433 OA
ATOM     13  O   UNL     1      36.713 -21.678 -17.154  0.00  0.00    -0.435 OA
ATOM     14  C   UNL     1      34.490 -21.798 -17.617  0.00  0.00    +0.191 C 
ATOM     15  C   UNL     1      33.350 -21.570 -18.360  0.00  0.00    +0.098 C 
ATOM     16  C   UNL     1      35.724 -21.349 -18.029  0.00  0.00    +0.178 C 
ATOM     17  C   UNL     1      33.486 -20.862 -19.557  0.00  0.00    +0.074 C 
ATOM     18  C   UNL     1      35.886 -20.648 -19.207  0.00  0.00    +0.041 C 
ATOM     19  C   UNL     1      35.962 -22.385 -16.145  0.00  0.00    +0.429 C 
ATOM     20  C   UNL     1      34.748 -20.405 -19.978  0.00  0.00    +0.016 C 
ENDBRANCH   1  15
BRANCH   2  22
ATOM     21  C   UNL     1      36.531 -24.261 -13.036  0.00  0.00    +0.123 C 
ATOM     22  C   UNL     1      34.274 -24.497 -13.865  0.00  0.00    +0.059 C 
ATOM     23  C   UNL     1      35.173 -23.951 -12.949  0.00  0.00    +0.035 C 
ATOM     24  C   UNL     1      36.989 -25.114 -14.039  0.00  0.00    +0.020 C 
ATOM     25  C   UNL     1      34.732 -25.350 -14.869  0.00  0.00    +0.015 C 
ATOM     26  C   UNL     1      36.089 -25.659 -14.955  0.00  0.00    +0.003 C 
BRANCH  21  27
ATOM     27  S   UNL     1      37.658 -23.578 -11.891  0.00  0.00    +0.057 S 
ATOM     28  O   UNL     1      37.393 -24.160 -10.583  0.00  0.00    -0.153 OA
ATOM     29  O   UNL     1      38.997 -23.652 -12.458  0.00  0.00    -0.153 OA
BRANCH  27  30
ATOM     30  N   UNL     1      37.157 -21.943 -11.877  0.00  0.00    -0.203 NA
ATOM     31  H   UNL     1      36.421 -21.808 -12.570  0.00  0.00    +0.144 HD
ATOM     32  H   UNL     1      37.951 -21.343 -12.103  0.00  0.00    +0.144 HD
ENDBRANCH  27  30
ENDBRANCH  21  27
ENDBRANCH   2  22
TORSDOF 4
ENDMDL
MODEL 5
REMARK VINA RESULT:     -10.3      4.116      7.186
REMARK  Name = 25011728
REMARK  4 active torsions:
REMARK  status: ('A' for Active; 'I' for Inactive)
REMARK    1  A    between atoms: N_1  and  C_15
REMARK    2  A    between atoms: N_2  and  C_22
REMARK    3  A    between atoms: C_21  and  S_27
REMARK    4  A    between atoms: S_27  and  N_30
REMARK                            x       y       z     vdW  Elec       q    Type
REMARK                         _______ _______ _______ _____ _____    ______ ____
ROOT
ATOM      1  N   UNL     1      31.207 -22.285 -16.609  0.00  0.00    -0.284 N 
ATOM      2  N   UNL     1      35.928 -22.336 -16.721  0.00  0.00    -0.247 N 
ATOM      3  N   UNL     1      33.583 -22.319 -16.643  0.00  0.00    -0.322 NA
ATOM      4  N   UNL     1      34.760 -21.689 -18.649  0.00  0.00    -0.170 NA
ATOM      5  C   UNL     1      32.424 -22.085 -17.294  0.00  0.00    +0.198 C 
ATOM      6  C   UNL     1      34.696 -22.104 -17.369  0.00  0.00    +0.150 C 
ATOM      7  C   UNL     1      32.353 -21.659 -18.605  0.00  0.00    +0.070 C 
ATOM      8  C   UNL     1      33.565 -21.475 -19.239  0.00  0.00    +0.116 C 
ATOM      9  H   UNL     1      30.480 -21.698 -16.919  0.00  0.00    +0.155 HD
ATOM     10  H   UNL     1      36.713 -22.167 -17.289  0.00  0.00    +0.165 HD
ENDROOT
BRANCH   1  15
ATOM     11 CL   UNL     1      28.424 -23.520 -16.815  0.00  0.00    -0.081 Cl
ATOM     12  O   UNL     1      32.941 -22.906 -14.381  0.00  0.00    -0.433 OA
ATOM     13  O   UNL     1      32.340 -24.389 -12.579  0.00  0.00    -0.435 OA
ATOM     14  C   UNL     1      31.691 -23.421 -14.530  0.00  0.00    +0.191 C 
ATOM     15  C   UNL     1      30.826 -23.158 -15.573  0.00  0.00    +0.098 C 
ATOM     16  C   UNL     1      31.347 -24.268 -13.502  0.00  0.00    +0.178 C 
ATOM     17  C   UNL     1      29.578 -23.785 -15.555  0.00  0.00    +0.074 C 
ATOM     18  C   UNL     1      30.121 -24.899 -13.460  0.00  0.00    +0.041 C 
ATOM     19  C   UNL     1      33.346 -23.523 -13.142  0.00  0.00    +0.429 C 
ATOM     20  C   UNL     1      29.227 -24.650 -14.503  0.00  0.00    +0.016 C 
ENDBRANCH   1  15
BRANCH   2  22
ATOM     21  C   UNL     1      36.769 -24.545 -13.871  0.00  0.00    +0.123 C 
ATOM     22  C   UNL     1      36.252 -22.765 -15.419  0.00  0.00    +0.059 C 
ATOM     23  C   UNL     1      36.449 -24.121 -15.161  0.00  0.00    +0.035 C 
ATOM     24  C   UNL     1      36.892 -23.614 -12.840  0.00  0.00    +0.020 C 
ATOM     25  C   UNL     1      36.374 -21.833 -14.389  0.00  0.00    +0.015 C 
ATOM     26  C   UNL     1      36.695 -22.258 -13.100  0.00  0.00    +0.003 C 
BRANCH  21  27
ATOM     27  S   UNL     1      37.015 -26.243 -13.546  0.00  0.00    +0.057 S 
ATOM     28  O   UNL     1      38.318 -26.627 -14.069  0.00  0.00    -0.153 OA
ATOM     29  O   UNL     1      36.693 -26.498 -12.148  0.00  0.00    -0.153 OA
BRANCH  27  30
ATOM     30  N   UNL     1      35.800 -26.941 -14.524  0.00  0.00    -0.203 NA
ATOM     31  H   UNL     1      35.670 -26.372 -15.361  0.00  0.00    +0.144 HD
ATOM     32  H   UNL     1      34.925 -26.984 -14.002  0.00  0.00    +0.144 HD
ENDBRANCH  27  30
ENDBRANCH  21  27
ENDBRANCH   2  22
TORSDOF 4
ENDMDL
MODEL 6
REMARK VINA RESULT:     -10.3      3.272      7.305
REMARK  Name = 25011728
REMARK  4 active torsions:
REMARK  status: ('A' for Active; 'I' for Inactive)
REMARK    1  A    between atoms: N_1  and  C_15
REMARK    2  A    between atoms: N_2  and  C_22
REMARK    3  A    between atoms: C_21  and  S_27
REMARK    4  A    between atoms: S_27  and  N_30
REMARK                            x       y       z     vdW  Elec       q    Type
REMARK                         _______ _______ _______ _____ _____    ______ ____
ROOT
ATOM      1  N   UNL     1      32.602 -23.141 -16.861  0.00  0.00    -0.284 N 
ATOM      2  N   UNL     1      33.880 -23.938 -12.385  0.00  0.00    -0.247 N 
ATOM      3  N   UNL     1      33.268 -23.538 -14.614  0.00  0.00    -0.322 NA
ATOM      4  N   UNL     1      31.605 -24.050 -12.947  0.00  0.00    -0.170 NA
ATOM      5  C   UNL     1      32.275 -23.450 -15.524  0.00  0.00    +0.198 C 
ATOM      6  C   UNL     1      32.868 -23.837 -13.364  0.00  0.00    +0.150 C 
ATOM      7  C   UNL     1      30.942 -23.645 -15.225  0.00  0.00    +0.070 C 
ATOM      8  C   UNL     1      30.664 -23.946 -13.908  0.00  0.00    +0.116 C 
ATOM      9  H   UNL     1      31.981 -23.529 -17.519  0.00  0.00    +0.155 HD
ATOM     10  H   UNL     1      33.542 -24.157 -11.487  0.00  0.00    +0.165 HD
ENDROOT
BRANCH   1  15
ATOM     11 CL   UNL     1      35.372 -23.448 -15.620  0.00  0.00    -0.081 Cl
ATOM     12  O   UNL     1      32.176 -21.378 -19.113  0.00  0.00    -0.433 OA
ATOM     13  O   UNL     1      33.914 -20.062 -20.140  0.00  0.00    -0.435 OA
ATOM     14  C   UNL     1      33.384 -21.559 -18.513  0.00  0.00    +0.191 C 
ATOM     15  C   UNL     1      33.640 -22.387 -17.440  0.00  0.00    +0.098 C 
ATOM     16  C   UNL     1      34.377 -20.808 -19.100  0.00  0.00    +0.178 C 
ATOM     17  C   UNL     1      34.951 -22.442 -16.961  0.00  0.00    +0.074 C 
ATOM     18  C   UNL     1      35.680 -20.843 -18.645  0.00  0.00    +0.041 C 
ATOM     19  C   UNL     1      32.519 -20.428 -20.142  0.00  0.00    +0.429 C 
ATOM     20  C   UNL     1      35.965 -21.674 -17.560  0.00  0.00    +0.016 C 
ENDBRANCH   1  15
BRANCH   2  22
ATOM     21  C   UNL     1      37.444 -24.590 -13.150  0.00  0.00    +0.123 C 
ATOM     22  C   UNL     1      35.279 -23.786 -12.443  0.00  0.00    +0.059 C 
ATOM     23  C   UNL     1      36.058 -24.741 -13.095  0.00  0.00    +0.035 C 
ATOM     24  C   UNL     1      38.050 -23.486 -12.553  0.00  0.00    +0.020 C 
ATOM     25  C   UNL     1      35.885 -22.681 -11.844  0.00  0.00    +0.015 C 
ATOM     26  C   UNL     1      37.270 -22.531 -11.900  0.00  0.00    +0.003 C 
BRANCH  21  27
ATOM     27  S   UNL     1      38.421 -25.785 -13.966  0.00  0.00    +0.057 S 
ATOM     28  O   UNL     1      39.619 -26.020 -13.173  0.00  0.00    -0.153 OA
ATOM     29  O   UNL     1      37.567 -26.906 -14.336  0.00  0.00    -0.153 OA
BRANCH  27  30
ATOM     30  N   UNL     1      38.857 -24.936 -15.384  0.00  0.00    -0.203 NA
ATOM     31  H   UNL     1      39.209 -24.013 -15.132  0.00  0.00    +0.144 HD
ATOM     32  H   UNL     1      38.040 -24.836 -15.986  0.00  0.00    +0.144 HD
ENDBRANCH  27  30
ENDBRANCH  21  27
ENDBRANCH   2  22
TORSDOF 4
ENDMDL
MODEL 7
REMARK VINA RESULT:     -10.2      1.845      2.121
REMARK  Name = 25011728
REMARK  4 active torsions:
REMARK  status: ('A' for Active; 'I' for Inactive)
REMARK    1  A    between atoms: N_1  and  C_15
REMARK    2  A    between atoms: N_2  and  C_22
REMARK    3  A    between atoms: C_21  and  S_27
REMARK    4  A    between atoms: S_27  and  N_30
REMARK                            x       y       z     vdW  Elec       q    Type
REMARK                         _______ _______ _______ _____ _____    ______ ____
ROOT
ATOM      1  N   UNL     1      34.200 -24.169 -12.905  0.00  0.00    -0.284 N 
ATOM      2  N   UNL     1      32.721 -22.477 -17.057  0.00  0.00    -0.247 N 
ATOM      3  N   UNL     1      33.477 -23.311 -14.999  0.00  0.00    -0.322 NA
ATOM      4  N   UNL     1      31.170 -23.538 -15.654  0.00  0.00    -0.170 NA
ATOM      5  C   UNL     1      33.176 -23.948 -13.849  0.00  0.00    +0.198 C 
ATOM      6  C   UNL     1      32.443 -23.142 -15.843  0.00  0.00    +0.150 C 
ATOM      7  C   UNL     1      31.912 -24.405 -13.534  0.00  0.00    +0.070 C 
ATOM      8  C   UNL     1      30.939 -24.169 -14.483  0.00  0.00    +0.116 C 
ATOM      9  H   UNL     1      33.880 -24.191 -11.974  0.00  0.00    +0.155 HD
ATOM     10  H   UNL     1      31.936 -22.376 -17.643  0.00  0.00    +0.165 HD
ENDROOT
BRANCH   1  15
ATOM     11 CL   UNL     1      35.986 -22.531 -11.051  0.00  0.00    -0.081 Cl
ATOM     12  O   UNL     1      35.345 -26.022 -14.807  0.00  0.00    -0.433 OA
ATOM     13  O   UNL     1      37.711 -26.396 -15.066  0.00  0.00    -0.435 OA
ATOM     14  C   UNL     1      36.084 -25.262 -13.954  0.00  0.00    +0.191 C 
ATOM     15  C   UNL     1      35.588 -24.366 -13.030  0.00  0.00    +0.098 C 
ATOM     16  C   UNL     1      37.436 -25.476 -14.102  0.00  0.00    +0.178 C 
ATOM     17  C   UNL     1      36.508 -23.675 -12.238  0.00  0.00    +0.074 C 
ATOM     18  C   UNL     1      38.365 -24.805 -13.333  0.00  0.00    +0.041 C 
ATOM     19  C   UNL     1      36.382 -26.737 -15.509  0.00  0.00    +0.429 C 
ATOM     20  C   UNL     1      37.889 -23.893 -12.389  0.00  0.00    +0.016 C 
ENDBRANCH   1  15
BRANCH   2  22
ATOM     21  C   UNL     1      35.014 -20.589 -19.268  0.00  0.00    +0.123 C 
ATOM     22  C   UNL     1      33.902 -21.931 -17.595  0.00  0.00    +0.059 C 
ATOM     23  C   UNL     1      33.843 -21.128 -18.734  0.00  0.00    +0.035 C 
ATOM     24  C   UNL     1      36.242 -20.852 -18.663  0.00  0.00    +0.020 C 
ATOM     25  C   UNL     1      35.130 -22.195 -16.990  0.00  0.00    +0.015 C 
ATOM     26  C   UNL     1      36.300 -21.656 -17.523  0.00  0.00    +0.003 C 
BRANCH  21  27
ATOM     27  S   UNL     1      34.943 -19.584 -20.694  0.00  0.00    +0.057 S 
ATOM     28  O   UNL     1      35.021 -20.444 -21.866  0.00  0.00    -0.153 OA
ATOM     29  O   UNL     1      33.830 -18.656 -20.550  0.00  0.00    -0.153 OA
BRANCH  27  30
ATOM     30  N   UNL     1      36.406 -18.713 -20.552  0.00  0.00    -0.203 NA
ATOM     31  H   UNL     1      36.537 -18.425 -19.582  0.00  0.00    +0.144 HD
ATOM     32  H   UNL     1      36.370 -17.887 -21.150  0.00  0.00    +0.144 HD
ENDBRANCH  27  30
ENDBRANCH  21  27
ENDBRANCH   2  22
TORSDOF 4
ENDMDL
MODEL 8
REMARK VINA RESULT:     -10.2      3.345      3.823
REMARK  Name = 25011728
REMARK  4 active torsions:
REMARK  status: ('A' for Active; 'I' for Inactive)
REMARK    1  A    between atoms: N_1  and  C_15
REMARK    2  A    between atoms: N_2  and  C_22
REMARK    3  A    between atoms: C_21  and  S_27
REMARK    4  A    between atoms: S_27  and  N_30
REMARK                            x       y       z     vdW  Elec       q    Type
REMARK                         _______ _______ _______ _____ _____    ______ ____
ROOT
ATOM      1  N   UNL     1      33.900 -24.270 -12.551  0.00  0.00    -0.284 N 
ATOM      2  N   UNL     1      32.295 -22.916 -16.780  0.00  0.00    -0.247 N 
ATOM      3  N   UNL     1      33.114 -23.581 -14.685  0.00  0.00    -0.322 NA
ATOM      4  N   UNL     1      30.807 -23.940 -15.283  0.00  0.00    -0.170 NA
ATOM      5  C   UNL     1      32.855 -24.151 -13.490  0.00  0.00    +0.198 C 
ATOM      6  C   UNL     1      32.061 -23.508 -15.521  0.00  0.00    +0.150 C 
ATOM      7  C   UNL     1      31.614 -24.634 -13.124  0.00  0.00    +0.070 C 
ATOM      8  C   UNL     1      30.619 -24.499 -14.069  0.00  0.00    +0.116 C 
ATOM      9  H   UNL     1      33.595 -24.241 -11.615  0.00  0.00    +0.155 HD
ATOM     10  H   UNL     1      31.498 -22.884 -17.358  0.00  0.00    +0.165 HD
ENDROOT
BRANCH   1  15
ATOM     11 CL   UNL     1      35.641 -22.778 -10.537  0.00  0.00    -0.081 Cl
ATOM     12  O   UNL     1      35.094 -25.902 -14.617  0.00  0.00    -0.433 OA
ATOM     13  O   UNL     1      37.470 -26.194 -14.898  0.00  0.00    -0.435 OA
ATOM     14  C   UNL     1      35.813 -25.211 -13.691  0.00  0.00    +0.191 C 
ATOM     15  C   UNL     1      35.293 -24.422 -12.687  0.00  0.00    +0.098 C 
ATOM     16  C   UNL     1      37.170 -25.378 -13.851  0.00  0.00    +0.178 C 
ATOM     17  C   UNL     1      36.193 -23.789 -11.826  0.00  0.00    +0.074 C 
ATOM     18  C   UNL     1      38.080 -24.764 -13.015  0.00  0.00    +0.041 C 
ATOM     19  C   UNL     1      36.151 -26.521 -15.379  0.00  0.00    +0.429 C 
ATOM     20  C   UNL     1      37.580 -23.960 -11.990  0.00  0.00    +0.016 C 
ENDBRANCH   1  15
BRANCH   2  22
ATOM     21  C   UNL     1      35.735 -21.611 -17.198  0.00  0.00    +0.123 C 
ATOM     22  C   UNL     1      33.445 -22.362 -17.373  0.00  0.00    +0.059 C 
ATOM     23  C   UNL     1      34.595 -22.161 -16.610  0.00  0.00    +0.035 C 
ATOM     24  C   UNL     1      35.724 -21.262 -18.547  0.00  0.00    +0.020 C 
ATOM     25  C   UNL     1      33.435 -22.012 -18.723  0.00  0.00    +0.015 C 
ATOM     26  C   UNL     1      34.574 -21.463 -19.310  0.00  0.00    +0.003 C 
BRANCH  21  27
ATOM     27  S   UNL     1      37.175 -21.358 -16.243  0.00  0.00    +0.057 S 
ATOM     28  O   UNL     1      38.054 -22.504 -16.425  0.00  0.00    -0.153 OA
ATOM     29  O   UNL     1      37.673 -20.015 -16.504  0.00  0.00    -0.153 OA
BRANCH  27  30
ATOM     30  N   UNL     1      36.528 -21.406 -14.661  0.00  0.00    -0.203 NA
ATOM     31  H   UNL     1      35.703 -22.005 -14.650  0.00  0.00    +0.144 HD
ATOM     32  H   UNL     1      36.269 -20.463 -14.371  0.00  0.00    +0.144 HD
ENDBRANCH  27  30
ENDBRANCH  21  27
ENDBRANCH   2  22
TORSDOF 4
ENDMDL
MODEL 9
REMARK VINA RESULT:      -9.6      1.910      2.236
REMARK  Name = 25011728
REMARK  4 active torsions:
REMARK  status: ('A' for Active; 'I' for Inactive)
REMARK    1  A    between atoms: N_1  and  C_15
REMARK    2  A    between atoms: N_2  and  C_22
REMARK    3  A    between atoms: C_21  and  S_27
REMARK    4  A    between atoms: S_27  and  N_30
REMARK                            x       y       z     vdW  Elec       q    Type
REMARK                         _______ _______ _______ _____ _____    ______ ____
ROOT
ATOM      1  N   UNL     1      33.047 -23.293 -13.828  0.00  0.00    -0.284 N 
ATOM      2  N   UNL     1      31.975 -21.687 -18.137  0.00  0.00    -0.247 N 
ATOM      3  N   UNL     1      32.530 -22.480 -16.001  0.00  0.00    -0.322 NA
ATOM      4  N   UNL     1      30.247 -22.489 -16.769  0.00  0.00    -0.170 NA
ATOM      5  C   UNL     1      32.102 -23.014 -14.838  0.00  0.00    +0.198 C 
ATOM      6  C   UNL     1      31.564 -22.247 -16.908  0.00  0.00    +0.150 C 
ATOM      7  C   UNL     1      30.781 -23.309 -14.570  0.00  0.00    +0.070 C 
ATOM      8  C   UNL     1      29.888 -23.022 -15.582  0.00  0.00    +0.116 C 
ATOM      9  H   UNL     1      32.681 -23.226 -12.916  0.00  0.00    +0.155 HD
ATOM     10  H   UNL     1      31.236 -21.534 -18.770  0.00  0.00    +0.165 HD
ENDROOT
BRANCH   1  15
ATOM     11 CL   UNL     1      34.041 -24.621 -16.388  0.00  0.00    -0.081 Cl
ATOM     12  O   UNL     1      34.846 -22.808 -11.616  0.00  0.00    -0.433 OA
ATOM     13  O   UNL     1      37.182 -23.399 -11.626  0.00  0.00    -0.435 OA
ATOM     14  C   UNL     1      35.225 -23.397 -12.783  0.00  0.00    +0.191 C 
ATOM     15  C   UNL     1      34.408 -23.649 -13.866  0.00  0.00    +0.098 C 
ATOM     16  C   UNL     1      36.559 -23.734 -12.789  0.00  0.00    +0.178 C 
ATOM     17  C   UNL     1      34.981 -24.263 -14.982  0.00  0.00    +0.074 C 
ATOM     18  C   UNL     1      37.149 -24.342 -13.878  0.00  0.00    +0.041 C 
ATOM     19  C   UNL     1      36.090 -22.814 -10.888  0.00  0.00    +0.429 C 
ATOM     20  C   UNL     1      36.345 -24.608 -14.988  0.00  0.00    +0.016 C 
ENDBRANCH   1  15
BRANCH   2  22
ATOM     21  C   UNL     1      34.571 -20.050 -20.209  0.00  0.00    +0.123 C 
ATOM     22  C   UNL     1      33.235 -21.306 -18.636  0.00  0.00    +0.059 C 
ATOM     23  C   UNL     1      33.322 -20.426 -19.714  0.00  0.00    +0.035 C 
ATOM     24  C   UNL     1      35.733 -20.556 -19.627  0.00  0.00    +0.020 C 
ATOM     25  C   UNL     1      34.397 -21.813 -18.054  0.00  0.00    +0.015 C 
ATOM     26  C   UNL     1      35.646 -21.437 -18.549  0.00  0.00    +0.003 C 
BRANCH  21  27
ATOM     27  S   UNL     1      34.681 -18.948 -21.559  0.00  0.00    +0.057 S 
ATOM     28  O   UNL     1      35.995 -19.097 -22.168  0.00  0.00    -0.153 OA
ATOM     29  O   UNL     1      33.484 -19.096 -22.375  0.00  0.00    -0.153 OA
BRANCH  27  30
ATOM     30  N   UNL     1      34.614 -17.441 -20.755  0.00  0.00    -0.203 NA
ATOM     31  H   UNL     1      34.413 -17.593 -19.766  0.00  0.00    +0.144 HD
ATOM     32  H   UNL     1      33.878 -16.868 -21.167  0.00  0.00    +0.144 HD
ENDBRANCH  27  30
ENDBRANCH  21  27
ENDBRANCH   2  22
TORSDOF 4
ENDMDL
