MODEL 1
REMARK VINA RESULT:     -10.1      0.000      0.000
REMARK  Name = 9865587
REMARK  5 active torsions:
REMARK  status: ('A' for Active; 'I' for Inactive)
REMARK    1  A    between atoms: C_3  and  C_9
REMARK    2  A    between atoms: C_4  and  C_27
REMARK    3  A    between atoms: C_5  and  C_19
REMARK    4  A    between atoms: C_14  and  C_15
REMARK    5  A    between atoms: C_15  and  O_16
REMARK                            x       y       z     vdW  Elec       q    Type
REMARK                         _______ _______ _______ _____ _____    ______ ____
ROOT
ATOM      1  N   UNL     1      32.955 -24.000 -13.219  0.00  0.00    -0.280 N 
ATOM      2  N   UNL     1      34.107 -24.619 -12.910  0.00  0.00    -0.173 NA
ATOM      3  C   UNL     1      33.047 -23.194 -14.310  0.00  0.00    +0.054 A 
ATOM      4  C   UNL     1      34.339 -23.283 -14.749  0.00  0.00    +0.050 A 
ATOM      5  C   UNL     1      34.950 -24.176 -13.848  0.00  0.00    +0.103 A 
ATOM      6  H   UNL     1      32.123 -24.120 -12.706  0.00  0.00    +0.189 HD
ENDROOT
BRANCH   3   9
ATOM      7  O   UNL     1      26.903 -22.584 -15.040  0.00  0.00    -0.272 OA
ATOM      8  N   UNL     1      29.093 -22.142 -15.674  0.00  0.00    -0.277 N 
ATOM      9  C   UNL     1      31.847 -22.410 -14.815  0.00  0.00    +0.043 C 
ATOM     10  C   UNL     1      30.679 -22.429 -13.811  0.00  0.00    +0.027 C 
ATOM     11  C   UNL     1      31.380 -22.898 -16.199  0.00  0.00    +0.027 C 
ATOM     12  C   UNL     1      29.481 -21.650 -14.351  0.00  0.00    +0.094 C 
ATOM     13  C   UNL     1      30.163 -22.107 -16.679  0.00  0.00    +0.094 C 
ATOM     14  C   UNL     1      27.789 -22.579 -15.899  0.00  0.00    +0.256 C 
BRANCH  14  15
ATOM     15  C   UNL     1      27.471 -23.074 -17.288  0.00  0.00    +0.223 C 
BRANCH  15  16
ATOM     16  O   UNL     1      27.135 -24.433 -17.163  0.00  0.00    -0.374 OA
ATOM     17  H   UNL     1      27.006 -24.650 -16.227  0.00  0.00    +0.211 HD
ENDBRANCH  15  16
ENDBRANCH  14  15
ENDBRANCH   3   9
BRANCH   5  19
ATOM     18 CL   UNL     1      40.605 -26.013 -13.885  0.00  0.00    -0.082 Cl
ATOM     19  C   UNL     1      36.319 -24.622 -13.855  0.00  0.00    +0.019 C 
ATOM     20  C   UNL     1      37.263 -23.974 -13.062  0.00  0.00    +0.002 C 
ATOM     21  C   UNL     1      36.694 -25.697 -14.657  0.00  0.00    +0.002 C 
ATOM     22  C   UNL     1      38.590 -24.405 -13.072  0.00  0.00    +0.011 C 
ATOM     23  C   UNL     1      38.020 -26.128 -14.666  0.00  0.00    +0.011 C 
ATOM     24  C   UNL     1      38.968 -25.481 -13.873  0.00  0.00    +0.058 C 
ENDBRANCH   5  19
BRANCH   4  27
ATOM     25  N   UNL     1      34.141 -22.694 -17.025  0.00  0.00    -0.224 NA
ATOM     26  N   UNL     1      35.760 -21.275 -18.107  0.00  0.00    -0.222 NA
ATOM     27  C   UNL     1      34.857 -22.579 -15.885  0.00  0.00    +0.087 C 
ATOM     28  C   UNL     1      36.018 -21.840 -15.782  0.00  0.00    +0.040 C 
ATOM     29  C   UNL     1      36.425 -21.203 -16.936  0.00  0.00    +0.102 C 
ATOM     30  C   UNL     1      34.643 -22.026 -18.080  0.00  0.00    +0.199 C 
ENDBRANCH   4  27
TORSDOF 5
ENDMDL
MODEL 2
REMARK VINA RESULT:      -9.0      4.683      7.962
REMARK  Name = 9865587
REMARK  5 active torsions:
REMARK  status: ('A' for Active; 'I' for Inactive)
REMARK    1  A    between atoms: C_3  and  C_9
REMARK    2  A    between atoms: C_4  and  C_27
REMARK    3  A    between atoms: C_5  and  C_19
REMARK    4  A    between atoms: C_14  and  C_15
REMARK    5  A    between atoms: C_15  and  O_16
REMARK                            x       y       z     vdW  Elec       q    Type
REMARK                         _______ _______ _______ _____ _____    ______ ____
ROOT
ATOM      1  N   UNL     1      33.004 -24.611 -13.770  0.00  0.00    -0.280 N 
ATOM      2  N   UNL     1      31.682 -24.388 -13.681  0.00  0.00    -0.173 NA
ATOM      3  C   UNL     1      33.578 -24.038 -14.862  0.00  0.00    +0.054 A 
ATOM      4  C   UNL     1      32.576 -23.399 -15.537  0.00  0.00    +0.050 A 
ATOM      5  C   UNL     1      31.425 -23.647 -14.763  0.00  0.00    +0.103 A 
ATOM      6  H   UNL     1      33.509 -25.137 -13.109  0.00  0.00    +0.189 HD
ENDROOT
BRANCH   3   9
ATOM      7  O   UNL     1      39.226 -26.007 -13.165  0.00  0.00    -0.272 OA
ATOM      8  N   UNL     1      37.826 -24.581 -14.348  0.00  0.00    -0.277 N 
ATOM      9  C   UNL     1      35.067 -24.178 -15.135  0.00  0.00    +0.043 C 
ATOM     10  C   UNL     1      35.601 -25.566 -14.732  0.00  0.00    +0.027 C 
ATOM     11  C   UNL     1      35.885 -23.064 -14.456  0.00  0.00    +0.027 C 
ATOM     12  C   UNL     1      37.101 -25.673 -14.999  0.00  0.00    +0.094 C 
ATOM     13  C   UNL     1      37.380 -23.235 -14.730  0.00  0.00    +0.094 C 
ATOM     14  C   UNL     1      38.860 -24.866 -13.458  0.00  0.00    +0.256 C 
BRANCH  14  15
ATOM     15  C   UNL     1      39.554 -23.685 -12.826  0.00  0.00    +0.223 C 
BRANCH  15  16
ATOM     16  O   UNL     1      38.661 -23.152 -11.880  0.00  0.00    -0.374 OA
ATOM     17  H   UNL     1      37.758 -23.432 -12.094  0.00  0.00    +0.211 HD
ENDBRANCH  15  16
ENDBRANCH  14  15
ENDBRANCH   3   9
BRANCH   5  19
ATOM     18 CL   UNL     1      25.880 -21.797 -15.848  0.00  0.00    -0.082 Cl
ATOM     19  C   UNL     1      30.083 -23.198 -15.027  0.00  0.00    +0.019 C 
ATOM     20  C   UNL     1      29.629 -22.005 -14.470  0.00  0.00    +0.002 C 
ATOM     21  C   UNL     1      29.244 -23.960 -15.836  0.00  0.00    +0.002 C 
ATOM     22  C   UNL     1      28.327 -21.572 -14.724  0.00  0.00    +0.011 C 
ATOM     23  C   UNL     1      27.943 -23.526 -16.091  0.00  0.00    +0.011 C 
ATOM     24  C   UNL     1      27.485 -22.332 -15.534  0.00  0.00    +0.058 C 
ENDBRANCH   5  19
BRANCH   4  27
ATOM     25  N   UNL     1      34.014 -22.663 -17.255  0.00  0.00    -0.224 NA
ATOM     26  N   UNL     1      33.214 -21.299 -19.073  0.00  0.00    -0.222 NA
ATOM     27  C   UNL     1      32.760 -22.667 -16.755  0.00  0.00    +0.087 C 
ATOM     28  C   UNL     1      31.697 -22.018 -17.350  0.00  0.00    +0.040 C 
ATOM     29  C   UNL     1      31.986 -21.345 -18.519  0.00  0.00    +0.102 C 
ATOM     30  C   UNL     1      34.167 -21.970 -18.399  0.00  0.00    +0.199 C 
ENDBRANCH   4  27
TORSDOF 5
ENDMDL
MODEL 3
REMARK VINA RESULT:      -8.7      4.480      7.097
REMARK  Name = 9865587
REMARK  5 active torsions:
REMARK  status: ('A' for Active; 'I' for Inactive)
REMARK    1  A    between atoms: C_3  and  C_9
REMARK    2  A    between atoms: C_4  and  C_27
REMARK    3  A    between atoms: C_5  and  C_19
REMARK    4  A    between atoms: C_14  and  C_15
REMARK    5  A    between atoms: C_15  and  O_16
REMARK                            x       y       z     vdW  Elec       q    Type
REMARK                         _______ _______ _______ _____ _____    ______ ____
ROOT
ATOM      1  N   UNL     1      31.231 -21.655 -18.221  0.00  0.00    -0.280 N 
ATOM      2  N   UNL     1      30.473 -22.033 -17.177  0.00  0.00    -0.173 NA
ATOM      3  C   UNL     1      32.555 -21.911 -18.050  0.00  0.00    +0.054 A 
ATOM      4  C   UNL     1      32.683 -22.491 -16.819  0.00  0.00    +0.050 A 
ATOM      5  C   UNL     1      31.366 -22.544 -16.324  0.00  0.00    +0.103 A 
ATOM      6  H   UNL     1      30.863 -21.235 -19.032  0.00  0.00    +0.189 HD
ENDROOT
BRANCH   3   9
ATOM      7  O   UNL     1      37.115 -18.260 -20.181  0.00  0.00    -0.272 OA
ATOM      8  N   UNL     1      35.358 -19.744 -20.510  0.00  0.00    -0.277 N 
ATOM      9  C   UNL     1      33.572 -21.554 -19.123  0.00  0.00    +0.043 C 
ATOM     10  C   UNL     1      34.924 -21.130 -18.521  0.00  0.00    +0.027 C 
ATOM     11  C   UNL     1      33.042 -20.472 -20.082  0.00  0.00    +0.027 C 
ATOM     12  C   UNL     1      35.920 -20.760 -19.618  0.00  0.00    +0.094 C 
ATOM     13  C   UNL     1      34.087 -20.118 -21.141  0.00  0.00    +0.094 C 
ATOM     14  C   UNL     1      36.038 -18.544 -20.713  0.00  0.00    +0.256 C 
BRANCH  14  15
ATOM     15  C   UNL     1      35.391 -17.549 -21.643  0.00  0.00    +0.223 C 
BRANCH  15  16
ATOM     16  O   UNL     1      34.770 -16.584 -20.832  0.00  0.00    -0.374 OA
ATOM     17  H   UNL     1      33.810 -16.724 -20.839  0.00  0.00    +0.211 HD
ENDBRANCH  15  16
ENDBRANCH  14  15
ENDBRANCH   3   9
BRANCH   5  19
ATOM     18 CL   UNL     1      29.567 -24.699 -11.082  0.00  0.00    -0.082 Cl
ATOM     19  C   UNL     1      30.931 -23.067 -15.054  0.00  0.00    +0.019 C 
ATOM     20  C   UNL     1      30.156 -24.223 -15.010  0.00  0.00    +0.002 C 
ATOM     21  C   UNL     1      31.287 -22.414 -13.877  0.00  0.00    +0.002 C 
ATOM     22  C   UNL     1      29.733 -24.727 -13.780  0.00  0.00    +0.011 C 
ATOM     23  C   UNL     1      30.865 -22.919 -12.648  0.00  0.00    +0.011 C 
ATOM     24  C   UNL     1      30.088 -24.076 -12.599  0.00  0.00    +0.058 C 
ENDBRANCH   5  19
BRANCH   4  27
ATOM     25  N   UNL     1      34.050 -24.241 -16.024  0.00  0.00    -0.224 NA
ATOM     26  N   UNL     1      36.264 -23.825 -15.169  0.00  0.00    -0.222 NA
ATOM     27  C   UNL     1      33.928 -22.916 -16.250  0.00  0.00    +0.087 C 
ATOM     28  C   UNL     1      34.918 -21.997 -15.966  0.00  0.00    +0.040 C 
ATOM     29  C   UNL     1      36.075 -22.514 -15.422  0.00  0.00    +0.102 C 
ATOM     30  C   UNL     1      35.226 -24.621 -15.490  0.00  0.00    +0.199 C 
ENDBRANCH   4  27
TORSDOF 5
ENDMDL
MODEL 4
REMARK VINA RESULT:      -8.1      4.708      7.199
REMARK  Name = 9865587
REMARK  5 active torsions:
REMARK  status: ('A' for Active; 'I' for Inactive)
REMARK    1  A    between atoms: C_3  and  C_9
REMARK    2  A    between atoms: C_4  and  C_27
REMARK    3  A    between atoms: C_5  and  C_19
REMARK    4  A    between atoms: C_14  and  C_15
REMARK    5  A    between atoms: C_15  and  O_16
REMARK                            x       y       z     vdW  Elec       q    Type
REMARK                         _______ _______ _______ _____ _____    ______ ____
ROOT
ATOM      1  N   UNL     1      32.354 -23.486 -16.476  0.00  0.00    -0.280 N 
ATOM      2  N   UNL     1      32.191 -22.778 -17.606  0.00  0.00    -0.173 NA
ATOM      3  C   UNL     1      33.579 -23.326 -15.908  0.00  0.00    +0.054 A 
ATOM      4  C   UNL     1      34.269 -22.461 -16.711  0.00  0.00    +0.050 A 
ATOM      5  C   UNL     1      33.364 -22.154 -17.745  0.00  0.00    +0.103 A 
ATOM      6  H   UNL     1      31.655 -24.064 -16.094  0.00  0.00    +0.189 HD
ENDROOT
BRANCH   3   9
ATOM      7  O   UNL     1      36.968 -23.705 -10.709  0.00  0.00    -0.272 OA
ATOM      8  N   UNL     1      35.721 -24.671 -12.414  0.00  0.00    -0.277 N 
ATOM      9  C   UNL     1      33.953 -24.047 -14.622  0.00  0.00    +0.043 C 
ATOM     10  C   UNL     1      34.163 -23.069 -13.451  0.00  0.00    +0.027 C 
ATOM     11  C   UNL     1      35.188 -24.948 -14.805  0.00  0.00    +0.027 C 
ATOM     12  C   UNL     1      34.555 -23.816 -12.178  0.00  0.00    +0.094 C 
ATOM     13  C   UNL     1      35.555 -25.649 -13.496  0.00  0.00    +0.094 C 
ATOM     14  C   UNL     1      36.860 -24.526 -11.624  0.00  0.00    +0.256 C 
BRANCH  14  15
ATOM     15  C   UNL     1      38.018 -25.441 -11.933  0.00  0.00    +0.223 C 
BRANCH  15  16
ATOM     16  O   UNL     1      38.776 -24.808 -12.934  0.00  0.00    -0.374 OA
ATOM     17  H   UNL     1      38.335 -23.986 -13.202  0.00  0.00    +0.211 HD
ENDBRANCH  15  16
ENDBRANCH  14  15
ENDBRANCH   3   9
BRANCH   5  19
ATOM     18 CL   UNL     1      34.281 -18.549 -22.384  0.00  0.00    -0.082 Cl
ATOM     19  C   UNL     1      33.586 -21.279 -18.868  0.00  0.00    +0.019 C 
ATOM     20  C   UNL     1      32.512 -20.604 -19.443  0.00  0.00    +0.002 C 
ATOM     21  C   UNL     1      34.873 -21.114 -19.374  0.00  0.00    +0.002 C 
ATOM     22  C   UNL     1      32.728 -19.759 -20.533  0.00  0.00    +0.011 C 
ATOM     23  C   UNL     1      35.088 -20.269 -20.462  0.00  0.00    +0.011 C 
ATOM     24  C   UNL     1      34.015 -19.591 -21.041  0.00  0.00    +0.058 C 
ENDBRANCH   5  19
BRANCH   4  27
ATOM     25  N   UNL     1      36.458 -22.968 -15.992  0.00  0.00    -0.224 NA
ATOM     26  N   UNL     1      38.197 -21.300 -15.969  0.00  0.00    -0.222 NA
ATOM     27  C   UNL     1      35.613 -22.027 -16.467  0.00  0.00    +0.087 C 
ATOM     28  C   UNL     1      35.983 -20.721 -16.714  0.00  0.00    +0.040 C 
ATOM     29  C   UNL     1      37.300 -20.412 -16.444  0.00  0.00    +0.102 C 
ATOM     30  C   UNL     1      37.715 -22.541 -15.768  0.00  0.00    +0.199 C 
ENDBRANCH   4  27
TORSDOF 5
ENDMDL
MODEL 5
REMARK VINA RESULT:      -7.6      1.303      2.140
REMARK  Name = 9865587
REMARK  5 active torsions:
REMARK  status: ('A' for Active; 'I' for Inactive)
REMARK    1  A    between atoms: C_3  and  C_9
REMARK    2  A    between atoms: C_4  and  C_27
REMARK    3  A    between atoms: C_5  and  C_19
REMARK    4  A    between atoms: C_14  and  C_15
REMARK    5  A    between atoms: C_15  and  O_16
REMARK                            x       y       z     vdW  Elec       q    Type
REMARK                         _______ _______ _______ _____ _____    ______ ____
ROOT
ATOM      1  N   UNL     1      32.952 -24.387 -11.936  0.00  0.00    -0.280 N 
ATOM      2  N   UNL     1      34.276 -24.605 -11.876  0.00  0.00    -0.173 NA
ATOM      3  C   UNL     1      32.534 -23.912 -13.139  0.00  0.00    +0.054 A 
ATOM      4  C   UNL     1      33.649 -23.807 -13.923  0.00  0.00    +0.050 A 
ATOM      5  C   UNL     1      34.697 -24.249 -13.093  0.00  0.00    +0.103 A 
ATOM      6  H   UNL     1      32.342 -24.557 -11.182  0.00  0.00    +0.189 HD
ENDROOT
BRANCH   3   9
ATOM      7  O   UNL     1      27.498 -24.252 -16.769  0.00  0.00    -0.272 OA
ATOM      8  N   UNL     1      28.754 -23.233 -15.102  0.00  0.00    -0.277 N 
ATOM      9  C   UNL     1      31.067 -23.604 -13.399  0.00  0.00    +0.043 C 
ATOM     10  C   UNL     1      30.330 -24.797 -14.036  0.00  0.00    +0.027 C 
ATOM     11  C   UNL     1      30.887 -22.336 -14.254  0.00  0.00    +0.027 C 
ATOM     12  C   UNL     1      28.866 -24.456 -14.304  0.00  0.00    +0.094 C 
ATOM     13  C   UNL     1      29.407 -22.056 -14.516  0.00  0.00    +0.094 C 
ATOM     14  C   UNL     1      28.052 -23.251 -16.306  0.00  0.00    +0.256 C 
BRANCH  14  15
ATOM     15  C   UNL     1      27.985 -21.953 -17.070  0.00  0.00    +0.223 C 
BRANCH  15  16
ATOM     16  O   UNL     1      26.812 -21.301 -16.653  0.00  0.00    -0.374 OA
ATOM     17  H   UNL     1      26.863 -21.120 -15.702  0.00  0.00    +0.211 HD
ENDBRANCH  15  16
ENDBRANCH  14  15
ENDBRANCH   3   9
BRANCH   5  19
ATOM     18 CL   UNL     1      40.469 -24.632 -14.469  0.00  0.00    -0.082 Cl
ATOM     19  C   UNL     1      36.095 -24.340 -13.428  0.00  0.00    +0.019 C 
ATOM     20  C   UNL     1      36.501 -25.140 -14.493  0.00  0.00    +0.002 C 
ATOM     21  C   UNL     1      37.034 -23.631 -12.684  0.00  0.00    +0.002 C 
ATOM     22  C   UNL     1      37.856 -25.231 -14.815  0.00  0.00    +0.011 C 
ATOM     23  C   UNL     1      38.387 -23.721 -13.006  0.00  0.00    +0.011 C 
ATOM     24  C   UNL     1      38.798 -24.521 -14.072  0.00  0.00    +0.058 C 
ENDBRANCH   5  19
BRANCH   4  27
ATOM     25  N   UNL     1      34.595 -22.432 -15.590  0.00  0.00    -0.224 NA
ATOM     26  N   UNL     1      33.718 -22.384 -17.834  0.00  0.00    -0.222 NA
ATOM     27  C   UNL     1      33.643 -23.338 -15.277  0.00  0.00    +0.087 C 
ATOM     28  C   UNL     1      32.708 -23.808 -16.178  0.00  0.00    +0.040 C 
ATOM     29  C   UNL     1      32.795 -23.290 -17.454  0.00  0.00    +0.102 C 
ATOM     30  C   UNL     1      34.574 -22.004 -16.866  0.00  0.00    +0.199 C 
ENDBRANCH   4  27
TORSDOF 5
ENDMDL
MODEL 6
REMARK VINA RESULT:      -7.2      4.833      8.145
REMARK  Name = 9865587
REMARK  5 active torsions:
REMARK  status: ('A' for Active; 'I' for Inactive)
REMARK    1  A    between atoms: C_3  and  C_9
REMARK    2  A    between atoms: C_4  and  C_27
REMARK    3  A    between atoms: C_5  and  C_19
REMARK    4  A    between atoms: C_14  and  C_15
REMARK    5  A    between atoms: C_15  and  O_16
REMARK                            x       y       z     vdW  Elec       q    Type
REMARK                         _______ _______ _______ _____ _____    ______ ____
ROOT
ATOM      1  N   UNL     1      37.338 -19.831 -17.237  0.00  0.00    -0.280 N 
ATOM      2  N   UNL     1      37.100 -19.124 -18.355  0.00  0.00    -0.173 NA
ATOM      3  C   UNL     1      36.525 -20.911 -17.095  0.00  0.00    +0.054 A 
ATOM      4  C   UNL     1      35.698 -20.920 -18.183  0.00  0.00    +0.050 A 
ATOM      5  C   UNL     1      36.097 -19.794 -18.929  0.00  0.00    +0.103 A 
ATOM      6  H   UNL     1      38.035 -19.590 -16.584  0.00  0.00    +0.189 HD
ENDROOT
BRANCH   3   9
ATOM      7  O   UNL     1      38.656 -26.128 -14.468  0.00  0.00    -0.272 OA
ATOM      8  N   UNL     1      37.123 -24.390 -14.616  0.00  0.00    -0.277 N 
ATOM      9  C   UNL     1      36.643 -21.834 -15.892  0.00  0.00    +0.043 C 
ATOM     10  C   UNL     1      38.063 -22.411 -15.742  0.00  0.00    +0.027 C 
ATOM     11  C   UNL     1      35.598 -22.965 -15.929  0.00  0.00    +0.027 C 
ATOM     12  C   UNL     1      38.149 -23.348 -14.539  0.00  0.00    +0.094 C 
ATOM     13  C   UNL     1      35.747 -23.889 -14.720  0.00  0.00    +0.094 C 
ATOM     14  C   UNL     1      37.492 -25.733 -14.572  0.00  0.00    +0.256 C 
BRANCH  14  15
ATOM     15  C   UNL     1      36.376 -26.745 -14.660  0.00  0.00    +0.223 C 
BRANCH  15  16
ATOM     16  O   UNL     1      36.223 -27.057 -16.022  0.00  0.00    -0.374 OA
ATOM     17  H   UNL     1      35.742 -27.895 -16.110  0.00  0.00    +0.211 HD
ENDBRANCH  15  16
ENDBRANCH  14  15
ENDBRANCH   3   9
BRANCH   5  19
ATOM     18 CL   UNL     1      33.820 -17.898 -24.084  0.00  0.00    -0.082 Cl
ATOM     19  C   UNL     1      35.546 -19.336 -20.179  0.00  0.00    +0.019 C 
ATOM     20  C   UNL     1      36.333 -18.587 -21.049  0.00  0.00    +0.002 C 
ATOM     21  C   UNL     1      34.229 -19.643 -20.510  0.00  0.00    +0.002 C 
ATOM     22  C   UNL     1      35.798 -18.141 -22.259  0.00  0.00    +0.011 C 
ATOM     23  C   UNL     1      33.695 -19.198 -21.719  0.00  0.00    +0.011 C 
ATOM     24  C   UNL     1      34.480 -18.447 -22.593  0.00  0.00    +0.058 C 
ENDBRANCH   5  19
BRANCH   4  27
ATOM     25  N   UNL     1      34.791 -22.599 -19.570  0.00  0.00    -0.224 NA
ATOM     26  N   UNL     1      32.793 -23.799 -18.958  0.00  0.00    -0.222 NA
ATOM     27  C   UNL     1      34.682 -21.903 -18.418  0.00  0.00    +0.087 C 
ATOM     28  C   UNL     1      33.670 -22.097 -17.500  0.00  0.00    +0.040 C 
ATOM     29  C   UNL     1      32.745 -23.068 -17.826  0.00  0.00    +0.102 C 
ATOM     30  C   UNL     1      33.827 -23.516 -19.774  0.00  0.00    +0.199 C 
ENDBRANCH   4  27
TORSDOF 5
ENDMDL
