MODEL 1
REMARK VINA RESULT:     -11.7      0.000      0.000
REMARK  Name = 16045340
REMARK  6 active torsions:
REMARK  status: ('A' for Active; 'I' for Inactive)
REMARK    1  A    between atoms: C_2  and  O_8
REMARK    2  A    between atoms: C_4  and  O_20
REMARK    3  A    between atoms: O_8  and  C_9
REMARK    4  A    between atoms: C_9  and  C_13
REMARK    5  A    between atoms: O_20  and  C_22
REMARK    6  A    between atoms: C_25  and  C_29
REMARK                            x       y       z     vdW  Elec       q    Type
REMARK                         _______ _______ _______ _____ _____    ______ ____
ROOT
ATOM      1 CL   UNL     1      31.745 -11.826 -20.009  0.00  0.00    -0.079 Cl
ATOM      2  C   UNL     1      33.991 -14.797 -22.549  0.00  0.00    +0.142 C 
ATOM      3  C   UNL     1      33.218 -13.819 -23.165  0.00  0.00    +0.075 C 
ATOM      4  C   UNL     1      32.519 -12.895 -22.387  0.00  0.00    +0.159 C 
ATOM      5  C   UNL     1      34.073 -14.861 -21.161  0.00  0.00    +0.038 C 
ATOM      6  C   UNL     1      32.598 -12.955 -20.997  0.00  0.00    +0.092 C 
ATOM      7  C   UNL     1      33.375 -13.937 -20.383  0.00  0.00    +0.018 C 
ENDROOT
BRANCH   2   8
ATOM      8  O   UNL     1      34.675 -15.703 -23.312  0.00  0.00    -0.469 OA
BRANCH   8   9
ATOM      9  C   UNL     1      34.220 -17.055 -23.261  0.00  0.00    +0.248 C 
BRANCH   9  13
ATOM     10  N   UNL     1      36.339 -17.603 -22.085  0.00  0.00    -0.228 N 
ATOM     11  N   UNL     1      36.905 -18.379 -21.137  0.00  0.00    -0.128 NA
ATOM     12  N   UNL     1      35.912 -20.077 -19.717  0.00  0.00    -0.192 NA
ATOM     13  C   UNL     1      34.999 -17.814 -22.267  0.00  0.00    +0.093 C 
ATOM     14  C   UNL     1      34.675 -18.796 -21.372  0.00  0.00    +0.060 C 
ATOM     15  C   UNL     1      35.886 -19.120 -20.688  0.00  0.00    +0.050 C 
ATOM     16  C   UNL     1      33.416 -19.347 -21.187  0.00  0.00    +0.065 C 
ATOM     17  C   UNL     1      33.464 -20.324 -20.187  0.00  0.00    +0.001 C 
ATOM     18  C   UNL     1      34.675 -20.633 -19.520  0.00  0.00    +0.105 C 
ATOM     19  H   UNL     1      36.848 -16.940 -22.604  0.00  0.00    +0.175 HD
ENDBRANCH   9  13
ENDBRANCH   8   9
ENDBRANCH   2   8
BRANCH   4  20
ATOM     20  O   UNL     1      31.770 -11.944 -23.013  0.00  0.00    -0.452 OA
BRANCH  20  22
ATOM     21 CL   UNL     1      35.578  -8.882 -24.426  0.00  0.00    -0.082 Cl
ATOM     22  C   UNL     1      32.281 -10.660 -23.073  0.00  0.00    +0.147 C 
ATOM     23  C   UNL     1      31.540  -9.613 -22.553  0.00  0.00    +0.048 C 
ATOM     24  C   UNL     1      33.521 -10.455 -23.651  0.00  0.00    +0.049 C 
ATOM     25  C   UNL     1      32.057  -8.319 -22.614  0.00  0.00    +0.072 C 
ATOM     26  C   UNL     1      34.038  -9.161 -23.711  0.00  0.00    +0.061 C 
ATOM     27  C   UNL     1      33.305  -8.092 -23.193  0.00  0.00    +0.022 C 
BRANCH  25  29
ATOM     28  N   UNL     1      30.693  -6.334 -21.651  0.00  0.00    -0.191 NA
ATOM     29  C   UNL     1      31.306  -7.226 -22.083  0.00  0.00    +0.101 C 
ENDBRANCH  25  29
ENDBRANCH  20  22
ENDBRANCH   4  20
TORSDOF 6
ENDMDL
MODEL 2
REMARK VINA RESULT:     -11.6      4.460      7.044
REMARK  Name = 16045340
REMARK  6 active torsions:
REMARK  status: ('A' for Active; 'I' for Inactive)
REMARK    1  A    between atoms: C_2  and  O_8
REMARK    2  A    between atoms: C_4  and  O_20
REMARK    3  A    between atoms: O_8  and  C_9
REMARK    4  A    between atoms: C_9  and  C_13
REMARK    5  A    between atoms: O_20  and  C_22
REMARK    6  A    between atoms: C_25  and  C_29
REMARK                            x       y       z     vdW  Elec       q    Type
REMARK                         _______ _______ _______ _____ _____    ______ ____
ROOT
ATOM      1 CL   UNL     1      37.366 -18.034 -22.079  0.00  0.00    -0.079 Cl
ATOM      2  C   UNL     1      34.020 -20.296 -20.076  0.00  0.00    +0.142 C 
ATOM      3  C   UNL     1      33.775 -19.633 -21.274  0.00  0.00    +0.075 C 
ATOM      4  C   UNL     1      34.804 -18.930 -21.901  0.00  0.00    +0.159 C 
ATOM      5  C   UNL     1      35.287 -20.265 -19.499  0.00  0.00    +0.038 C 
ATOM      6  C   UNL     1      36.074 -18.896 -21.327  0.00  0.00    +0.092 C 
ATOM      7  C   UNL     1      36.316 -19.563 -20.126  0.00  0.00    +0.018 C 
ENDROOT
BRANCH   2   8
ATOM      8  O   UNL     1      33.011 -20.985 -19.462  0.00  0.00    -0.469 OA
BRANCH   8   9
ATOM      9  C   UNL     1      33.384 -22.166 -18.751  0.00  0.00    +0.248 C 
BRANCH   9  13
ATOM     10  N   UNL     1      31.179 -22.025 -17.615  0.00  0.00    -0.228 N 
ATOM     11  N   UNL     1      30.517 -22.254 -16.462  0.00  0.00    -0.128 NA
ATOM     12  N   UNL     1      31.320 -23.151 -14.355  0.00  0.00    -0.192 NA
ATOM     13  C   UNL     1      32.508 -22.350 -17.582  0.00  0.00    +0.093 C 
ATOM     14  C   UNL     1      32.720 -22.825 -16.316  0.00  0.00    +0.060 C 
ATOM     15  C   UNL     1      31.458 -22.749 -15.651  0.00  0.00    +0.050 C 
ATOM     16  C   UNL     1      33.927 -23.281 -15.808  0.00  0.00    +0.065 C 
ATOM     17  C   UNL     1      33.764 -23.687 -14.480  0.00  0.00    +0.001 C 
ATOM     18  C   UNL     1      32.505 -23.605 -13.836  0.00  0.00    +0.105 C 
ATOM     19  H   UNL     1      30.742 -21.654 -18.414  0.00  0.00    +0.175 HD
ENDBRANCH   9  13
ENDBRANCH   8   9
ENDBRANCH   2   8
BRANCH   4  20
ATOM     20  O   UNL     1      34.540 -18.290 -23.075  0.00  0.00    -0.452 OA
BRANCH  20  22
ATOM     21 CL   UNL     1      34.055 -14.098 -20.233  0.00  0.00    -0.082 Cl
ATOM     22  C   UNL     1      34.232 -16.942 -23.016  0.00  0.00    +0.147 C 
ATOM     23  C   UNL     1      33.867 -16.281 -24.176  0.00  0.00    +0.048 C 
ATOM     24  C   UNL     1      34.294 -16.289 -21.798  0.00  0.00    +0.049 C 
ATOM     25  C   UNL     1      33.556 -14.923 -24.115  0.00  0.00    +0.072 C 
ATOM     26  C   UNL     1      33.983 -14.931 -21.737  0.00  0.00    +0.061 C 
ATOM     27  C   UNL     1      33.615 -14.247 -22.896  0.00  0.00    +0.022 C 
BRANCH  25  29
ATOM     28  N   UNL     1      32.872 -13.654 -26.270  0.00  0.00    -0.191 NA
ATOM     29  C   UNL     1      33.179 -14.224 -25.302  0.00  0.00    +0.101 C 
ENDBRANCH  25  29
ENDBRANCH  20  22
ENDBRANCH   4  20
TORSDOF 6
ENDMDL
MODEL 3
REMARK VINA RESULT:     -11.5      5.768     10.822
REMARK  Name = 16045340
REMARK  6 active torsions:
REMARK  status: ('A' for Active; 'I' for Inactive)
REMARK    1  A    between atoms: C_2  and  O_8
REMARK    2  A    between atoms: C_4  and  O_20
REMARK    3  A    between atoms: O_8  and  C_9
REMARK    4  A    between atoms: C_9  and  C_13
REMARK    5  A    between atoms: O_20  and  C_22
REMARK    6  A    between atoms: C_25  and  C_29
REMARK                            x       y       z     vdW  Elec       q    Type
REMARK                         _______ _______ _______ _____ _____    ______ ____
ROOT
ATOM      1 CL   UNL     1      36.255 -22.428 -16.207  0.00  0.00    -0.079 Cl
ATOM      2  C   UNL     1      34.689 -20.370 -19.900  0.00  0.00    +0.142 C 
ATOM      3  C   UNL     1      34.008 -21.470 -19.391  0.00  0.00    +0.075 C 
ATOM      4  C   UNL     1      34.486 -22.114 -18.248  0.00  0.00    +0.159 C 
ATOM      5  C   UNL     1      35.845 -19.905 -19.277  0.00  0.00    +0.038 C 
ATOM      6  C   UNL     1      35.641 -21.652 -17.620  0.00  0.00    +0.092 C 
ATOM      7  C   UNL     1      36.321 -20.548 -18.135  0.00  0.00    +0.018 C 
ENDROOT
BRANCH   2   8
ATOM      8  O   UNL     1      34.221 -19.740 -21.020  0.00  0.00    -0.469 OA
BRANCH   8   9
ATOM      9  C   UNL     1      35.030 -18.687 -21.546  0.00  0.00    +0.248 C 
BRANCH   9  13
ATOM     10  N   UNL     1      33.892 -18.915 -23.742  0.00  0.00    -0.228 N 
ATOM     11  N   UNL     1      33.351 -18.241 -24.778  0.00  0.00    -0.128 NA
ATOM     12  N   UNL     1      33.148 -15.851 -25.146  0.00  0.00    -0.192 NA
ATOM     13  C   UNL     1      34.402 -18.121 -22.751  0.00  0.00    +0.093 C 
ATOM     14  C   UNL     1      34.175 -16.841 -23.177  0.00  0.00    +0.060 C 
ATOM     15  C   UNL     1      33.519 -16.958 -24.441  0.00  0.00    +0.050 C 
ATOM     16  C   UNL     1      34.521 -15.682 -22.499  0.00  0.00    +0.065 C 
ATOM     17  C   UNL     1      34.131 -14.561 -23.238  0.00  0.00    +0.001 C 
ATOM     18  C   UNL     1      33.482 -14.695 -24.490  0.00  0.00    +0.105 C 
ATOM     19  H   UNL     1      33.917 -19.897 -23.702  0.00  0.00    +0.175 HD
ENDBRANCH   9  13
ENDBRANCH   8   9
ENDBRANCH   2   8
BRANCH   4  20
ATOM     20  O   UNL     1      33.800 -23.189 -17.766  0.00  0.00    -0.452 OA
BRANCH  20  22
ATOM     21 CL   UNL     1      32.932 -23.006 -12.757  0.00  0.00    -0.082 Cl
ATOM     22  C   UNL     1      32.899 -22.969 -16.740  0.00  0.00    +0.147 C 
ATOM     23  C   UNL     1      31.591 -22.638 -17.048  0.00  0.00    +0.048 C 
ATOM     24  C   UNL     1      33.328 -23.087 -15.430  0.00  0.00    +0.049 C 
ATOM     25  C   UNL     1      30.684 -22.416 -16.012  0.00  0.00    +0.072 C 
ATOM     26  C   UNL     1      32.421 -22.866 -14.394  0.00  0.00    +0.061 C 
ATOM     27  C   UNL     1      31.098 -22.530 -14.685  0.00  0.00    +0.022 C 
BRANCH  25  29
ATOM     28  N   UNL     1      28.226 -21.792 -16.555  0.00  0.00    -0.191 NA
ATOM     29  C   UNL     1      29.330 -22.072 -16.311  0.00  0.00    +0.101 C 
ENDBRANCH  25  29
ENDBRANCH  20  22
ENDBRANCH   4  20
TORSDOF 6
ENDMDL
MODEL 4
REMARK VINA RESULT:     -11.4      7.422     12.191
REMARK  Name = 16045340
REMARK  6 active torsions:
REMARK  status: ('A' for Active; 'I' for Inactive)
REMARK    1  A    between atoms: C_2  and  O_8
REMARK    2  A    between atoms: C_4  and  O_20
REMARK    3  A    between atoms: O_8  and  C_9
REMARK    4  A    between atoms: C_9  and  C_13
REMARK    5  A    between atoms: O_20  and  C_22
REMARK    6  A    between atoms: C_25  and  C_29
REMARK                            x       y       z     vdW  Elec       q    Type
REMARK                         _______ _______ _______ _____ _____    ______ ____
ROOT
ATOM      1 CL   UNL     1      31.335 -22.788 -12.902  0.00  0.00    -0.079 Cl
ATOM      2  C   UNL     1      32.433 -22.750 -17.274  0.00  0.00    +0.142 C 
ATOM      3  C   UNL     1      33.383 -23.137 -16.335  0.00  0.00    +0.075 C 
ATOM      4  C   UNL     1      33.052 -23.152 -14.979  0.00  0.00    +0.159 C 
ATOM      5  C   UNL     1      31.154 -22.378 -16.871  0.00  0.00    +0.038 C 
ATOM      6  C   UNL     1      31.772 -22.780 -14.571  0.00  0.00    +0.092 C 
ATOM      7  C   UNL     1      30.823 -22.393 -15.517  0.00  0.00    +0.018 C 
ENDROOT
BRANCH   2   8
ATOM      8  O   UNL     1      32.758 -22.736 -18.603  0.00  0.00    -0.469 OA
BRANCH   8   9
ATOM      9  C   UNL     1      32.603 -21.491 -19.285  0.00  0.00    +0.248 C 
BRANCH   9  13
ATOM     10  N   UNL     1      34.995 -21.174 -18.693  0.00  0.00    -0.228 N 
ATOM     11  N   UNL     1      36.123 -20.495 -18.989  0.00  0.00    -0.128 NA
ATOM     12  N   UNL     1      36.523 -18.799 -20.677  0.00  0.00    -0.192 NA
ATOM     13  C   UNL     1      33.916 -20.849 -19.469  0.00  0.00    +0.093 C 
ATOM     14  C   UNL     1      34.379 -19.891 -20.329  0.00  0.00    +0.060 C 
ATOM     15  C   UNL     1      35.756 -19.699 -19.999  0.00  0.00    +0.050 C 
ATOM     16  C   UNL     1      33.640 -19.252 -21.312  0.00  0.00    +0.065 C 
ATOM     17  C   UNL     1      34.445 -18.334 -21.995  0.00  0.00    +0.001 C 
ATOM     18  C   UNL     1      35.809 -18.157 -21.654  0.00  0.00    +0.105 C 
ATOM     19  H   UNL     1      34.953 -21.847 -17.978  0.00  0.00    +0.175 HD
ENDBRANCH   9  13
ENDBRANCH   8   9
ENDBRANCH   2   8
BRANCH   4  20
ATOM     20  O   UNL     1      33.999 -23.536 -14.078  0.00  0.00    -0.452 OA
BRANCH  20  22
ATOM     21 CL   UNL     1      37.642 -20.682 -16.191  0.00  0.00    -0.082 Cl
ATOM     22  C   UNL     1      35.327 -23.415 -14.449  0.00  0.00    +0.147 C 
ATOM     23  C   UNL     1      36.195 -24.464 -14.204  0.00  0.00    +0.048 C 
ATOM     24  C   UNL     1      35.752 -22.248 -15.058  0.00  0.00    +0.049 C 
ATOM     25  C   UNL     1      37.533 -24.342 -14.579  0.00  0.00    +0.072 C 
ATOM     26  C   UNL     1      37.090 -22.125 -15.433  0.00  0.00    +0.061 C 
ATOM     27  C   UNL     1      37.981 -23.172 -15.193  0.00  0.00    +0.022 C 
BRANCH  25  29
ATOM     28  N   UNL     1      39.186 -26.288 -14.133  0.00  0.00    -0.191 NA
ATOM     29  C   UNL     1      38.444 -25.414 -14.333  0.00  0.00    +0.101 C 
ENDBRANCH  25  29
ENDBRANCH  20  22
ENDBRANCH   4  20
TORSDOF 6
ENDMDL
MODEL 5
REMARK VINA RESULT:     -11.4      8.328     11.726
REMARK  Name = 16045340
REMARK  6 active torsions:
REMARK  status: ('A' for Active; 'I' for Inactive)
REMARK    1  A    between atoms: C_2  and  O_8
REMARK    2  A    between atoms: C_4  and  O_20
REMARK    3  A    between atoms: O_8  and  C_9
REMARK    4  A    between atoms: C_9  and  C_13
REMARK    5  A    between atoms: O_20  and  C_22
REMARK    6  A    between atoms: C_25  and  C_29
REMARK                            x       y       z     vdW  Elec       q    Type
REMARK                         _______ _______ _______ _____ _____    ______ ____
ROOT
ATOM      1 CL   UNL     1      28.768 -22.040 -16.519  0.00  0.00    -0.079 Cl
ATOM      2  C   UNL     1      32.340 -23.380 -14.117  0.00  0.00    +0.142 C 
ATOM      3  C   UNL     1      32.474 -23.181 -15.487  0.00  0.00    +0.075 C 
ATOM      4  C   UNL     1      31.374 -22.767 -16.239  0.00  0.00    +0.159 C 
ATOM      5  C   UNL     1      31.115 -23.168 -13.490  0.00  0.00    +0.038 C 
ATOM      6  C   UNL     1      30.146 -22.552 -15.615  0.00  0.00    +0.092 C 
ATOM      7  C   UNL     1      30.016 -22.753 -14.241  0.00  0.00    +0.018 C 
ENDROOT
BRANCH   2   8
ATOM      8  O   UNL     1      33.419 -23.787 -13.381  0.00  0.00    -0.469 OA
BRANCH   8   9
ATOM      9  C   UNL     1      34.695 -23.301 -13.797  0.00  0.00    +0.248 C 
BRANCH   9  13
ATOM     10  N   UNL     1      35.104 -25.501 -14.876  0.00  0.00    -0.228 N 
ATOM     11  N   UNL     1      36.031 -26.447 -15.135  0.00  0.00    -0.128 NA
ATOM     12  N   UNL     1      38.381 -26.529 -14.538  0.00  0.00    -0.192 NA
ATOM     13  C   UNL     1      35.569 -24.427 -14.168  0.00  0.00    +0.093 C 
ATOM     14  C   UNL     1      36.893 -24.697 -13.953  0.00  0.00    +0.060 C 
ATOM     15  C   UNL     1      37.141 -25.961 -14.570  0.00  0.00    +0.050 C 
ATOM     16  C   UNL     1      37.790 -23.889 -13.271  0.00  0.00    +0.065 C 
ATOM     17  C   UNL     1      39.053 -24.488 -13.251  0.00  0.00    +0.001 C 
ATOM     18  C   UNL     1      39.282 -25.743 -13.868  0.00  0.00    +0.105 C 
ATOM     19  H   UNL     1      34.169 -25.577 -15.173  0.00  0.00    +0.175 HD
ENDBRANCH   9  13
ENDBRANCH   8   9
ENDBRANCH   2   8
BRANCH   4  20
ATOM     20  O   UNL     1      31.530 -22.576 -17.579  0.00  0.00    -0.452 OA
BRANCH  20  22
ATOM     21 CL   UNL     1      36.531 -21.987 -16.853  0.00  0.00    -0.082 Cl
ATOM     22  C   UNL     1      32.721 -22.023 -18.015  0.00  0.00    +0.147 C 
ATOM     23  C   UNL     1      32.726 -21.245 -19.160  0.00  0.00    +0.048 C 
ATOM     24  C   UNL     1      33.878 -22.261 -17.295  0.00  0.00    +0.049 C 
ATOM     25  C   UNL     1      33.927 -20.688 -19.598  0.00  0.00    +0.072 C 
ATOM     26  C   UNL     1      35.079 -21.704 -17.733  0.00  0.00    +0.061 C 
ATOM     27  C   UNL     1      35.104 -20.918 -18.885  0.00  0.00    +0.022 C 
BRANCH  25  29
ATOM     28  N   UNL     1      33.971 -19.227 -21.740  0.00  0.00    -0.191 NA
ATOM     29  C   UNL     1      33.951 -19.883 -20.778  0.00  0.00    +0.101 C 
ENDBRANCH  25  29
ENDBRANCH  20  22
ENDBRANCH   4  20
TORSDOF 6
ENDMDL
MODEL 6
REMARK VINA RESULT:     -11.3      6.687     12.269
REMARK  Name = 16045340
REMARK  6 active torsions:
REMARK  status: ('A' for Active; 'I' for Inactive)
REMARK    1  A    between atoms: C_2  and  O_8
REMARK    2  A    between atoms: C_4  and  O_20
REMARK    3  A    between atoms: O_8  and  C_9
REMARK    4  A    between atoms: C_9  and  C_13
REMARK    5  A    between atoms: O_20  and  C_22
REMARK    6  A    between atoms: C_25  and  C_29
REMARK                            x       y       z     vdW  Elec       q    Type
REMARK                         _______ _______ _______ _____ _____    ______ ____
ROOT
ATOM      1 CL   UNL     1      33.727 -22.930 -14.681  0.00  0.00    -0.079 Cl
ATOM      2  C   UNL     1      35.127 -21.469 -18.709  0.00  0.00    +0.142 C 
ATOM      3  C   UNL     1      35.927 -21.260 -17.591  0.00  0.00    +0.075 C 
ATOM      4  C   UNL     1      35.502 -21.709 -16.340  0.00  0.00    +0.159 C 
ATOM      5  C   UNL     1      33.904 -22.124 -18.589  0.00  0.00    +0.038 C 
ATOM      6  C   UNL     1      34.278 -22.365 -16.215  0.00  0.00    +0.092 C 
ATOM      7  C   UNL     1      33.479 -22.573 -17.339  0.00  0.00    +0.018 C 
ENDROOT
BRANCH   2   8
ATOM      8  O   UNL     1      35.544 -21.029 -19.935  0.00  0.00    -0.469 OA
BRANCH   8   9
ATOM      9  C   UNL     1      34.523 -20.642 -20.856  0.00  0.00    +0.248 C 
BRANCH   9  13
ATOM     10  N   UNL     1      35.292 -18.325 -20.394  0.00  0.00    -0.228 N 
ATOM     11  N   UNL     1      35.364 -17.070 -20.883  0.00  0.00    -0.128 NA
ATOM     12  N   UNL     1      34.592 -16.177 -23.002  0.00  0.00    -0.192 NA
ATOM     13  C   UNL     1      34.688 -19.227 -21.228  0.00  0.00    +0.093 C 
ATOM     14  C   UNL     1      34.345 -18.502 -22.337  0.00  0.00    +0.060 C 
ATOM     15  C   UNL     1      34.783 -17.166 -22.083  0.00  0.00    +0.050 C 
ATOM     16  C   UNL     1      33.704 -18.991 -23.464  0.00  0.00    +0.065 C 
ATOM     17  C   UNL     1      33.518 -17.962 -24.393  0.00  0.00    +0.001 C 
ATOM     18  C   UNL     1      33.958 -16.642 -24.125  0.00  0.00    +0.105 C 
ATOM     19  H   UNL     1      35.645 -18.572 -19.510  0.00  0.00    +0.175 HD
ENDBRANCH   9  13
ENDBRANCH   8   9
ENDBRANCH   2   8
BRANCH   4  20
ATOM     20  O   UNL     1      36.304 -21.495 -15.260  0.00  0.00    -0.452 OA
BRANCH  20  22
ATOM     21 CL   UNL     1      39.802 -25.188 -15.224  0.00  0.00    -0.082 Cl
ATOM     22  C   UNL     1      36.833 -22.603 -14.622  0.00  0.00    +0.147 C 
ATOM     23  C   UNL     1      36.262 -23.038 -13.438  0.00  0.00    +0.048 C 
ATOM     24  C   UNL     1      37.918 -23.250 -15.185  0.00  0.00    +0.049 C 
ATOM     25  C   UNL     1      36.796 -24.155 -12.796  0.00  0.00    +0.072 C 
ATOM     26  C   UNL     1      38.452 -24.368 -14.543  0.00  0.00    +0.061 C 
ATOM     27  C   UNL     1      37.891 -24.820 -13.348  0.00  0.00    +0.022 C 
BRANCH  25  29
ATOM     28  N   UNL     1      35.752 -24.994 -10.576  0.00  0.00    -0.191 NA
ATOM     29  C   UNL     1      36.221 -24.617 -11.573  0.00  0.00    +0.101 C 
ENDBRANCH  25  29
ENDBRANCH  20  22
ENDBRANCH   4  20
TORSDOF 6
ENDMDL
MODEL 7
REMARK VINA RESULT:     -11.3      2.516      3.497
REMARK  Name = 16045340
REMARK  6 active torsions:
REMARK  status: ('A' for Active; 'I' for Inactive)
REMARK    1  A    between atoms: C_2  and  O_8
REMARK    2  A    between atoms: C_4  and  O_20
REMARK    3  A    between atoms: O_8  and  C_9
REMARK    4  A    between atoms: C_9  and  C_13
REMARK    5  A    between atoms: O_20  and  C_22
REMARK    6  A    between atoms: C_25  and  C_29
REMARK                            x       y       z     vdW  Elec       q    Type
REMARK                         _______ _______ _______ _____ _____    ______ ____
ROOT
ATOM      1 CL   UNL     1      30.637  -9.751 -19.410  0.00  0.00    -0.079 Cl
ATOM      2  C   UNL     1      32.408 -12.493 -22.519  0.00  0.00    +0.142 C 
ATOM      3  C   UNL     1      31.819 -11.298 -22.919  0.00  0.00    +0.075 C 
ATOM      4  C   UNL     1      31.268 -10.443 -21.963  0.00  0.00    +0.159 C 
ATOM      5  C   UNL     1      32.452 -12.843 -21.172  0.00  0.00    +0.038 C 
ATOM      6  C   UNL     1      31.311 -10.788 -20.613  0.00  0.00    +0.092 C 
ATOM      7  C   UNL     1      31.902 -11.988 -20.217  0.00  0.00    +0.018 C 
ENDROOT
BRANCH   2   8
ATOM      8  O   UNL     1      32.948 -13.332 -23.456  0.00  0.00    -0.469 OA
BRANCH   8   9
ATOM      9  C   UNL     1      34.121 -14.048 -23.071  0.00  0.00    +0.248 C 
BRANCH   9  13
ATOM     10  N   UNL     1      33.490 -15.848 -24.663  0.00  0.00    -0.228 N 
ATOM     11  N   UNL     1      33.441 -17.183 -24.855  0.00  0.00    -0.128 NA
ATOM     12  N   UNL     1      34.110 -18.993 -23.385  0.00  0.00    -0.192 NA
ATOM     13  C   UNL     1      33.995 -15.466 -23.450  0.00  0.00    +0.093 C 
ATOM     14  C   UNL     1      34.295 -16.638 -22.812  0.00  0.00    +0.060 C 
ATOM     15  C   UNL     1      33.937 -17.682 -23.718  0.00  0.00    +0.050 C 
ATOM     16  C   UNL     1      34.838 -16.758 -21.542  0.00  0.00    +0.065 C 
ATOM     17  C   UNL     1      35.008 -18.109 -21.220  0.00  0.00    +0.001 C 
ATOM     18  C   UNL     1      34.646 -19.132 -22.131  0.00  0.00    +0.105 C 
ATOM     19  H   UNL     1      33.186 -15.202 -25.340  0.00  0.00    +0.175 HD
ENDBRANCH   9  13
ENDBRANCH   8   9
ENDBRANCH   2   8
BRANCH   4  20
ATOM     20  O   UNL     1      30.699  -9.277 -22.378  0.00  0.00    -0.452 OA
BRANCH  20  22
ATOM     21 CL   UNL     1      32.337  -5.173 -19.857  0.00  0.00    -0.082 Cl
ATOM     22  C   UNL     1      31.487  -8.140 -22.376  0.00  0.00    +0.147 C 
ATOM     23  C   UNL     1      32.237  -7.835 -23.498  0.00  0.00    +0.048 C 
ATOM     24  C   UNL     1      31.505  -7.335 -21.250  0.00  0.00    +0.049 C 
ATOM     25  C   UNL     1      33.031  -6.688 -23.494  0.00  0.00    +0.072 C 
ATOM     26  C   UNL     1      32.299  -6.189 -21.246  0.00  0.00    +0.061 C 
ATOM     27  C   UNL     1      33.063  -5.865 -22.368  0.00  0.00    +0.022 C 
BRANCH  25  29
ATOM     28  N   UNL     1      34.450  -6.089 -25.580  0.00  0.00    -0.191 NA
ATOM     29  C   UNL     1      33.813  -6.358 -24.643  0.00  0.00    +0.101 C 
ENDBRANCH  25  29
ENDBRANCH  20  22
ENDBRANCH   4  20
TORSDOF 6
ENDMDL
MODEL 8
REMARK VINA RESULT:     -11.3      1.969      3.034
REMARK  Name = 16045340
REMARK  6 active torsions:
REMARK  status: ('A' for Active; 'I' for Inactive)
REMARK    1  A    between atoms: C_2  and  O_8
REMARK    2  A    between atoms: C_4  and  O_20
REMARK    3  A    between atoms: O_8  and  C_9
REMARK    4  A    between atoms: C_9  and  C_13
REMARK    5  A    between atoms: O_20  and  C_22
REMARK    6  A    between atoms: C_25  and  C_29
REMARK                            x       y       z     vdW  Elec       q    Type
REMARK                         _______ _______ _______ _____ _____    ______ ____
ROOT
ATOM      1 CL   UNL     1      30.901  -9.620 -19.098  0.00  0.00    -0.079 Cl
ATOM      2  C   UNL     1      32.123 -12.520 -22.326  0.00  0.00    +0.142 C 
ATOM      3  C   UNL     1      31.560 -11.299 -22.682  0.00  0.00    +0.075 C 
ATOM      4  C   UNL     1      31.179 -10.396 -21.690  0.00  0.00    +0.159 C 
ATOM      5  C   UNL     1      32.310 -12.847 -20.985  0.00  0.00    +0.038 C 
ATOM      6  C   UNL     1      31.364 -10.718 -20.346  0.00  0.00    +0.092 C 
ATOM      7  C   UNL     1      31.929 -11.943 -19.993  0.00  0.00    +0.018 C 
ENDROOT
BRANCH   2   8
ATOM      8  O   UNL     1      32.497 -13.406 -23.299  0.00  0.00    -0.469 OA
BRANCH   8   9
ATOM      9  C   UNL     1      33.834 -13.901 -23.232  0.00  0.00    +0.248 C 
BRANCH   9  13
ATOM     10  N   UNL     1      33.431 -15.836 -24.738  0.00  0.00    -0.228 N 
ATOM     11  N   UNL     1      33.515 -17.177 -24.856  0.00  0.00    -0.128 NA
ATOM     12  N   UNL     1      34.298 -18.834 -23.266  0.00  0.00    -0.192 NA
ATOM     13  C   UNL     1      33.855 -15.343 -23.534  0.00  0.00    +0.093 C 
ATOM     14  C   UNL     1      34.241 -16.445 -22.821  0.00  0.00    +0.060 C 
ATOM     15  C   UNL     1      34.015 -17.566 -23.678  0.00  0.00    +0.050 C 
ATOM     16  C   UNL     1      34.747 -16.445 -21.531  0.00  0.00    +0.065 C 
ATOM     17  C   UNL     1      35.032 -17.754 -21.129  0.00  0.00    +0.001 C 
ATOM     18  C   UNL     1      34.800 -18.854 -21.991  0.00  0.00    +0.105 C 
ATOM     19  H   UNL     1      33.093 -15.259 -25.459  0.00  0.00    +0.175 HD
ENDBRANCH   9  13
ENDBRANCH   8   9
ENDBRANCH   2   8
BRANCH   4  20
ATOM     20  O   UNL     1      30.631  -9.205 -22.063  0.00  0.00    -0.452 OA
BRANCH  20  22
ATOM     21 CL   UNL     1      35.114  -7.874 -24.066  0.00  0.00    -0.082 Cl
ATOM     22  C   UNL     1      31.494  -8.189 -22.435  0.00  0.00    +0.147 C 
ATOM     23  C   UNL     1      31.113  -6.873 -22.239  0.00  0.00    +0.048 C 
ATOM     24  C   UNL     1      32.717  -8.515 -22.994  0.00  0.00    +0.049 C 
ATOM     25  C   UNL     1      31.984  -5.850 -22.614  0.00  0.00    +0.072 C 
ATOM     26  C   UNL     1      33.588  -7.493 -23.369  0.00  0.00    +0.061 C 
ATOM     27  C   UNL     1      33.221  -6.160 -23.180  0.00  0.00    +0.022 C 
BRANCH  25  29
ATOM     28  N   UNL     1      31.300  -3.374 -22.263  0.00  0.00    -0.191 NA
ATOM     29  C   UNL     1      31.607  -4.486 -22.420  0.00  0.00    +0.101 C 
ENDBRANCH  25  29
ENDBRANCH  20  22
ENDBRANCH   4  20
TORSDOF 6
ENDMDL
MODEL 9
REMARK VINA RESULT:     -11.2      9.103     11.977
REMARK  Name = 16045340
REMARK  6 active torsions:
REMARK  status: ('A' for Active; 'I' for Inactive)
REMARK    1  A    between atoms: C_2  and  O_8
REMARK    2  A    between atoms: C_4  and  O_20
REMARK    3  A    between atoms: O_8  and  C_9
REMARK    4  A    between atoms: C_9  and  C_13
REMARK    5  A    between atoms: O_20  and  C_22
REMARK    6  A    between atoms: C_25  and  C_29
REMARK                            x       y       z     vdW  Elec       q    Type
REMARK                         _______ _______ _______ _____ _____    ______ ____
ROOT
ATOM      1 CL   UNL     1      28.817 -22.036 -16.500  0.00  0.00    -0.079 Cl
ATOM      2  C   UNL     1      32.350 -23.473 -14.099  0.00  0.00    +0.142 C 
ATOM      3  C   UNL     1      32.498 -23.250 -15.463  0.00  0.00    +0.075 C 
ATOM      4  C   UNL     1      31.410 -22.805 -16.215  0.00  0.00    +0.159 C 
ATOM      5  C   UNL     1      31.124 -23.256 -13.476  0.00  0.00    +0.038 C 
ATOM      6  C   UNL     1      30.180 -22.585 -15.597  0.00  0.00    +0.092 C 
ATOM      7  C   UNL     1      30.037 -22.810 -14.228  0.00  0.00    +0.018 C 
ENDROOT
BRANCH   2   8
ATOM      8  O   UNL     1      33.417 -23.910 -13.362  0.00  0.00    -0.469 OA
BRANCH   8   9
ATOM      9  C   UNL     1      34.698 -23.392 -13.725  0.00  0.00    +0.248 C 
BRANCH   9  13
ATOM     10  N   UNL     1      35.132 -25.530 -14.912  0.00  0.00    -0.228 N 
ATOM     11  N   UNL     1      36.070 -26.451 -15.216  0.00  0.00    -0.128 NA
ATOM     12  N   UNL     1      38.420 -26.537 -14.620  0.00  0.00    -0.192 NA
ATOM     13  C   UNL     1      35.585 -24.488 -14.150  0.00  0.00    +0.093 C 
ATOM     14  C   UNL     1      36.911 -24.754 -13.946  0.00  0.00    +0.060 C 
ATOM     15  C   UNL     1      37.175 -25.982 -14.625  0.00  0.00    +0.050 C 
ATOM     16  C   UNL     1      37.798 -23.971 -13.223  0.00  0.00    +0.065 C 
ATOM     17  C   UNL     1      39.068 -24.556 -13.230  0.00  0.00    +0.001 C 
ATOM     18  C   UNL     1      39.311 -25.776 -13.909  0.00  0.00    +0.105 C 
ATOM     19  H   UNL     1      34.199 -25.602 -15.214  0.00  0.00    +0.175 HD
ENDBRANCH   9  13
ENDBRANCH   8   9
ENDBRANCH   2   8
BRANCH   4  20
ATOM     20  O   UNL     1      31.579 -22.591 -17.550  0.00  0.00    -0.452 OA
BRANCH  20  22
ATOM     21 CL   UNL     1      34.062 -19.790 -20.996  0.00  0.00    -0.082 Cl
ATOM     22  C   UNL     1      32.774 -22.031 -17.965  0.00  0.00    +0.147 C 
ATOM     23  C   UNL     1      33.913 -22.230 -17.205  0.00  0.00    +0.048 C 
ATOM     24  C   UNL     1      32.801 -21.286 -19.130  0.00  0.00    +0.049 C 
ATOM     25  C   UNL     1      35.118 -21.666 -17.624  0.00  0.00    +0.072 C 
ATOM     26  C   UNL     1      34.005 -20.721 -19.550  0.00  0.00    +0.061 C 
ATOM     27  C   UNL     1      35.164 -20.911 -18.796  0.00  0.00    +0.022 C 
BRANCH  25  29
ATOM     28  N   UNL     1      37.270 -22.019 -16.221  0.00  0.00    -0.191 NA
ATOM     29  C   UNL     1      36.304 -21.860 -16.851  0.00  0.00    +0.101 C 
ENDBRANCH  25  29
ENDBRANCH  20  22
ENDBRANCH   4  20
TORSDOF 6
ENDMDL
