MODEL 1
REMARK VINA RESULT:     -12.0      0.000      0.000
REMARK  Name = 15991577
REMARK  8 active torsions:
REMARK  status: ('A' for Active; 'I' for Inactive)
REMARK    1  A    between atoms: C_1  and  N_3
REMARK    2  A    between atoms: C_1  and  C_16
REMARK    3  A    between atoms: N_3  and  C_6
REMARK    4  A    between atoms: C_6  and  C_8
REMARK    5  A    between atoms: C_8  and  C_10
REMARK    6  A    between atoms: C_16  and  C_17
REMARK    7  A    between atoms: C_17  and  C_18
REMARK    8  A    between atoms: C_23  and  C_26
REMARK                            x       y       z     vdW  Elec       q    Type
REMARK                         _______ _______ _______ _____ _____    ______ ____
ROOT
ATOM      1  C   UNL     1      34.616 -17.524 -23.477  0.00  0.00    -0.061 C 
ATOM      2  C   UNL     1      33.498 -17.093 -24.427  0.00  0.00    -0.023 C 
ENDROOT
BRANCH   1   3
ATOM      3  N   UNL     1      35.032 -16.382 -22.661  0.00  0.00    +0.390 N 
ATOM      4  H   UNL     1      36.027 -16.211 -22.807  0.00  0.00    -0.084 HD
ATOM      5  H   UNL     1      34.849 -16.594 -21.681  0.00  0.00    -0.084 HD
BRANCH   3   6
ATOM      6  C   UNL     1      34.285 -15.189 -23.029  0.00  0.00    -0.011 C 
BRANCH   6   8
ATOM      7  O   UNL     1      34.169 -14.850 -20.642  0.00  0.00    -0.294 OA
ATOM      8  C   UNL     1      33.884 -14.447 -21.768  0.00  0.00    +0.152 C 
BRANCH   8  10
ATOM      9  F   UNL     1      31.008  -9.688 -22.280  0.00  0.00    -0.204 F 
ATOM     10  C   UNL     1      33.113 -13.175 -21.906  0.00  0.00    +0.033 C 
ATOM     11  C   UNL     1      32.203 -12.848 -20.928  0.00  0.00    +0.005 C 
ATOM     12  C   UNL     1      33.346 -12.380 -23.004  0.00  0.00    +0.005 C 
ATOM     13  C   UNL     1      31.485 -11.659 -21.056  0.00  0.00    +0.030 C 
ATOM     14  C   UNL     1      32.628 -11.190 -23.132  0.00  0.00    +0.030 C 
ATOM     15  C   UNL     1      31.697 -10.830 -22.158  0.00  0.00    +0.140 C 
ENDBRANCH   8  10
ENDBRANCH   6   8
ENDBRANCH   3   6
ENDBRANCH   1   3
BRANCH   1  16
ATOM     16  C   UNL     1      34.147 -18.692 -22.589  0.00  0.00    -0.017 C 
BRANCH  16  17
ATOM     17  C   UNL     1      35.070 -19.019 -21.406  0.00  0.00    +0.024 C 
BRANCH  17  18
ATOM     18  C   UNL     1      34.455 -19.949 -20.392  0.00  0.00    -0.022 C 
ATOM     19  C   UNL     1      35.280 -20.719 -19.585  0.00  0.00    -0.004 C 
ATOM     20  C   UNL     1      33.074 -20.021 -20.281  0.00  0.00    -0.004 C 
ATOM     21  C   UNL     1      34.710 -21.580 -18.646  0.00  0.00    +0.004 C 
ATOM     22  C   UNL     1      32.505 -20.881 -19.343  0.00  0.00    +0.004 C 
ATOM     23  C   UNL     1      33.323 -21.661 -18.525  0.00  0.00    +0.053 C 
BRANCH  23  26
ATOM     24  O   UNL     1      33.397 -23.454 -17.001  0.00  0.00    -0.270 OA
ATOM     25  N   UNL     1      31.387 -22.375 -17.230  0.00  0.00    -0.325 N 
ATOM     26  C   UNL     1      32.730 -22.560 -17.548  0.00  0.00    +0.243 C 
ATOM     27  H   UNL     1      30.951 -22.965 -16.574  0.00  0.00    +0.145 HD
ATOM     28  H   UNL     1      30.874 -21.654 -17.663  0.00  0.00    +0.145 HD
ENDBRANCH  23  26
ENDBRANCH  17  18
ENDBRANCH  16  17
ENDBRANCH   1  16
TORSDOF 8
ENDMDL
MODEL 2
REMARK VINA RESULT:     -11.6      1.208      1.573
REMARK  Name = 15991577
REMARK  8 active torsions:
REMARK  status: ('A' for Active; 'I' for Inactive)
REMARK    1  A    between atoms: C_1  and  N_3
REMARK    2  A    between atoms: C_1  and  C_16
REMARK    3  A    between atoms: N_3  and  C_6
REMARK    4  A    between atoms: C_6  and  C_8
REMARK    5  A    between atoms: C_8  and  C_10
REMARK    6  A    between atoms: C_16  and  C_17
REMARK    7  A    between atoms: C_17  and  C_18
REMARK    8  A    between atoms: C_23  and  C_26
REMARK                            x       y       z     vdW  Elec       q    Type
REMARK                         _______ _______ _______ _____ _____    ______ ____
ROOT
ATOM      1  C   UNL     1      34.985 -17.214 -23.089  0.00  0.00    -0.061 C 
ATOM      2  C   UNL     1      33.731 -17.899 -23.632  0.00  0.00    -0.023 C 
ENDROOT
BRANCH   1   3
ATOM      3  N   UNL     1      34.944 -15.788 -23.416  0.00  0.00    +0.390 N 
ATOM      4  H   UNL     1      34.520 -15.667 -24.335  0.00  0.00    -0.084 HD
ATOM      5  H   UNL     1      35.896 -15.422 -23.413  0.00  0.00    -0.084 HD
BRANCH   3   6
ATOM      6  C   UNL     1      34.160 -15.058 -22.431  0.00  0.00    -0.011 C 
BRANCH   6   8
ATOM      7  O   UNL     1      33.096 -14.073 -24.361  0.00  0.00    -0.294 OA
ATOM      8  C   UNL     1      33.283 -14.048 -23.147  0.00  0.00    +0.152 C 
BRANCH   8  10
ATOM      9  F   UNL     1      30.803 -10.063 -20.122  0.00  0.00    -0.204 F 
ATOM     10  C   UNL     1      32.622 -12.981 -22.337  0.00  0.00    +0.033 C 
ATOM     11  C   UNL     1      32.315 -11.787 -22.947  0.00  0.00    +0.005 C 
ATOM     12  C   UNL     1      32.342 -13.236 -21.014  0.00  0.00    +0.005 C 
ATOM     13  C   UNL     1      31.694 -10.791 -22.192  0.00  0.00    +0.030 C 
ATOM     14  C   UNL     1      31.722 -12.240 -20.259  0.00  0.00    +0.030 C 
ATOM     15  C   UNL     1      31.399 -11.018 -20.847  0.00  0.00    +0.140 C 
ENDBRANCH   8  10
ENDBRANCH   6   8
ENDBRANCH   3   6
ENDBRANCH   1   3
BRANCH   1  16
ATOM     16  C   UNL     1      35.098 -17.427 -21.568  0.00  0.00    -0.017 C 
BRANCH  16  17
ATOM     17  C   UNL     1      35.876 -18.682 -21.145  0.00  0.00    +0.024 C 
BRANCH  17  18
ATOM     18  C   UNL     1      35.055 -19.673 -20.359  0.00  0.00    -0.022 C 
ATOM     19  C   UNL     1      35.694 -20.584 -19.532  0.00  0.00    -0.004 C 
ATOM     20  C   UNL     1      33.673 -19.657 -20.476  0.00  0.00    -0.004 C 
ATOM     21  C   UNL     1      34.934 -21.500 -18.805  0.00  0.00    +0.004 C 
ATOM     22  C   UNL     1      32.913 -20.572 -19.749  0.00  0.00    +0.004 C 
ATOM     23  C   UNL     1      33.544 -21.495 -18.913  0.00  0.00    +0.053 C 
BRANCH  23  26
ATOM     24  O   UNL     1      33.151 -23.612 -17.961  0.00  0.00    -0.270 OA
ATOM     25  N   UNL     1      31.533 -22.018 -17.642  0.00  0.00    -0.325 N 
ATOM     26  C   UNL     1      32.752 -22.451 -18.157  0.00  0.00    +0.243 C 
ATOM     27  H   UNL     1      30.969 -22.639 -17.125  0.00  0.00    +0.145 HD
ATOM     28  H   UNL     1      31.235 -21.092 -17.794  0.00  0.00    +0.145 HD
ENDBRANCH  23  26
ENDBRANCH  17  18
ENDBRANCH  16  17
ENDBRANCH   1  16
TORSDOF 8
ENDMDL
MODEL 3
REMARK VINA RESULT:     -11.4      3.746      9.106
REMARK  Name = 15991577
REMARK  8 active torsions:
REMARK  status: ('A' for Active; 'I' for Inactive)
REMARK    1  A    between atoms: C_1  and  N_3
REMARK    2  A    between atoms: C_1  and  C_16
REMARK    3  A    between atoms: N_3  and  C_6
REMARK    4  A    between atoms: C_6  and  C_8
REMARK    5  A    between atoms: C_8  and  C_10
REMARK    6  A    between atoms: C_16  and  C_17
REMARK    7  A    between atoms: C_17  and  C_18
REMARK    8  A    between atoms: C_23  and  C_26
REMARK                            x       y       z     vdW  Elec       q    Type
REMARK                         _______ _______ _______ _____ _____    ______ ____
ROOT
ATOM      1  C   UNL     1      34.108 -16.581 -23.250  0.00  0.00    -0.061 C 
ATOM      2  C   UNL     1      33.726 -16.392 -24.719  0.00  0.00    -0.023 C 
ENDROOT
BRANCH   1   3
ATOM      3  N   UNL     1      35.158 -17.596 -23.145  0.00  0.00    +0.390 N 
ATOM      4  H   UNL     1      35.914 -17.236 -22.565  0.00  0.00    -0.084 HD
ATOM      5  H   UNL     1      35.500 -17.812 -24.081  0.00  0.00    -0.084 HD
BRANCH   3   6
ATOM      6  C   UNL     1      34.636 -18.814 -22.545  0.00  0.00    -0.011 C 
BRANCH   6   8
ATOM      7  O   UNL     1      35.913 -18.112 -20.621  0.00  0.00    -0.294 OA
ATOM      8  C   UNL     1      35.084 -18.885 -21.098  0.00  0.00    +0.152 C 
BRANCH   8  10
ATOM      9  F   UNL     1      32.866 -22.816 -17.810  0.00  0.00    -0.204 F 
ATOM     10  C   UNL     1      34.491 -19.938 -20.220  0.00  0.00    +0.033 C 
ATOM     11  C   UNL     1      35.338 -20.752 -19.504  0.00  0.00    +0.005 C 
ATOM     12  C   UNL     1      33.121 -20.050 -20.160  0.00  0.00    +0.005 C 
ATOM     13  C   UNL     1      34.784 -21.734 -18.682  0.00  0.00    +0.030 C 
ATOM     14  C   UNL     1      32.567 -21.032 -19.338  0.00  0.00    +0.030 C 
ATOM     15  C   UNL     1      33.398 -21.874 -18.600  0.00  0.00    +0.140 C 
ENDBRANCH   8  10
ENDBRANCH   6   8
ENDBRANCH   3   6
ENDBRANCH   1   3
BRANCH   1  16
ATOM     16  C   UNL     1      34.571 -15.246 -22.640  0.00  0.00    -0.017 C 
BRANCH  16  17
ATOM     17  C   UNL     1      33.760 -14.772 -21.424  0.00  0.00    +0.024 C 
BRANCH  17  18
ATOM     18  C   UNL     1      33.105 -13.428 -21.613  0.00  0.00    -0.022 C 
ATOM     19  C   UNL     1      33.453 -12.648 -22.706  0.00  0.00    -0.004 C 
ATOM     20  C   UNL     1      32.165 -12.992 -20.692  0.00  0.00    -0.004 C 
ATOM     21  C   UNL     1      32.846 -11.404 -22.881  0.00  0.00    +0.004 C 
ATOM     22  C   UNL     1      31.558 -11.749 -20.867  0.00  0.00    +0.004 C 
ATOM     23  C   UNL     1      31.899 -10.954 -21.962  0.00  0.00    +0.053 C 
BRANCH  23  26
ATOM     24  O   UNL     1      30.571  -9.144 -21.251  0.00  0.00    -0.270 OA
ATOM     25  N   UNL     1      31.486  -8.994 -23.349  0.00  0.00    -0.325 N 
ATOM     26  C   UNL     1      31.268  -9.657 -22.143  0.00  0.00    +0.243 C 
ATOM     27  H   UNL     1      31.074  -8.114 -23.507  0.00  0.00    +0.145 HD
ATOM     28  H   UNL     1      32.050  -9.407 -24.042  0.00  0.00    +0.145 HD
ENDBRANCH  23  26
ENDBRANCH  17  18
ENDBRANCH  16  17
ENDBRANCH   1  16
TORSDOF 8
ENDMDL
MODEL 4
REMARK VINA RESULT:     -11.3      2.930      4.246
REMARK  Name = 15991577
REMARK  8 active torsions:
REMARK  status: ('A' for Active; 'I' for Inactive)
REMARK    1  A    between atoms: C_1  and  N_3
REMARK    2  A    between atoms: C_1  and  C_16
REMARK    3  A    between atoms: N_3  and  C_6
REMARK    4  A    between atoms: C_6  and  C_8
REMARK    5  A    between atoms: C_8  and  C_10
REMARK    6  A    between atoms: C_16  and  C_17
REMARK    7  A    between atoms: C_17  and  C_18
REMARK    8  A    between atoms: C_23  and  C_26
REMARK                            x       y       z     vdW  Elec       q    Type
REMARK                         _______ _______ _______ _____ _____    ______ ____
ROOT
ATOM      1  C   UNL     1      34.963 -19.782 -20.634  0.00  0.00    -0.061 C 
ATOM      2  C   UNL     1      33.441 -19.808 -20.486  0.00  0.00    -0.023 C 
ENDROOT
BRANCH   1   3
ATOM      3  N   UNL     1      35.443 -18.406 -20.507  0.00  0.00    +0.390 N 
ATOM      4  H   UNL     1      36.172 -18.370 -19.795  0.00  0.00    -0.084 HD
ATOM      5  H   UNL     1      34.661 -17.808 -20.243  0.00  0.00    -0.084 HD
BRANCH   3   6
ATOM      6  C   UNL     1      35.988 -17.933 -21.770  0.00  0.00    -0.011 C 
BRANCH   6   8
ATOM      7  O   UNL     1      34.302 -18.000 -23.497  0.00  0.00    -0.294 OA
ATOM      8  C   UNL     1      34.862 -17.359 -22.610  0.00  0.00    +0.152 C 
BRANCH   8  10
ATOM      9  F   UNL     1      33.203 -12.120 -21.618  0.00  0.00    -0.204 F 
ATOM     10  C   UNL     1      34.421 -15.957 -22.344  0.00  0.00    +0.033 C 
ATOM     11  C   UNL     1      34.279 -15.098 -23.410  0.00  0.00    +0.005 C 
ATOM     12  C   UNL     1      34.170 -15.580 -21.045  0.00  0.00    +0.005 C 
ATOM     13  C   UNL     1      33.864 -13.789 -23.162  0.00  0.00    +0.030 C 
ATOM     14  C   UNL     1      33.755 -14.271 -20.797  0.00  0.00    +0.030 C 
ATOM     15  C   UNL     1      33.602 -13.376 -21.856  0.00  0.00    +0.140 C 
ENDBRANCH   8  10
ENDBRANCH   6   8
ENDBRANCH   3   6
ENDBRANCH   1   3
BRANCH   1  16
ATOM     16  C   UNL     1      35.620 -20.694 -19.582  0.00  0.00    -0.017 C 
BRANCH  16  17
ATOM     17  C   UNL     1      34.640 -21.526 -18.742  0.00  0.00    +0.024 C 
BRANCH  17  18
ATOM     18  C   UNL     1      35.155 -21.871 -17.367  0.00  0.00    -0.022 C 
ATOM     19  C   UNL     1      34.318 -22.515 -16.468  0.00  0.00    -0.004 C 
ATOM     20  C   UNL     1      36.457 -21.538 -17.024  0.00  0.00    -0.004 C 
ATOM     21  C   UNL     1      34.795 -22.834 -15.196  0.00  0.00    +0.004 C 
ATOM     22  C   UNL     1      36.934 -21.857 -15.754  0.00  0.00    +0.004 C 
ATOM     23  C   UNL     1      36.103 -22.505 -14.839  0.00  0.00    +0.053 C 
BRANCH  23  26
ATOM     24  O   UNL     1      37.766 -23.225 -13.335  0.00  0.00    -0.270 OA
ATOM     25  N   UNL     1      35.726 -22.684 -12.439  0.00  0.00    -0.325 N 
ATOM     26  C   UNL     1      36.599 -22.836 -13.513  0.00  0.00    +0.243 C 
ATOM     27  H   UNL     1      36.027 -22.899 -11.526  0.00  0.00    +0.145 HD
ATOM     28  H   UNL     1      34.808 -22.363 -12.592  0.00  0.00    +0.145 HD
ENDBRANCH  23  26
ENDBRANCH  17  18
ENDBRANCH  16  17
ENDBRANCH   1  16
TORSDOF 8
ENDMDL
MODEL 5
REMARK VINA RESULT:     -11.1      1.517      2.202
REMARK  Name = 15991577
REMARK  8 active torsions:
REMARK  status: ('A' for Active; 'I' for Inactive)
REMARK    1  A    between atoms: C_1  and  N_3
REMARK    2  A    between atoms: C_1  and  C_16
REMARK    3  A    between atoms: N_3  and  C_6
REMARK    4  A    between atoms: C_6  and  C_8
REMARK    5  A    between atoms: C_8  and  C_10
REMARK    6  A    between atoms: C_16  and  C_17
REMARK    7  A    between atoms: C_17  and  C_18
REMARK    8  A    between atoms: C_23  and  C_26
REMARK                            x       y       z     vdW  Elec       q    Type
REMARK                         _______ _______ _______ _____ _____    ______ ____
ROOT
ATOM      1  C   UNL     1      35.028 -18.538 -21.633  0.00  0.00    -0.061 C 
ATOM      2  C   UNL     1      34.098 -18.422 -22.841  0.00  0.00    -0.023 C 
ENDROOT
BRANCH   1   3
ATOM      3  N   UNL     1      35.166 -17.229 -20.994  0.00  0.00    +0.390 N 
ATOM      4  H   UNL     1      36.155 -17.030 -20.847  0.00  0.00    -0.084 HD
ATOM      5  H   UNL     1      34.671 -17.245 -20.102  0.00  0.00    -0.084 HD
BRANCH   3   6
ATOM      6  C   UNL     1      34.589 -16.187 -21.829  0.00  0.00    -0.011 C 
BRANCH   6   8
ATOM      7  O   UNL     1      33.952 -15.212 -19.715  0.00  0.00    -0.294 OA
ATOM      8  C   UNL     1      33.993 -15.112 -20.940  0.00  0.00    +0.152 C 
BRANCH   8  10
ATOM      9  F   UNL     1      31.913 -10.521 -23.342  0.00  0.00    -0.204 F 
ATOM     10  C   UNL     1      33.435 -13.885 -21.583  0.00  0.00    +0.033 C 
ATOM     11  C   UNL     1      32.546 -13.114 -20.870  0.00  0.00    +0.005 C 
ATOM     12  C   UNL     1      33.833 -13.573 -22.862  0.00  0.00    +0.005 C 
ATOM     13  C   UNL     1      32.027 -11.967 -21.470  0.00  0.00    +0.030 C 
ATOM     14  C   UNL     1      33.313 -12.425 -23.463  0.00  0.00    +0.030 C 
ATOM     15  C   UNL     1      32.410 -11.623 -22.766  0.00  0.00    +0.140 C 
ENDBRANCH   8  10
ENDBRANCH   6   8
ENDBRANCH   3   6
ENDBRANCH   1   3
BRANCH   1  16
ATOM     16  C   UNL     1      34.488 -19.582 -20.639  0.00  0.00    -0.017 C 
BRANCH  16  17
ATOM     17  C   UNL     1      35.522 -20.607 -20.148  0.00  0.00    +0.024 C 
BRANCH  17  18
ATOM     18  C   UNL     1      35.158 -21.263 -18.841  0.00  0.00    -0.022 C 
ATOM     19  C   UNL     1      33.888 -21.795 -18.675  0.00  0.00    -0.004 C 
ATOM     20  C   UNL     1      36.100 -21.325 -17.825  0.00  0.00    -0.004 C 
ATOM     21  C   UNL     1      33.552 -22.402 -17.465  0.00  0.00    +0.004 C 
ATOM     22  C   UNL     1      35.765 -21.932 -16.615  0.00  0.00    +0.004 C 
ATOM     23  C   UNL     1      34.490 -22.471 -16.435  0.00  0.00    +0.053 C 
BRANCH  23  26
ATOM     24  O   UNL     1      34.720 -24.128 -14.777  0.00  0.00    -0.270 OA
ATOM     25  N   UNL     1      33.138 -22.508 -14.409  0.00  0.00    -0.325 N 
ATOM     26  C   UNL     1      34.139 -23.102 -15.173  0.00  0.00    +0.243 C 
ATOM     27  H   UNL     1      32.873 -22.908 -13.549  0.00  0.00    +0.145 HD
ATOM     28  H   UNL     1      32.695 -21.689 -14.729  0.00  0.00    +0.145 HD
ENDBRANCH  23  26
ENDBRANCH  17  18
ENDBRANCH  16  17
ENDBRANCH   1  16
TORSDOF 8
ENDMDL
MODEL 6
REMARK VINA RESULT:     -11.1      1.315      1.942
REMARK  Name = 15991577
REMARK  8 active torsions:
REMARK  status: ('A' for Active; 'I' for Inactive)
REMARK    1  A    between atoms: C_1  and  N_3
REMARK    2  A    between atoms: C_1  and  C_16
REMARK    3  A    between atoms: N_3  and  C_6
REMARK    4  A    between atoms: C_6  and  C_8
REMARK    5  A    between atoms: C_8  and  C_10
REMARK    6  A    between atoms: C_16  and  C_17
REMARK    7  A    between atoms: C_17  and  C_18
REMARK    8  A    between atoms: C_23  and  C_26
REMARK                            x       y       z     vdW  Elec       q    Type
REMARK                         _______ _______ _______ _____ _____    ______ ____
ROOT
ATOM      1  C   UNL     1      34.508 -15.778 -22.900  0.00  0.00    -0.061 C 
ATOM      2  C   UNL     1      34.188 -16.831 -23.962  0.00  0.00    -0.023 C 
ENDROOT
BRANCH   1   3
ATOM      3  N   UNL     1      33.416 -14.806 -22.831  0.00  0.00    +0.390 N 
ATOM      4  H   UNL     1      32.626 -15.225 -22.341  0.00  0.00    -0.084 HD
ATOM      5  H   UNL     1      33.148 -14.545 -23.780  0.00  0.00    -0.084 HD
BRANCH   3   6
ATOM      6  C   UNL     1      33.838 -13.610 -22.119  0.00  0.00    -0.011 C 
BRANCH   6   8
ATOM      7  O   UNL     1      32.213 -13.746 -20.340  0.00  0.00    -0.294 OA
ATOM      8  C   UNL     1      32.684 -13.103 -21.275  0.00  0.00    +0.152 C 
BRANCH   8  10
ATOM      9  F   UNL     1      30.496  -8.110 -22.485  0.00  0.00    -0.204 F 
ATOM     10  C   UNL     1      32.100 -11.766 -21.598  0.00  0.00    +0.033 C 
ATOM     11  C   UNL     1      32.452 -11.164 -22.784  0.00  0.00    +0.005 C 
ATOM     12  C   UNL     1      31.232 -11.192 -20.698  0.00  0.00    +0.005 C 
ATOM     13  C   UNL     1      31.904  -9.916 -23.086  0.00  0.00    +0.030 C 
ATOM     14  C   UNL     1      30.685  -9.944 -21.001  0.00  0.00    +0.030 C 
ATOM     15  C   UNL     1      31.022  -9.307 -22.194  0.00  0.00    +0.140 C 
ENDBRANCH   8  10
ENDBRANCH   6   8
ENDBRANCH   3   6
ENDBRANCH   1   3
BRANCH   1  16
ATOM     16  C   UNL     1      34.736 -16.447 -21.532  0.00  0.00    -0.017 C 
BRANCH  16  17
ATOM     17  C   UNL     1      35.581 -17.730 -21.571  0.00  0.00    +0.024 C 
BRANCH  17  18
ATOM     18  C   UNL     1      34.942 -18.903 -20.871  0.00  0.00    -0.022 C 
ATOM     19  C   UNL     1      35.739 -19.793 -20.167  0.00  0.00    -0.004 C 
ATOM     20  C   UNL     1      33.568 -19.072 -20.944  0.00  0.00    -0.004 C 
ATOM     21  C   UNL     1      35.147 -20.878 -19.520  0.00  0.00    +0.004 C 
ATOM     22  C   UNL     1      32.976 -20.156 -20.297  0.00  0.00    +0.004 C 
ATOM     23  C   UNL     1      33.766 -21.060 -19.584  0.00  0.00    +0.053 C 
BRANCH  23  26
ATOM     24  O   UNL     1      33.575 -23.349 -19.068  0.00  0.00    -0.270 OA
ATOM     25  N   UNL     1      32.072 -21.935 -18.068  0.00  0.00    -0.325 N 
ATOM     26  C   UNL     1      33.150 -22.192 -18.912  0.00  0.00    +0.243 C 
ATOM     27  H   UNL     1      31.629 -22.677 -17.596  0.00  0.00    +0.145 HD
ATOM     28  H   UNL     1      31.753 -21.012 -17.944  0.00  0.00    +0.145 HD
ENDBRANCH  23  26
ENDBRANCH  17  18
ENDBRANCH  16  17
ENDBRANCH   1  16
TORSDOF 8
ENDMDL
MODEL 7
REMARK VINA RESULT:     -11.0      2.005      2.998
REMARK  Name = 15991577
REMARK  8 active torsions:
REMARK  status: ('A' for Active; 'I' for Inactive)
REMARK    1  A    between atoms: C_1  and  N_3
REMARK    2  A    between atoms: C_1  and  C_16
REMARK    3  A    between atoms: N_3  and  C_6
REMARK    4  A    between atoms: C_6  and  C_8
REMARK    5  A    between atoms: C_8  and  C_10
REMARK    6  A    between atoms: C_16  and  C_17
REMARK    7  A    between atoms: C_17  and  C_18
REMARK    8  A    between atoms: C_23  and  C_26
REMARK                            x       y       z     vdW  Elec       q    Type
REMARK                         _______ _______ _______ _____ _____    ______ ____
ROOT
ATOM      1  C   UNL     1      34.909 -18.511 -20.997  0.00  0.00    -0.061 C 
ATOM      2  C   UNL     1      36.418 -18.468 -21.243  0.00  0.00    -0.023 C 
ENDROOT
BRANCH   1   3
ATOM      3  N   UNL     1      34.204 -18.117 -22.218  0.00  0.00    +0.390 N 
ATOM      4  H   UNL     1      33.284 -17.755 -21.971  0.00  0.00    -0.084 HD
ATOM      5  H   UNL     1      34.113 -18.933 -22.823  0.00  0.00    -0.084 HD
BRANCH   3   6
ATOM      6  C   UNL     1      34.946 -17.088 -22.930  0.00  0.00    -0.011 C 
BRANCH   6   8
ATOM      7  O   UNL     1      33.582 -17.090 -24.921  0.00  0.00    -0.294 OA
ATOM      8  C   UNL     1      34.042 -16.458 -23.973  0.00  0.00    +0.152 C 
BRANCH   8  10
ATOM      9  F   UNL     1      32.756 -11.048 -23.460  0.00  0.00    -0.204 F 
ATOM     10  C   UNL     1      33.700 -15.010 -23.836  0.00  0.00    +0.033 C 
ATOM     11  C   UNL     1      33.068 -14.382 -24.884  0.00  0.00    +0.005 C 
ATOM     12  C   UNL     1      34.028 -14.363 -22.668  0.00  0.00    +0.005 C 
ATOM     13  C   UNL     1      32.746 -13.030 -24.756  0.00  0.00    +0.030 C 
ATOM     14  C   UNL     1      33.706 -13.011 -22.539  0.00  0.00    +0.030 C 
ATOM     15  C   UNL     1      33.066 -12.345 -23.584  0.00  0.00    +0.140 C 
ENDBRANCH   8  10
ENDBRANCH   6   8
ENDBRANCH   3   6
ENDBRANCH   1   3
BRANCH   1  16
ATOM     16  C   UNL     1      34.479 -19.918 -20.544  0.00  0.00    -0.017 C 
BRANCH  16  17
ATOM     17  C   UNL     1      35.590 -20.758 -19.895  0.00  0.00    +0.024 C 
BRANCH  17  18
ATOM     18  C   UNL     1      35.195 -21.381 -18.580  0.00  0.00    -0.022 C 
ATOM     19  C   UNL     1      36.126 -21.456 -17.555  0.00  0.00    -0.004 C 
ATOM     20  C   UNL     1      33.907 -21.869 -18.417  0.00  0.00    -0.004 C 
ATOM     21  C   UNL     1      35.760 -22.031 -16.338  0.00  0.00    +0.004 C 
ATOM     22  C   UNL     1      33.541 -22.445 -17.201  0.00  0.00    +0.004 C 
ATOM     23  C   UNL     1      34.468 -22.526 -16.160  0.00  0.00    +0.053 C 
BRANCH  23  26
ATOM     24  O   UNL     1      34.788 -24.003 -14.355  0.00  0.00    -0.270 OA
ATOM     25  N   UNL     1      32.917 -22.679 -14.288  0.00  0.00    -0.325 N 
ATOM     26  C   UNL     1      34.088 -23.128 -14.893  0.00  0.00    +0.243 C 
ATOM     27  H   UNL     1      32.627 -23.064 -13.430  0.00  0.00    +0.145 HD
ATOM     28  H   UNL     1      32.379 -21.976 -14.720  0.00  0.00    +0.145 HD
ENDBRANCH  23  26
ENDBRANCH  17  18
ENDBRANCH  16  17
ENDBRANCH   1  16
TORSDOF 8
ENDMDL
MODEL 8
REMARK VINA RESULT:     -11.0      1.539      2.398
REMARK  Name = 15991577
REMARK  8 active torsions:
REMARK  status: ('A' for Active; 'I' for Inactive)
REMARK    1  A    between atoms: C_1  and  N_3
REMARK    2  A    between atoms: C_1  and  C_16
REMARK    3  A    between atoms: N_3  and  C_6
REMARK    4  A    between atoms: C_6  and  C_8
REMARK    5  A    between atoms: C_8  and  C_10
REMARK    6  A    between atoms: C_16  and  C_17
REMARK    7  A    between atoms: C_17  and  C_18
REMARK    8  A    between atoms: C_23  and  C_26
REMARK                            x       y       z     vdW  Elec       q    Type
REMARK                         _______ _______ _______ _____ _____    ______ ____
ROOT
ATOM      1  C   UNL     1      35.443 -17.844 -21.795  0.00  0.00    -0.061 C 
ATOM      2  C   UNL     1      36.890 -18.230 -21.487  0.00  0.00    -0.023 C 
ENDROOT
BRANCH   1   3
ATOM      3  N   UNL     1      35.423 -16.799 -22.820  0.00  0.00    +0.390 N 
ATOM      4  H   UNL     1      36.218 -16.929 -23.445  0.00  0.00    -0.084 HD
ATOM      5  H   UNL     1      35.476 -15.889 -22.363  0.00  0.00    -0.084 HD
BRANCH   3   6
ATOM      6  C   UNL     1      34.193 -16.862 -23.594  0.00  0.00    -0.011 C 
BRANCH   6   8
ATOM      7  O   UNL     1      33.960 -15.161 -25.291  0.00  0.00    -0.294 OA
ATOM      8  C   UNL     1      33.859 -15.474 -24.106  0.00  0.00    +0.152 C 
BRANCH   8  10
ATOM      9  F   UNL     1      32.087 -11.649 -20.444  0.00  0.00    -0.204 F 
ATOM     10  C   UNL     1      33.387 -14.450 -23.127  0.00  0.00    +0.033 C 
ATOM     11  C   UNL     1      32.626 -13.400 -23.588  0.00  0.00    +0.005 C 
ATOM     12  C   UNL     1      33.728 -14.597 -21.803  0.00  0.00    +0.005 C 
ATOM     13  C   UNL     1      32.183 -12.445 -22.673  0.00  0.00    +0.030 C 
ATOM     14  C   UNL     1      33.285 -13.642 -20.888  0.00  0.00    +0.030 C 
ATOM     15  C   UNL     1      32.513 -12.565 -21.323  0.00  0.00    +0.140 C 
ENDBRANCH   8  10
ENDBRANCH   6   8
ENDBRANCH   3   6
ENDBRANCH   1   3
BRANCH   1  16
ATOM     16  C   UNL     1      34.644 -19.078 -22.252  0.00  0.00    -0.017 C 
BRANCH  16  17
ATOM     17  C   UNL     1      33.322 -19.308 -21.505  0.00  0.00    +0.024 C 
BRANCH  17  18
ATOM     18  C   UNL     1      33.451 -20.198 -20.295  0.00  0.00    -0.022 C 
ATOM     19  C   UNL     1      32.311 -20.578 -19.603  0.00  0.00    -0.004 C 
ATOM     20  C   UNL     1      34.709 -20.624 -19.894  0.00  0.00    -0.004 C 
ATOM     21  C   UNL     1      32.432 -21.402 -18.484  0.00  0.00    +0.004 C 
ATOM     22  C   UNL     1      34.830 -21.448 -18.776  0.00  0.00    +0.004 C 
ATOM     23  C   UNL     1      33.691 -21.837 -18.070  0.00  0.00    +0.053 C 
BRANCH  23  26
ATOM     24  O   UNL     1      34.925 -22.952 -16.403  0.00  0.00    -0.270 OA
ATOM     25  N   UNL     1      32.647 -23.207 -16.347  0.00  0.00    -0.325 N 
ATOM     26  C   UNL     1      33.816 -22.694 -16.902  0.00  0.00    +0.243 C 
ATOM     27  H   UNL     1      32.693 -23.791 -15.556  0.00  0.00    +0.145 HD
ATOM     28  H   UNL     1      31.774 -22.984 -16.745  0.00  0.00    +0.145 HD
ENDBRANCH  23  26
ENDBRANCH  17  18
ENDBRANCH  16  17
ENDBRANCH   1  16
TORSDOF 8
ENDMDL
MODEL 9
REMARK VINA RESULT:     -10.9      4.593      9.822
REMARK  Name = 15991577
REMARK  8 active torsions:
REMARK  status: ('A' for Active; 'I' for Inactive)
REMARK    1  A    between atoms: C_1  and  N_3
REMARK    2  A    between atoms: C_1  and  C_16
REMARK    3  A    between atoms: N_3  and  C_6
REMARK    4  A    between atoms: C_6  and  C_8
REMARK    5  A    between atoms: C_8  and  C_10
REMARK    6  A    between atoms: C_16  and  C_17
REMARK    7  A    between atoms: C_17  and  C_18
REMARK    8  A    between atoms: C_23  and  C_26
REMARK                            x       y       z     vdW  Elec       q    Type
REMARK                         _______ _______ _______ _____ _____    ______ ____
ROOT
ATOM      1  C   UNL     1      34.177 -19.629 -20.264  0.00  0.00    -0.061 C 
ATOM      2  C   UNL     1      33.099 -20.611 -19.801  0.00  0.00    -0.023 C 
ENDROOT
BRANCH   1   3
ATOM      3  N   UNL     1      35.493 -20.118 -19.850  0.00  0.00    +0.390 N 
ATOM      4  H   UNL     1      36.001 -19.362 -19.391  0.00  0.00    -0.084 HD
ATOM      5  H   UNL     1      36.000 -20.437 -20.675  0.00  0.00    -0.084 HD
BRANCH   3   6
ATOM      6  C   UNL     1      35.359 -21.231 -18.923  0.00  0.00    -0.011 C 
BRANCH   6   8
ATOM      7  O   UNL     1      36.865 -19.930 -17.557  0.00  0.00    -0.294 OA
ATOM      8  C   UNL     1      36.173 -20.939 -17.677  0.00  0.00    +0.152 C 
BRANCH   8  10
ATOM      9  F   UNL     1      35.999 -24.601 -13.464  0.00  0.00    -0.204 F 
ATOM     10  C   UNL     1      36.126 -21.920 -16.551  0.00  0.00    +0.033 C 
ATOM     11  C   UNL     1      37.301 -22.244 -15.912  0.00  0.00    +0.005 C 
ATOM     12  C   UNL     1      34.911 -22.458 -16.196  0.00  0.00    +0.005 C 
ATOM     13  C   UNL     1      37.257 -23.159 -14.859  0.00  0.00    +0.030 C 
ATOM     14  C   UNL     1      34.868 -23.373 -15.143  0.00  0.00    +0.030 C 
ATOM     15  C   UNL     1      36.041 -23.723 -14.475  0.00  0.00    +0.140 C 
ENDBRANCH   8  10
ENDBRANCH   6   8
ENDBRANCH   3   6
ENDBRANCH   1   3
BRANCH   1  16
ATOM     16  C   UNL     1      34.114 -19.445 -21.792  0.00  0.00    -0.017 C 
BRANCH  16  17
ATOM     17  C   UNL     1      35.175 -18.499 -22.375  0.00  0.00    +0.024 C 
BRANCH  17  18
ATOM     18  C   UNL     1      34.645 -17.134 -22.731  0.00  0.00    -0.022 C 
ATOM     19  C   UNL     1      34.182 -16.897 -24.017  0.00  0.00    -0.004 C 
ATOM     20  C   UNL     1      34.628 -16.137 -21.768  0.00  0.00    -0.004 C 
ATOM     21  C   UNL     1      33.691 -15.633 -24.346  0.00  0.00    +0.004 C 
ATOM     22  C   UNL     1      34.137 -14.874 -22.096  0.00  0.00    +0.004 C 
ATOM     23  C   UNL     1      33.668 -14.621 -23.386  0.00  0.00    +0.053 C 
BRANCH  23  26
ATOM     24  O   UNL     1      33.324 -12.328 -22.978  0.00  0.00    -0.270 OA
ATOM     25  N   UNL     1      32.492 -13.165 -24.945  0.00  0.00    -0.325 N 
ATOM     26  C   UNL     1      33.159 -13.304 -23.730  0.00  0.00    +0.243 C 
ATOM     27  H   UNL     1      32.132 -12.287 -25.210  0.00  0.00    +0.145 HD
ATOM     28  H   UNL     1      32.380 -13.943 -25.536  0.00  0.00    +0.145 HD
ENDBRANCH  23  26
ENDBRANCH  17  18
ENDBRANCH  16  17
ENDBRANCH   1  16
TORSDOF 8
ENDMDL
