MODEL 1
REMARK VINA RESULT:     -10.6      0.000      0.000
REMARK  Name = 439530
REMARK  10 active torsions:
REMARK  status: ('A' for Active; 'I' for Inactive)
REMARK    1  A    between atoms: C_2  and  N_19
REMARK    2  A    between atoms: C_3  and  O_36
REMARK    3  A    between atoms: C_4  and  C_38
REMARK    4  A    between atoms: C_5  and  N_6
REMARK    5  A    between atoms: C_20  and  C_22
REMARK    6  A    between atoms: C_22  and  N_23
REMARK    7  A    between atoms: C_22  and  C_27
REMARK    8  A    between atoms: C_27  and  C_28
REMARK    9  A    between atoms: C_33  and  O_34
REMARK   10  A    between atoms: C_38  and  O_39
REMARK                            x       y       z     vdW  Elec       q    Type
REMARK                         _______ _______ _______ _____ _____    ______ ____
ROOT
ATOM      1  O   UNL     1      30.341  -9.477 -22.493  0.00  0.00    -0.334 OA
ATOM      2  C   UNL     1      32.278 -10.751 -21.914  0.00  0.00    +0.132 C 
ATOM      3  C   UNL     1      32.707  -9.485 -22.636  0.00  0.00    +0.178 C 
ATOM      4  C   UNL     1      30.833 -10.433 -21.530  0.00  0.00    +0.167 C 
ATOM      5  C   UNL     1      31.426  -9.080 -23.352  0.00  0.00    +0.224 C 
ENDROOT
BRANCH   5   6
ATOM      6  N   UNL     1      31.327  -7.651 -23.637  0.00  0.00    -0.247 N 
ATOM      7  N   UNL     1      31.094  -5.772 -24.816  0.00  0.00    -0.242 NA
ATOM      8  N   UNL     1      31.571  -6.718 -21.408  0.00  0.00    -0.228 NA
ATOM      9  N   UNL     1      31.143  -3.043 -23.475  0.00  0.00    -0.289 N 
ATOM     10  N   UNL     1      31.458  -4.280 -21.450  0.00  0.00    -0.228 NA
ATOM     11  C   UNL     1      31.398  -6.628 -22.735  0.00  0.00    +0.152 C 
ATOM     12  C   UNL     1      31.146  -7.087 -24.873  0.00  0.00    +0.223 C 
ATOM     13  C   UNL     1      31.251  -5.472 -23.485  0.00  0.00    +0.140 C 
ATOM     14  C   UNL     1      31.285  -4.265 -22.794  0.00  0.00    +0.149 C 
ATOM     15  C   UNL     1      31.589  -5.488 -20.851  0.00  0.00    +0.253 C 
ATOM     16  C   UNL     1      30.956  -3.018 -24.914  0.00  0.00    +0.114 C 
ATOM     17  C   UNL     1      31.166  -1.786 -22.749  0.00  0.00    +0.114 C 
ENDBRANCH   5   6
BRANCH   2  19
ATOM     18  O   UNL     1      33.839 -13.107 -21.471  0.00  0.00    -0.277 OA
ATOM     19  N   UNL     1      32.328 -11.918 -22.766  0.00  0.00    -0.303 N 
ATOM     20  C   UNL     1      33.119 -13.015 -22.463  0.00  0.00    +0.202 C 
ATOM     21  H   UNL     1      31.784 -11.936 -23.586  0.00  0.00    +0.149 HD
BRANCH  20  22
ATOM     22  C   UNL     1      32.985 -14.133 -23.493  0.00  0.00    +0.017 C 
BRANCH  22  23
ATOM     23  N   UNL     1      32.571 -13.503 -24.747  0.00  0.00    +0.388 N 
ATOM     24  H   UNL     1      32.610 -12.488 -24.647  0.00  0.00    -0.089 HD
ATOM     25  H   UNL     1      31.616 -13.785 -24.970  0.00  0.00    -0.089 HD
ATOM     26  H   UNL     1      33.196 -13.795 -25.498  0.00  0.00    -0.089 HD
ENDBRANCH  22  23
BRANCH  22  27
ATOM     27  C   UNL     1      34.327 -14.854 -23.690  0.00  0.00    +0.013 C 
BRANCH  27  28
ATOM     28  C   UNL     1      34.375 -16.198 -23.003  0.00  0.00    -0.024 C 
ATOM     29  C   UNL     1      34.822 -16.294 -21.684  0.00  0.00    -0.001 C 
ATOM     30  C   UNL     1      33.972 -17.345 -23.685  0.00  0.00    -0.001 C 
ATOM     31  C   UNL     1      34.867 -17.535 -21.051  0.00  0.00    +0.037 C 
ATOM     32  C   UNL     1      34.016 -18.587 -23.052  0.00  0.00    +0.037 C 
ATOM     33  C   UNL     1      34.463 -18.682 -21.734  0.00  0.00    +0.139 C 
BRANCH  33  34
ATOM     34  O   UNL     1      34.506 -19.893 -21.115  0.00  0.00    -0.471 OA
ATOM     35  C   UNL     1      33.457 -20.189 -20.196  0.00  0.00    +0.252 C 
ENDBRANCH  33  34
ENDBRANCH  27  28
ENDBRANCH  22  27
ENDBRANCH  20  22
ENDBRANCH   2  19
BRANCH   3  36
ATOM     36  O   UNL     1      33.787  -9.698 -23.520  0.00  0.00    -0.379 OA
ATOM     37  H   UNL     1      34.432 -10.294 -23.106  0.00  0.00    +0.211 HD
ENDBRANCH   3  36
BRANCH   4  38
ATOM     38  C   UNL     1      30.716  -9.818 -20.140  0.00  0.00    +0.168 C 
BRANCH  38  39
ATOM     39  O   UNL     1      31.604 -10.496 -19.270  0.00  0.00    -0.379 OA
ATOM     40  H   UNL     1      31.098 -11.073 -18.677  0.00  0.00    +0.211 HD
ENDBRANCH  38  39
ENDBRANCH   4  38
TORSDOF 10
ENDMDL
MODEL 2
REMARK VINA RESULT:     -10.5      4.542     12.300
REMARK  Name = 439530
REMARK  10 active torsions:
REMARK  status: ('A' for Active; 'I' for Inactive)
REMARK    1  A    between atoms: C_2  and  N_19
REMARK    2  A    between atoms: C_3  and  O_36
REMARK    3  A    between atoms: C_4  and  C_38
REMARK    4  A    between atoms: C_5  and  N_6
REMARK    5  A    between atoms: C_20  and  C_22
REMARK    6  A    between atoms: C_22  and  N_23
REMARK    7  A    between atoms: C_22  and  C_27
REMARK    8  A    between atoms: C_27  and  C_28
REMARK    9  A    between atoms: C_33  and  O_34
REMARK   10  A    between atoms: C_38  and  O_39
REMARK                            x       y       z     vdW  Elec       q    Type
REMARK                         _______ _______ _______ _____ _____    ______ ____
ROOT
ATOM      1  O   UNL     1      33.308 -19.319 -22.537  0.00  0.00    -0.334 OA
ATOM      2  C   UNL     1      35.319 -18.056 -22.807  0.00  0.00    +0.132 C 
ATOM      3  C   UNL     1      35.204 -18.516 -21.363  0.00  0.00    +0.178 C 
ATOM      4  C   UNL     1      34.304 -18.953 -23.516  0.00  0.00    +0.167 C 
ATOM      5  C   UNL     1      33.719 -18.827 -21.248  0.00  0.00    +0.224 C 
ENDROOT
BRANCH   5   6
ATOM      6  N   UNL     1      33.393 -19.814 -20.221  0.00  0.00    -0.247 N 
ATOM      7  N   UNL     1      32.160 -21.161 -18.942  0.00  0.00    -0.242 NA
ATOM      8  N   UNL     1      35.602 -20.306 -19.338  0.00  0.00    -0.228 NA
ATOM      9  N   UNL     1      33.428 -22.929 -16.817  0.00  0.00    -0.289 N 
ATOM     10  N   UNL     1      35.492 -21.961 -17.548  0.00  0.00    -0.228 NA
ATOM     11  C   UNL     1      34.269 -20.450 -19.388  0.00  0.00    +0.152 C 
ATOM     12  C   UNL     1      32.139 -20.273 -19.914  0.00  0.00    +0.223 C 
ATOM     13  C   UNL     1      33.485 -21.281 -18.604  0.00  0.00    +0.140 C 
ATOM     14  C   UNL     1      34.145 -22.057 -17.655  0.00  0.00    +0.149 C 
ATOM     15  C   UNL     1      36.126 -21.104 -18.383  0.00  0.00    +0.253 C 
ATOM     16  C   UNL     1      31.985 -23.038 -16.927  0.00  0.00    +0.114 C 
ATOM     17  C   UNL     1      34.120 -23.747 -15.837  0.00  0.00    +0.114 C 
ENDBRANCH   5   6
BRANCH   2  19
ATOM     18  O   UNL     1      33.774 -16.945 -24.943  0.00  0.00    -0.277 OA
ATOM     19  N   UNL     1      34.965 -16.664 -22.974  0.00  0.00    -0.303 N 
ATOM     20  C   UNL     1      34.209 -16.222 -24.048  0.00  0.00    +0.202 C 
ATOM     21  H   UNL     1      35.270 -16.010 -22.306  0.00  0.00    +0.149 HD
BRANCH  20  22
ATOM     22  C   UNL     1      33.942 -14.721 -23.996  0.00  0.00    +0.017 C 
BRANCH  22  23
ATOM     23  N   UNL     1      32.636 -14.503 -24.618  0.00  0.00    +0.388 N 
ATOM     24  H   UNL     1      32.501 -13.506 -24.784  0.00  0.00    -0.089 HD
ATOM     25  H   UNL     1      31.902 -14.847 -23.998  0.00  0.00    -0.089 HD
ATOM     26  H   UNL     1      32.594 -15.004 -25.506  0.00  0.00    -0.089 HD
ENDBRANCH  22  23
BRANCH  22  27
ATOM     27  C   UNL     1      33.918 -14.224 -22.543  0.00  0.00    +0.013 C 
BRANCH  27  28
ATOM     28  C   UNL     1      33.095 -12.971 -22.366  0.00  0.00    -0.024 C 
ATOM     29  C   UNL     1      32.168 -12.883 -21.327  0.00  0.00    -0.001 C 
ATOM     30  C   UNL     1      33.261 -11.898 -23.242  0.00  0.00    -0.001 C 
ATOM     31  C   UNL     1      31.408 -11.725 -21.164  0.00  0.00    +0.037 C 
ATOM     32  C   UNL     1      32.502 -10.740 -23.080  0.00  0.00    +0.037 C 
ATOM     33  C   UNL     1      31.575 -10.653 -22.040  0.00  0.00    +0.139 C 
BRANCH  33  34
ATOM     34  O   UNL     1      30.834  -9.523 -21.881  0.00  0.00    -0.471 OA
ATOM     35  C   UNL     1      31.522  -8.353 -21.443  0.00  0.00    +0.252 C 
ENDBRANCH  33  34
ENDBRANCH  27  28
ENDBRANCH  22  27
ENDBRANCH  20  22
ENDBRANCH   2  19
BRANCH   3  36
ATOM     36  O   UNL     1      35.635 -17.537 -20.441  0.00  0.00    -0.379 OA
ATOM     37  H   UNL     1      35.156 -16.708 -20.602  0.00  0.00    +0.211 HD
ENDBRANCH   3  36
BRANCH   4  38
ATOM     38  C   UNL     1      34.931 -20.230 -24.063  0.00  0.00    +0.168 C 
BRANCH  38  39
ATOM     39  O   UNL     1      34.241 -20.603 -25.242  0.00  0.00    -0.379 OA
ATOM     40  H   UNL     1      34.882 -20.810 -25.940  0.00  0.00    +0.211 HD
ENDBRANCH  38  39
ENDBRANCH   4  38
TORSDOF 10
ENDMDL
MODEL 3
REMARK VINA RESULT:     -10.4      2.263      3.979
REMARK  Name = 439530
REMARK  10 active torsions:
REMARK  status: ('A' for Active; 'I' for Inactive)
REMARK    1  A    between atoms: C_2  and  N_19
REMARK    2  A    between atoms: C_3  and  O_36
REMARK    3  A    between atoms: C_4  and  C_38
REMARK    4  A    between atoms: C_5  and  N_6
REMARK    5  A    between atoms: C_20  and  C_22
REMARK    6  A    between atoms: C_22  and  N_23
REMARK    7  A    between atoms: C_22  and  C_27
REMARK    8  A    between atoms: C_27  and  C_28
REMARK    9  A    between atoms: C_33  and  O_34
REMARK   10  A    between atoms: C_38  and  O_39
REMARK                            x       y       z     vdW  Elec       q    Type
REMARK                         _______ _______ _______ _____ _____    ______ ____
ROOT
ATOM      1  O   UNL     1      33.661 -11.772 -24.132  0.00  0.00    -0.334 OA
ATOM      2  C   UNL     1      32.694 -13.852 -23.462  0.00  0.00    +0.132 C 
ATOM      3  C   UNL     1      32.025 -12.719 -22.703  0.00  0.00    +0.178 C 
ATOM      4  C   UNL     1      33.394 -13.111 -24.601  0.00  0.00    +0.167 C 
ATOM      5  C   UNL     1      33.046 -11.599 -22.842  0.00  0.00    +0.224 C 
ENDROOT
BRANCH   5   6
ATOM      6  N   UNL     1      32.477 -10.256 -22.747  0.00  0.00    -0.247 N 
ATOM      7  N   UNL     1      30.984  -8.649 -22.347  0.00  0.00    -0.242 NA
ATOM      8  N   UNL     1      34.346  -8.908 -23.513  0.00  0.00    -0.228 NA
ATOM      9  N   UNL     1      31.648  -5.718 -22.808  0.00  0.00    -0.289 N 
ATOM     10  N   UNL     1      33.789  -6.532 -23.502  0.00  0.00    -0.228 NA
ATOM     11  C   UNL     1      33.096  -9.080 -23.058  0.00  0.00    +0.152 C 
ATOM     12  C   UNL     1      31.210  -9.946 -22.326  0.00  0.00    +0.223 C 
ATOM     13  C   UNL     1      32.154  -8.096 -22.803  0.00  0.00    +0.140 C 
ATOM     14  C   UNL     1      32.539  -6.779 -23.041  0.00  0.00    +0.149 C 
ATOM     15  C   UNL     1      34.602  -7.596 -23.706  0.00  0.00    +0.253 C 
ATOM     16  C   UNL     1      30.308  -5.974 -22.313  0.00  0.00    +0.114 C 
ATOM     17  C   UNL     1      32.057  -4.345 -23.045  0.00  0.00    +0.114 C 
ENDBRANCH   5   6
BRANCH   2  19
ATOM     18  O   UNL     1      33.708 -16.480 -23.963  0.00  0.00    -0.277 OA
ATOM     19  N   UNL     1      33.659 -14.565 -22.656  0.00  0.00    -0.303 N 
ATOM     20  C   UNL     1      34.090 -15.841 -22.984  0.00  0.00    +0.202 C 
ATOM     21  H   UNL     1      34.021 -14.133 -21.850  0.00  0.00    +0.149 HD
BRANCH  20  22
ATOM     22  C   UNL     1      35.127 -16.377 -22.002  0.00  0.00    +0.017 C 
BRANCH  22  23
ATOM     23  N   UNL     1      34.490 -16.394 -20.684  0.00  0.00    +0.388 N 
ATOM     24  H   UNL     1      34.541 -15.463 -20.270  0.00  0.00    -0.089 HD
ATOM     25  H   UNL     1      34.974 -17.061 -20.082  0.00  0.00    -0.089 HD
ATOM     26  H   UNL     1      33.513 -16.670 -20.782  0.00  0.00    -0.089 HD
ENDBRANCH  22  23
BRANCH  22  27
ATOM     27  C   UNL     1      35.562 -17.797 -22.391  0.00  0.00    +0.013 C 
BRANCH  27  28
ATOM     28  C   UNL     1      35.174 -18.831 -21.362  0.00  0.00    -0.024 C 
ATOM     29  C   UNL     1      33.844 -19.233 -21.241  0.00  0.00    -0.001 C 
ATOM     30  C   UNL     1      36.147 -19.388 -20.531  0.00  0.00    -0.001 C 
ATOM     31  C   UNL     1      33.486 -20.188 -20.290  0.00  0.00    +0.037 C 
ATOM     32  C   UNL     1      35.790 -20.343 -19.580  0.00  0.00    +0.037 C 
ATOM     33  C   UNL     1      34.459 -20.744 -19.460  0.00  0.00    +0.139 C 
BRANCH  33  34
ATOM     34  O   UNL     1      34.110 -21.677 -18.532  0.00  0.00    -0.471 OA
ATOM     35  C   UNL     1      32.717 -21.898 -18.328  0.00  0.00    +0.252 C 
ENDBRANCH  33  34
ENDBRANCH  27  28
ENDBRANCH  22  27
ENDBRANCH  20  22
ENDBRANCH   2  19
BRANCH   3  36
ATOM     36  O   UNL     1      31.751 -13.049 -21.357  0.00  0.00    -0.379 OA
ATOM     37  H   UNL     1      32.368 -13.737 -21.061  0.00  0.00    +0.211 HD
ENDBRANCH   3  36
BRANCH   4  38
ATOM     38  C   UNL     1      32.536 -13.018 -25.857  0.00  0.00    +0.168 C 
BRANCH  38  39
ATOM     39  O   UNL     1      33.388 -13.008 -26.988  0.00  0.00    -0.379 OA
ATOM     40  H   UNL     1      33.026 -13.594 -27.671  0.00  0.00    +0.211 HD
ENDBRANCH  38  39
ENDBRANCH   4  38
TORSDOF 10
ENDMDL
MODEL 4
REMARK VINA RESULT:      -9.7      1.146      1.862
REMARK  Name = 439530
REMARK  10 active torsions:
REMARK  status: ('A' for Active; 'I' for Inactive)
REMARK    1  A    between atoms: C_2  and  N_19
REMARK    2  A    between atoms: C_3  and  O_36
REMARK    3  A    between atoms: C_4  and  C_38
REMARK    4  A    between atoms: C_5  and  N_6
REMARK    5  A    between atoms: C_20  and  C_22
REMARK    6  A    between atoms: C_22  and  N_23
REMARK    7  A    between atoms: C_22  and  C_27
REMARK    8  A    between atoms: C_27  and  C_28
REMARK    9  A    between atoms: C_33  and  O_34
REMARK   10  A    between atoms: C_38  and  O_39
REMARK                            x       y       z     vdW  Elec       q    Type
REMARK                         _______ _______ _______ _____ _____    ______ ____
ROOT
ATOM      1  O   UNL     1      30.278  -9.191 -22.435  0.00  0.00    -0.334 OA
ATOM      2  C   UNL     1      32.201 -10.514 -21.924  0.00  0.00    +0.132 C 
ATOM      3  C   UNL     1      32.646  -9.202 -22.547  0.00  0.00    +0.178 C 
ATOM      4  C   UNL     1      30.753 -10.217 -21.536  0.00  0.00    +0.167 C 
ATOM      5  C   UNL     1      31.377  -8.740 -23.249  0.00  0.00    +0.224 C 
ENDROOT
BRANCH   5   6
ATOM      6  N   UNL     1      31.289  -7.293 -23.432  0.00  0.00    -0.247 N 
ATOM      7  N   UNL     1      30.523  -5.209 -23.226  0.00  0.00    -0.242 NA
ATOM      8  N   UNL     1      33.185  -6.898 -24.898  0.00  0.00    -0.228 NA
ATOM      9  N   UNL     1      31.881  -2.875 -24.623  0.00  0.00    -0.289 N 
ATOM     10  N   UNL     1      33.394  -4.532 -25.457  0.00  0.00    -0.228 NA
ATOM     11  C   UNL     1      32.120  -6.510 -24.180  0.00  0.00    +0.152 C 
ATOM     12  C   UNL     1      30.345  -6.468 -22.880  0.00  0.00    +0.223 C 
ATOM     13  C   UNL     1      31.629  -5.221 -24.038  0.00  0.00    +0.140 C 
ATOM     14  C   UNL     1      32.309  -4.211 -24.712  0.00  0.00    +0.149 C 
ATOM     15  C   UNL     1      33.758  -5.836 -25.503  0.00  0.00    +0.253 C 
ATOM     16  C   UNL     1      30.721  -2.523 -23.826  0.00  0.00    +0.114 C 
ATOM     17  C   UNL     1      32.601  -1.822 -25.316  0.00  0.00    +0.114 C 
ENDBRANCH   5   6
BRANCH   2  19
ATOM     18  O   UNL     1      33.771 -12.890 -21.646  0.00  0.00    -0.277 OA
ATOM     19  N   UNL     1      32.257 -11.618 -22.856  0.00  0.00    -0.303 N 
ATOM     20  C   UNL     1      33.052 -12.731 -22.631  0.00  0.00    +0.202 C 
ATOM     21  H   UNL     1      31.714 -11.579 -23.676  0.00  0.00    +0.149 HD
BRANCH  20  22
ATOM     22  C   UNL     1      32.924 -13.772 -23.738  0.00  0.00    +0.017 C 
BRANCH  22  23
ATOM     23  N   UNL     1      32.540 -13.052 -24.953  0.00  0.00    +0.388 N 
ATOM     24  H   UNL     1      31.710 -13.485 -25.356  0.00  0.00    -0.089 HD
ATOM     25  H   UNL     1      33.305 -13.090 -25.627  0.00  0.00    -0.089 HD
ATOM     26  H   UNL     1      32.338 -12.079 -24.722  0.00  0.00    -0.089 HD
ENDBRANCH  22  23
BRANCH  22  27
ATOM     27  C   UNL     1      34.260 -14.496 -23.961  0.00  0.00    +0.013 C 
BRANCH  27  28
ATOM     28  C   UNL     1      34.276 -15.890 -23.379  0.00  0.00    -0.024 C 
ATOM     29  C   UNL     1      33.903 -16.980 -24.165  0.00  0.00    -0.001 C 
ATOM     30  C   UNL     1      34.663 -16.088 -22.053  0.00  0.00    -0.001 C 
ATOM     31  C   UNL     1      33.917 -18.266 -23.627  0.00  0.00    +0.037 C 
ATOM     32  C   UNL     1      34.678 -17.374 -21.515  0.00  0.00    +0.037 C 
ATOM     33  C   UNL     1      34.305 -18.464 -22.302  0.00  0.00    +0.139 C 
BRANCH  33  34
ATOM     34  O   UNL     1      34.320 -19.719 -21.777  0.00  0.00    -0.471 OA
ATOM     35  C   UNL     1      34.511 -19.831 -20.369  0.00  0.00    +0.252 C 
ENDBRANCH  33  34
ENDBRANCH  27  28
ENDBRANCH  22  27
ENDBRANCH  20  22
ENDBRANCH   2  19
BRANCH   3  36
ATOM     36  O   UNL     1      33.737  -9.358 -23.430  0.00  0.00    -0.379 OA
ATOM     37  H   UNL     1      33.462  -9.117 -24.330  0.00  0.00    +0.211 HD
ENDBRANCH   3  36
BRANCH   4  38
ATOM     38  C   UNL     1      30.621  -9.702 -20.108  0.00  0.00    +0.168 C 
BRANCH  38  39
ATOM     39  O   UNL     1      31.584 -10.356 -19.301  0.00  0.00    -0.379 OA
ATOM     40  H   UNL     1      32.231  -9.709 -18.981  0.00  0.00    +0.211 HD
ENDBRANCH  38  39
ENDBRANCH   4  38
TORSDOF 10
ENDMDL
MODEL 5
REMARK VINA RESULT:      -9.4      5.269      9.530
REMARK  Name = 439530
REMARK  10 active torsions:
REMARK  status: ('A' for Active; 'I' for Inactive)
REMARK    1  A    between atoms: C_2  and  N_19
REMARK    2  A    between atoms: C_3  and  O_36
REMARK    3  A    between atoms: C_4  and  C_38
REMARK    4  A    between atoms: C_5  and  N_6
REMARK    5  A    between atoms: C_20  and  C_22
REMARK    6  A    between atoms: C_22  and  N_23
REMARK    7  A    between atoms: C_22  and  C_27
REMARK    8  A    between atoms: C_27  and  C_28
REMARK    9  A    between atoms: C_33  and  O_34
REMARK   10  A    between atoms: C_38  and  O_39
REMARK                            x       y       z     vdW  Elec       q    Type
REMARK                         _______ _______ _______ _____ _____    ______ ____
ROOT
ATOM      1  O   UNL     1      35.595 -17.569 -20.636  0.00  0.00    -0.334 OA
ATOM      2  C   UNL     1      34.898 -19.845 -20.844  0.00  0.00    +0.132 C 
ATOM      3  C   UNL     1      34.034 -18.971 -21.738  0.00  0.00    +0.178 C 
ATOM      4  C   UNL     1      36.079 -18.925 -20.533  0.00  0.00    +0.167 C 
ATOM      5  C   UNL     1      34.242 -17.593 -21.128  0.00  0.00    +0.224 C 
ENDROOT
BRANCH   5   6
ATOM      6  N   UNL     1      34.042 -16.489 -22.064  0.00  0.00    -0.247 N 
ATOM      7  N   UNL     1      33.779 -15.425 -24.006  0.00  0.00    -0.242 NA
ATOM      8  N   UNL     1      33.909 -14.607 -20.535  0.00  0.00    -0.228 NA
ATOM      9  N   UNL     1      33.392 -12.412 -24.123  0.00  0.00    -0.289 N 
ATOM     10  N   UNL     1      33.566 -12.511 -21.738  0.00  0.00    -0.228 NA
ATOM     11  C   UNL     1      33.897 -15.167 -21.754  0.00  0.00    +0.152 C 
ATOM     12  C   UNL     1      33.965 -16.594 -23.428  0.00  0.00    +0.223 C 
ATOM     13  C   UNL     1      33.735 -14.525 -22.971  0.00  0.00    +0.140 C 
ATOM     14  C   UNL     1      33.564 -13.143 -22.936  0.00  0.00    +0.149 C 
ATOM     15  C   UNL     1      33.736 -13.270 -20.629  0.00  0.00    +0.253 C 
ATOM     16  C   UNL     1      33.387 -13.082 -25.410  0.00  0.00    +0.114 C 
ATOM     17  C   UNL     1      33.200 -10.973 -24.082  0.00  0.00    +0.114 C 
ENDBRANCH   5   6
BRANCH   2  19
ATOM     18  O   UNL     1      34.486 -22.516 -19.904  0.00  0.00    -0.277 OA
ATOM     19  N   UNL     1      34.224 -20.229 -19.624  0.00  0.00    -0.303 N 
ATOM     20  C   UNL     1      34.074 -21.556 -19.254  0.00  0.00    +0.202 C 
ATOM     21  H   UNL     1      33.859 -19.528 -19.039  0.00  0.00    +0.149 HD
BRANCH  20  22
ATOM     22  C   UNL     1      33.355 -21.711 -17.918  0.00  0.00    +0.017 C 
BRANCH  22  23
ATOM     23  N   UNL     1      31.920 -21.687 -18.206  0.00  0.00    +0.388 N 
ATOM     24  H   UNL     1      31.598 -22.634 -18.409  0.00  0.00    -0.089 HD
ATOM     25  H   UNL     1      31.746 -21.089 -19.014  0.00  0.00    -0.089 HD
ATOM     26  H   UNL     1      31.416 -21.322 -17.398  0.00  0.00    -0.089 HD
ENDBRANCH  22  23
BRANCH  22  27
ATOM     27  C   UNL     1      33.730 -23.042 -17.249  0.00  0.00    +0.013 C 
BRANCH  27  28
ATOM     28  C   UNL     1      34.670 -22.865 -16.081  0.00  0.00    -0.024 C 
ATOM     29  C   UNL     1      34.324 -23.362 -14.824  0.00  0.00    -0.001 C 
ATOM     30  C   UNL     1      35.886 -22.205 -16.257  0.00  0.00    -0.001 C 
ATOM     31  C   UNL     1      35.193 -23.199 -13.745  0.00  0.00    +0.037 C 
ATOM     32  C   UNL     1      36.756 -22.041 -15.179  0.00  0.00    +0.037 C 
ATOM     33  C   UNL     1      36.409 -22.539 -13.923  0.00  0.00    +0.139 C 
BRANCH  33  34
ATOM     34  O   UNL     1      37.257 -22.380 -12.870  0.00  0.00    -0.471 OA
ATOM     35  C   UNL     1      36.751 -22.701 -11.575  0.00  0.00    +0.252 C 
ENDBRANCH  33  34
ENDBRANCH  27  28
ENDBRANCH  22  27
ENDBRANCH  20  22
ENDBRANCH   2  19
BRANCH   3  36
ATOM     36  O   UNL     1      32.679 -19.370 -21.747  0.00  0.00    -0.379 OA
ATOM     37  H   UNL     1      32.444 -19.697 -22.630  0.00  0.00    +0.211 HD
ENDBRANCH   3  36
BRANCH   4  38
ATOM     38  C   UNL     1      37.233 -19.099 -21.512  0.00  0.00    +0.168 C 
BRANCH  38  39
ATOM     39  O   UNL     1      37.598 -17.825 -22.013  0.00  0.00    -0.379 OA
ATOM     40  H   UNL     1      36.878 -17.196 -21.852  0.00  0.00    +0.211 HD
ENDBRANCH  38  39
ENDBRANCH   4  38
TORSDOF 10
ENDMDL
MODEL 6
REMARK VINA RESULT:      -9.3      6.892     14.413
REMARK  Name = 439530
REMARK  10 active torsions:
REMARK  status: ('A' for Active; 'I' for Inactive)
REMARK    1  A    between atoms: C_2  and  N_19
REMARK    2  A    between atoms: C_3  and  O_36
REMARK    3  A    between atoms: C_4  and  C_38
REMARK    4  A    between atoms: C_5  and  N_6
REMARK    5  A    between atoms: C_20  and  C_22
REMARK    6  A    between atoms: C_22  and  N_23
REMARK    7  A    between atoms: C_22  and  C_27
REMARK    8  A    between atoms: C_27  and  C_28
REMARK    9  A    between atoms: C_33  and  O_34
REMARK   10  A    between atoms: C_38  and  O_39
REMARK                            x       y       z     vdW  Elec       q    Type
REMARK                         _______ _______ _______ _____ _____    ______ ____
ROOT
ATOM      1  O   UNL     1      33.781 -21.494 -17.823  0.00  0.00    -0.334 OA
ATOM      2  C   UNL     1      34.529 -21.044 -20.048  0.00  0.00    +0.132 C 
ATOM      3  C   UNL     1      35.731 -21.327 -19.161  0.00  0.00    +0.178 C 
ATOM      4  C   UNL     1      33.370 -21.576 -19.205  0.00  0.00    +0.167 C 
ATOM      5  C   UNL     1      35.161 -21.085 -17.771  0.00  0.00    +0.224 C 
ENDROOT
BRANCH   5   6
ATOM      6  N   UNL     1      35.848 -21.816 -16.709  0.00  0.00    -0.247 N 
ATOM      7  N   UNL     1      37.521 -22.560 -15.437  0.00  0.00    -0.242 NA
ATOM      8  N   UNL     1      33.980 -22.944 -15.642  0.00  0.00    -0.228 NA
ATOM      9  N   UNL     1      37.025 -24.461 -13.116  0.00  0.00    -0.289 N 
ATOM     10  N   UNL     1      34.725 -24.309 -13.761  0.00  0.00    -0.228 NA
ATOM     11  C   UNL     1      35.278 -22.637 -15.778  0.00  0.00    +0.152 C 
ATOM     12  C   UNL     1      37.196 -21.803 -16.464  0.00  0.00    +0.223 C 
ATOM     13  C   UNL     1      36.332 -23.088 -14.999  0.00  0.00    +0.140 C 
ATOM     14  C   UNL     1      36.018 -23.956 -13.957  0.00  0.00    +0.149 C 
ATOM     15  C   UNL     1      33.800 -23.789 -14.604  0.00  0.00    +0.253 C 
ATOM     16  C   UNL     1      38.412 -24.086 -13.317  0.00  0.00    +0.114 C 
ATOM     17  C   UNL     1      36.692 -25.355 -12.021  0.00  0.00    +0.114 C 
ENDBRANCH   5   6
BRANCH   2  19
ATOM     18  O   UNL     1      34.638 -19.771 -22.608  0.00  0.00    -0.277 OA
ATOM     19  N   UNL     1      34.355 -19.633 -20.311  0.00  0.00    -0.303 N 
ATOM     20  C   UNL     1      34.426 -19.110 -21.593  0.00  0.00    +0.202 C 
ATOM     21  H   UNL     1      34.181 -19.024 -19.558  0.00  0.00    +0.149 HD
BRANCH  20  22
ATOM     22  C   UNL     1      34.183 -17.605 -21.623  0.00  0.00    +0.017 C 
BRANCH  22  23
ATOM     23  N   UNL     1      34.953 -17.031 -20.518  0.00  0.00    +0.388 N 
ATOM     24  H   UNL     1      34.712 -17.513 -19.651  0.00  0.00    -0.089 HD
ATOM     25  H   UNL     1      34.731 -16.040 -20.428  0.00  0.00    -0.089 HD
ATOM     26  H   UNL     1      35.949 -17.142 -20.703  0.00  0.00    -0.089 HD
ENDBRANCH  22  23
BRANCH  22  27
ATOM     27  C   UNL     1      34.656 -17.004 -22.955  0.00  0.00    +0.013 C 
BRANCH  27  28
ATOM     28  C   UNL     1      34.109 -15.618 -23.200  0.00  0.00    -0.024 C 
ATOM     29  C   UNL     1      34.167 -14.656 -22.192  0.00  0.00    -0.001 C 
ATOM     30  C   UNL     1      33.546 -15.299 -24.436  0.00  0.00    -0.001 C 
ATOM     31  C   UNL     1      33.662 -13.376 -22.419  0.00  0.00    +0.037 C 
ATOM     32  C   UNL     1      33.041 -14.019 -24.664  0.00  0.00    +0.037 C 
ATOM     33  C   UNL     1      33.099 -13.057 -23.655  0.00  0.00    +0.139 C 
BRANCH  33  34
ATOM     34  O   UNL     1      32.607 -11.808 -23.876  0.00  0.00    -0.471 OA
ATOM     35  C   UNL     1      32.225 -11.048 -22.731  0.00  0.00    +0.252 C 
ENDBRANCH  33  34
ENDBRANCH  27  28
ENDBRANCH  22  27
ENDBRANCH  20  22
ENDBRANCH   2  19
BRANCH   3  36
ATOM     36  O   UNL     1      36.835 -20.497 -19.455  0.00  0.00    -0.379 OA
ATOM     37  H   UNL     1      36.822 -19.722 -18.870  0.00  0.00    +0.211 HD
ENDBRANCH   3  36
BRANCH   4  38
ATOM     38  C   UNL     1      33.032 -23.027 -19.520  0.00  0.00    +0.168 C 
BRANCH  38  39
ATOM     39  O   UNL     1      33.134 -23.785 -18.329  0.00  0.00    -0.379 OA
ATOM     40  H   UNL     1      32.852 -23.244 -17.575  0.00  0.00    +0.211 HD
ENDBRANCH  38  39
ENDBRANCH   4  38
TORSDOF 10
ENDMDL
MODEL 7
REMARK VINA RESULT:      -9.1      4.544      8.847
REMARK  Name = 439530
REMARK  10 active torsions:
REMARK  status: ('A' for Active; 'I' for Inactive)
REMARK    1  A    between atoms: C_2  and  N_19
REMARK    2  A    between atoms: C_3  and  O_36
REMARK    3  A    between atoms: C_4  and  C_38
REMARK    4  A    between atoms: C_5  and  N_6
REMARK    5  A    between atoms: C_20  and  C_22
REMARK    6  A    between atoms: C_22  and  N_23
REMARK    7  A    between atoms: C_22  and  C_27
REMARK    8  A    between atoms: C_27  and  C_28
REMARK    9  A    between atoms: C_33  and  O_34
REMARK   10  A    between atoms: C_38  and  O_39
REMARK                            x       y       z     vdW  Elec       q    Type
REMARK                         _______ _______ _______ _____ _____    ______ ____
ROOT
ATOM      1  O   UNL     1      35.180 -16.993 -20.596  0.00  0.00    -0.334 OA
ATOM      2  C   UNL     1      34.869 -19.165 -21.544  0.00  0.00    +0.132 C 
ATOM      3  C   UNL     1      34.165 -18.133 -22.410  0.00  0.00    +0.178 C 
ATOM      4  C   UNL     1      35.793 -18.297 -20.690  0.00  0.00    +0.167 C 
ATOM      5  C   UNL     1      34.020 -16.961 -21.449  0.00  0.00    +0.224 C 
ENDROOT
BRANCH   5   6
ATOM      6  N   UNL     1      33.932 -15.659 -22.106  0.00  0.00    -0.247 N 
ATOM      7  N   UNL     1      34.222 -14.082 -23.655  0.00  0.00    -0.242 NA
ATOM      8  N   UNL     1      32.650 -14.404 -20.468  0.00  0.00    -0.228 NA
ATOM      9  N   UNL     1      33.095 -11.280 -23.297  0.00  0.00    -0.289 N 
ATOM     10  N   UNL     1      32.273 -12.109 -21.207  0.00  0.00    -0.228 NA
ATOM     11  C   UNL     1      33.308 -14.542 -21.629  0.00  0.00    +0.152 C 
ATOM     12  C   UNL     1      34.466 -15.333 -23.324  0.00  0.00    +0.223 C 
ATOM     13  C   UNL     1      33.499 -13.575 -22.604  0.00  0.00    +0.140 C 
ATOM     14  C   UNL     1      32.950 -12.319 -22.361  0.00  0.00    +0.149 C 
ATOM     15  C   UNL     1      32.167 -13.149 -20.345  0.00  0.00    +0.253 C 
ATOM     16  C   UNL     1      33.818 -11.498 -24.536  0.00  0.00    +0.114 C 
ATOM     17  C   UNL     1      32.510  -9.975 -23.047  0.00  0.00    +0.114 C 
ENDBRANCH   5   6
BRANCH   2  19
ATOM     18  O   UNL     1      35.541 -20.636 -19.184  0.00  0.00    -0.277 OA
ATOM     19  N   UNL     1      33.952 -19.903 -20.705  0.00  0.00    -0.303 N 
ATOM     20  C   UNL     1      34.376 -20.586 -19.576  0.00  0.00    +0.202 C 
ATOM     21  H   UNL     1      32.997 -19.920 -20.941  0.00  0.00    +0.149 HD
BRANCH  20  22
ATOM     22  C   UNL     1      33.226 -21.265 -18.839  0.00  0.00    +0.017 C 
BRANCH  22  23
ATOM     23  N   UNL     1      32.178 -21.513 -19.829  0.00  0.00    +0.388 N 
ATOM     24  H   UNL     1      32.120 -20.720 -20.468  0.00  0.00    -0.089 HD
ATOM     25  H   UNL     1      31.283 -21.633 -19.354  0.00  0.00    -0.089 HD
ATOM     26  H   UNL     1      32.400 -22.358 -20.355  0.00  0.00    -0.089 HD
ENDBRANCH  22  23
BRANCH  22  27
ATOM     27  C   UNL     1      33.686 -22.593 -18.220  0.00  0.00    +0.013 C 
BRANCH  27  28
ATOM     28  C   UNL     1      33.139 -22.812 -16.830  0.00  0.00    -0.024 C 
ATOM     29  C   UNL     1      31.766 -22.736 -16.598  0.00  0.00    -0.001 C 
ATOM     30  C   UNL     1      34.008 -23.091 -15.775  0.00  0.00    -0.001 C 
ATOM     31  C   UNL     1      31.262 -22.938 -15.314  0.00  0.00    +0.037 C 
ATOM     32  C   UNL     1      33.505 -23.294 -14.490  0.00  0.00    +0.037 C 
ATOM     33  C   UNL     1      32.131 -23.218 -14.260  0.00  0.00    +0.139 C 
BRANCH  33  34
ATOM     34  O   UNL     1      31.639 -23.416 -13.006  0.00  0.00    -0.471 OA
ATOM     35  C   UNL     1      30.330 -23.972 -12.904  0.00  0.00    +0.252 C 
ENDBRANCH  33  34
ENDBRANCH  27  28
ENDBRANCH  22  27
ENDBRANCH  20  22
ENDBRANCH   2  19
BRANCH   3  36
ATOM     36  O   UNL     1      32.925 -18.591 -22.908  0.00  0.00    -0.379 OA
ATOM     37  H   UNL     1      32.342 -18.820 -22.166  0.00  0.00    +0.211 HD
ENDBRANCH   3  36
BRANCH   4  38
ATOM     38  C   UNL     1      37.178 -18.133 -21.304  0.00  0.00    +0.168 C 
BRANCH  38  39
ATOM     39  O   UNL     1      37.053 -18.152 -22.715  0.00  0.00    -0.379 OA
ATOM     40  H   UNL     1      36.121 -18.267 -22.956  0.00  0.00    +0.211 HD
ENDBRANCH  38  39
ENDBRANCH   4  38
TORSDOF 10
ENDMDL
MODEL 8
REMARK VINA RESULT:      -9.0      3.117      5.655
REMARK  Name = 439530
REMARK  10 active torsions:
REMARK  status: ('A' for Active; 'I' for Inactive)
REMARK    1  A    between atoms: C_2  and  N_19
REMARK    2  A    between atoms: C_3  and  O_36
REMARK    3  A    between atoms: C_4  and  C_38
REMARK    4  A    between atoms: C_5  and  N_6
REMARK    5  A    between atoms: C_20  and  C_22
REMARK    6  A    between atoms: C_22  and  N_23
REMARK    7  A    between atoms: C_22  and  C_27
REMARK    8  A    between atoms: C_27  and  C_28
REMARK    9  A    between atoms: C_33  and  O_34
REMARK   10  A    between atoms: C_38  and  O_39
REMARK                            x       y       z     vdW  Elec       q    Type
REMARK                         _______ _______ _______ _____ _____    ______ ____
ROOT
ATOM      1  O   UNL     1      30.473  -5.349 -23.386  0.00  0.00    -0.334 OA
ATOM      2  C   UNL     1      31.830  -5.763 -21.464  0.00  0.00    +0.132 C 
ATOM      3  C   UNL     1      32.719  -5.363 -22.629  0.00  0.00    +0.178 C 
ATOM      4  C   UNL     1      30.447  -5.324 -21.943  0.00  0.00    +0.167 C 
ATOM      5  C   UNL     1      31.815  -5.634 -23.823  0.00  0.00    +0.224 C 
ENDROOT
BRANCH   5   6
ATOM      6  N   UNL     1      32.127  -4.830 -25.003  0.00  0.00    -0.247 N 
ATOM      7  N   UNL     1      31.904  -3.268 -26.578  0.00  0.00    -0.242 NA
ATOM      8  N   UNL     1      34.230  -5.826 -25.697  0.00  0.00    -0.228 NA
ATOM      9  N   UNL     1      33.983  -2.918 -28.769  0.00  0.00    -0.289 N 
ATOM     10  N   UNL     1      35.112  -4.735 -27.694  0.00  0.00    -0.228 NA
ATOM     11  C   UNL     1      33.220  -4.951 -25.812  0.00  0.00    +0.152 C 
ATOM     12  C   UNL     1      31.366  -3.807 -25.504  0.00  0.00    +0.223 C 
ATOM     13  C   UNL     1      33.063  -3.974 -26.782  0.00  0.00    +0.140 C 
ATOM     14  C   UNL     1      34.061  -3.882 -27.749  0.00  0.00    +0.149 C 
ATOM     15  C   UNL     1      35.130  -5.641 -26.687  0.00  0.00    +0.253 C 
ATOM     16  C   UNL     1      32.862  -1.999 -28.834  0.00  0.00    +0.114 C 
ATOM     17  C   UNL     1      35.032  -2.815 -29.769  0.00  0.00    +0.114 C 
ENDBRANCH   5   6
BRANCH   2  19
ATOM     18  O   UNL     1      31.386  -7.053 -18.949  0.00  0.00    -0.277 OA
ATOM     19  N   UNL     1      31.850  -7.188 -21.217  0.00  0.00    -0.303 N 
ATOM     20  C   UNL     1      31.621  -7.718 -19.957  0.00  0.00    +0.202 C 
ATOM     21  H   UNL     1      32.030  -7.800 -21.965  0.00  0.00    +0.149 HD
BRANCH  20  22
ATOM     22  C   UNL     1      31.665  -9.243 -19.949  0.00  0.00    +0.017 C 
BRANCH  22  23
ATOM     23  N   UNL     1      30.858  -9.682 -18.810  0.00  0.00    +0.388 N 
ATOM     24  H   UNL     1      29.892  -9.382 -18.942  0.00  0.00    -0.089 HD
ATOM     25  H   UNL     1      31.228  -9.270 -17.953  0.00  0.00    -0.089 HD
ATOM     26  H   UNL     1      30.892 -10.699 -18.741  0.00  0.00    -0.089 HD
ENDBRANCH  22  23
BRANCH  22  27
ATOM     27  C   UNL     1      31.082  -9.810 -21.252  0.00  0.00    +0.013 C 
BRANCH  27  28
ATOM     28  C   UNL     1      31.877 -10.975 -21.791  0.00  0.00    -0.024 C 
ATOM     29  C   UNL     1      32.504 -10.878 -23.034  0.00  0.00    -0.001 C 
ATOM     30  C   UNL     1      31.986 -12.150 -21.047  0.00  0.00    -0.001 C 
ATOM     31  C   UNL     1      33.238 -11.954 -23.531  0.00  0.00    +0.037 C 
ATOM     32  C   UNL     1      32.720 -13.226 -21.543  0.00  0.00    +0.037 C 
ATOM     33  C   UNL     1      33.347 -13.128 -22.786  0.00  0.00    +0.139 C 
BRANCH  33  34
ATOM     34  O   UNL     1      34.064 -14.178 -23.271  0.00  0.00    -0.471 OA
ATOM     35  C   UNL     1      34.274 -15.281 -22.392  0.00  0.00    +0.252 C 
ENDBRANCH  33  34
ENDBRANCH  27  28
ENDBRANCH  22  27
ENDBRANCH  20  22
ENDBRANCH   2  19
BRANCH   3  36
ATOM     36  O   UNL     1      33.925  -6.096 -22.675  0.00  0.00    -0.379 OA
ATOM     37  H   UNL     1      34.553  -5.650 -23.267  0.00  0.00    +0.211 HD
ENDBRANCH   3  36
BRANCH   4  38
ATOM     38  C   UNL     1      30.091  -3.912 -21.494  0.00  0.00    +0.168 C 
BRANCH  38  39
ATOM     39  O   UNL     1      29.722  -3.154 -22.632  0.00  0.00    -0.379 OA
ATOM     40  H   UNL     1      29.075  -3.651 -23.155  0.00  0.00    +0.211 HD
ENDBRANCH  38  39
ENDBRANCH   4  38
TORSDOF 10
ENDMDL
MODEL 9
REMARK VINA RESULT:      -8.8      2.799      4.476
REMARK  Name = 439530
REMARK  10 active torsions:
REMARK  status: ('A' for Active; 'I' for Inactive)
REMARK    1  A    between atoms: C_2  and  N_19
REMARK    2  A    between atoms: C_3  and  O_36
REMARK    3  A    between atoms: C_4  and  C_38
REMARK    4  A    between atoms: C_5  and  N_6
REMARK    5  A    between atoms: C_20  and  C_22
REMARK    6  A    between atoms: C_22  and  N_23
REMARK    7  A    between atoms: C_22  and  C_27
REMARK    8  A    between atoms: C_27  and  C_28
REMARK    9  A    between atoms: C_33  and  O_34
REMARK   10  A    between atoms: C_38  and  O_39
REMARK                            x       y       z     vdW  Elec       q    Type
REMARK                         _______ _______ _______ _____ _____    ______ ____
ROOT
ATOM      1  O   UNL     1      30.661  -6.066 -23.017  0.00  0.00    -0.334 OA
ATOM      2  C   UNL     1      32.235  -7.239 -21.654  0.00  0.00    +0.132 C 
ATOM      3  C   UNL     1      32.946  -6.683 -22.877  0.00  0.00    +0.178 C 
ATOM      4  C   UNL     1      30.927  -6.448 -21.650  0.00  0.00    +0.167 C 
ATOM      5  C   UNL     1      31.786  -6.442 -23.833  0.00  0.00    +0.224 C 
ENDROOT
BRANCH   5   6
ATOM      6  N   UNL     1      32.039  -5.403 -24.828  0.00  0.00    -0.247 N 
ATOM      7  N   UNL     1      31.705  -3.579 -26.068  0.00  0.00    -0.242 NA
ATOM      8  N   UNL     1      34.204  -6.098 -25.681  0.00  0.00    -0.228 NA
ATOM      9  N   UNL     1      33.750  -2.665 -28.124  0.00  0.00    -0.289 N 
ATOM     10  N   UNL     1      35.003  -4.577 -27.415  0.00  0.00    -0.228 NA
ATOM     11  C   UNL     1      33.136  -5.288 -25.633  0.00  0.00    +0.152 C 
ATOM     12  C   UNL     1      31.208  -4.355 -25.126  0.00  0.00    +0.223 C 
ATOM     13  C   UNL     1      32.910  -4.151 -26.394  0.00  0.00    +0.140 C 
ATOM     14  C   UNL     1      33.896  -3.803 -27.312  0.00  0.00    +0.149 C 
ATOM     15  C   UNL     1      35.086  -5.660 -26.606  0.00  0.00    +0.253 C 
ATOM     16  C   UNL     1      32.568  -1.829 -28.019  0.00  0.00    +0.114 C 
ATOM     17  C   UNL     1      34.786  -2.296 -29.072  0.00  0.00    +0.114 C 
ENDBRANCH   5   6
BRANCH   2  19
ATOM     18  O   UNL     1      30.948  -8.879 -19.695  0.00  0.00    -0.277 OA
ATOM     19  N   UNL     1      31.968  -8.656 -21.764  0.00  0.00    -0.303 N 
ATOM     20  C   UNL     1      31.335  -9.365 -20.756  0.00  0.00    +0.202 C 
ATOM     21  H   UNL     1      32.244  -9.132 -22.580  0.00  0.00    +0.149 HD
BRANCH  20  22
ATOM     22  C   UNL     1      31.140 -10.835 -21.111  0.00  0.00    +0.017 C 
BRANCH  22  23
ATOM     23  N   UNL     1      29.758 -10.978 -21.570  0.00  0.00    +0.388 N 
ATOM     24  H   UNL     1      29.750 -11.153 -22.575  0.00  0.00    -0.089 HD
ATOM     25  H   UNL     1      29.243 -10.120 -21.371  0.00  0.00    -0.089 HD
ATOM     26  H   UNL     1      29.317 -11.760 -21.085  0.00  0.00    -0.089 HD
ENDBRANCH  22  23
BRANCH  22  27
ATOM     27  C   UNL     1      32.107 -11.258 -22.227  0.00  0.00    +0.013 C 
BRANCH  27  28
ATOM     28  C   UNL     1      32.795 -12.572 -21.939  0.00  0.00    -0.024 C 
ATOM     29  C   UNL     1      33.502 -13.227 -22.948  0.00  0.00    -0.001 C 
ATOM     30  C   UNL     1      32.724 -13.132 -20.664  0.00  0.00    -0.001 C 
ATOM     31  C   UNL     1      34.136 -14.440 -22.682  0.00  0.00    +0.037 C 
ATOM     32  C   UNL     1      33.358 -14.345 -20.397  0.00  0.00    +0.037 C 
ATOM     33  C   UNL     1      34.065 -14.999 -21.407  0.00  0.00    +0.139 C 
BRANCH  33  34
ATOM     34  O   UNL     1      34.684 -16.182 -21.147  0.00  0.00    -0.471 OA
ATOM     35  C   UNL     1      34.957 -17.030 -22.260  0.00  0.00    +0.252 C 
ENDBRANCH  33  34
ENDBRANCH  27  28
ENDBRANCH  22  27
ENDBRANCH  20  22
ENDBRANCH   2  19
BRANCH   3  36
ATOM     36  O   UNL     1      33.913  -7.571 -23.398  0.00  0.00    -0.379 OA
ATOM     37  H   UNL     1      34.373  -8.013 -22.667  0.00  0.00    +0.211 HD
ENDBRANCH   3  36
BRANCH   4  38
ATOM     38  C   UNL     1      31.007  -5.184 -20.804  0.00  0.00    +0.168 C 
BRANCH  38  39
ATOM     39  O   UNL     1      31.812  -4.236 -21.482  0.00  0.00    -0.379 OA
ATOM     40  H   UNL     1      32.715  -4.268 -21.131  0.00  0.00    +0.211 HD
ENDBRANCH  38  39
ENDBRANCH   4  38
TORSDOF 10
ENDMDL
