MODEL 1
REMARK VINA RESULT:     -11.0      0.000      0.000
REMARK  Name = 59422203
REMARK  6 active torsions:
REMARK  status: ('A' for Active; 'I' for Inactive)
REMARK    1  A    between atoms: N_1  and  C_19
REMARK    2  A    between atoms: C_6  and  C_11
REMARK    3  A    between atoms: C_19  and  C_23
REMARK    4  A    between atoms: C_19  and  C_30
REMARK    5  A    between atoms: N_22  and  C_25
REMARK    6  A    between atoms: C_25  and  C_29
REMARK                            x       y       z     vdW  Elec       q    Type
REMARK                         _______ _______ _______ _____ _____    ______ ____
ROOT
ATOM      1  N   UNL     1      34.200 -24.275 -12.092  0.00  0.00    -0.303 N 
ATOM      2  N   UNL     1      34.529 -23.280 -14.196  0.00  0.00    -0.336 NA
ATOM      3  N   UNL     1      32.696 -23.182 -15.757  0.00  0.00    -0.182 NA
ATOM      4  C   UNL     1      33.707 -23.903 -13.326  0.00  0.00    +0.193 C 
ATOM      5  C   UNL     1      32.385 -24.196 -13.596  0.00  0.00    +0.070 C 
ATOM      6  C   UNL     1      33.967 -22.953 -15.374  0.00  0.00    +0.090 C 
ATOM      7  C   UNL     1      31.930 -23.808 -14.839  0.00  0.00    +0.115 C 
ATOM      8  H   UNL     1      33.594 -24.729 -11.464  0.00  0.00    +0.150 HD
ENDROOT
BRANCH   6  11
ATOM      9  N   UNL     1      36.665 -21.404 -17.176  0.00  0.00    -0.296 N 
ATOM     10  N   UNL     1      35.852 -20.615 -19.302  0.00  0.00    -0.229 NA
ATOM     11  C   UNL     1      34.810 -22.289 -16.324  0.00  0.00    +0.091 C 
ATOM     12  C   UNL     1      34.504 -21.764 -17.607  0.00  0.00    +0.043 C 
ATOM     13  C   UNL     1      35.681 -21.220 -18.111  0.00  0.00    +0.133 C 
ATOM     14  C   UNL     1      36.147 -22.054 -16.086  0.00  0.00    +0.074 C 
ATOM     15  C   UNL     1      33.357 -21.684 -18.414  0.00  0.00    +0.005 C 
ATOM     16  C   UNL     1      33.478 -21.066 -19.657  0.00  0.00    +0.021 C 
ATOM     17  C   UNL     1      34.716 -20.565 -20.035  0.00  0.00    +0.100 C 
ATOM     18  H   UNL     1      37.601 -21.114 -17.272  0.00  0.00    +0.154 HD
ENDBRANCH   6  11
BRANCH   1  19
ATOM     19  C   UNL     1      35.573 -24.029 -11.675  0.00  0.00    +0.125 C 
ATOM     20  C   UNL     1      35.592 -24.065 -10.139  0.00  0.00    +0.029 C 
BRANCH  19  23
ATOM     21  O   UNL     1      36.622 -26.222 -11.635  0.00  0.00    -0.273 OA
ATOM     22  N   UNL     1      37.029 -24.869 -13.464  0.00  0.00    -0.296 N 
ATOM     23  C   UNL     1      36.452 -25.159 -12.235  0.00  0.00    +0.238 C 
ATOM     24  H   UNL     1      36.845 -23.997 -13.881  0.00  0.00    +0.150 HD
BRANCH  22  25
ATOM     25  C   UNL     1      37.887 -25.805 -14.149  0.00  0.00    +0.194 C 
BRANCH  25  29
ATOM     26  F   UNL     1      39.652 -24.592 -13.181  0.00  0.00    -0.168 F 
ATOM     27  F   UNL     1      40.183 -26.265 -14.473  0.00  0.00    -0.168 F 
ATOM     28  F   UNL     1      39.389 -24.422 -15.339  0.00  0.00    -0.168 F 
ATOM     29  C   UNL     1      39.290 -25.269 -14.293  0.00  0.00    +0.415 C 
ENDBRANCH  25  29
ENDBRANCH  22  25
ENDBRANCH  19  23
BRANCH  19  30
ATOM     30  C   UNL     1      36.014 -22.639 -12.180  0.00  0.00    +0.027 C 
ATOM     31  C   UNL     1      37.405 -22.214 -11.716  0.00  0.00    +0.002 C 
ENDBRANCH  19  30
ENDBRANCH   1  19
TORSDOF 6
ENDMDL
MODEL 2
REMARK VINA RESULT:     -10.7      4.076      7.444
REMARK  Name = 59422203
REMARK  6 active torsions:
REMARK  status: ('A' for Active; 'I' for Inactive)
REMARK    1  A    between atoms: N_1  and  C_19
REMARK    2  A    between atoms: C_6  and  C_11
REMARK    3  A    between atoms: C_19  and  C_23
REMARK    4  A    between atoms: C_19  and  C_30
REMARK    5  A    between atoms: N_22  and  C_25
REMARK    6  A    between atoms: C_25  and  C_29
REMARK                            x       y       z     vdW  Elec       q    Type
REMARK                         _______ _______ _______ _____ _____    ______ ____
ROOT
ATOM      1  N   UNL     1      32.375 -22.075 -17.804  0.00  0.00    -0.303 N 
ATOM      2  N   UNL     1      33.670 -23.206 -16.203  0.00  0.00    -0.336 NA
ATOM      3  N   UNL     1      32.609 -24.065 -14.217  0.00  0.00    -0.182 NA
ATOM      4  C   UNL     1      32.467 -22.745 -16.602  0.00  0.00    +0.193 C 
ATOM      5  C   UNL     1      31.305 -22.903 -15.873  0.00  0.00    +0.070 C 
ATOM      6  C   UNL     1      33.669 -23.847 -15.019  0.00  0.00    +0.090 C 
ATOM      7  C   UNL     1      31.438 -23.578 -14.677  0.00  0.00    +0.115 C 
ATOM      8  H   UNL     1      31.493 -21.743 -18.088  0.00  0.00    +0.150 HD
ENDROOT
BRANCH   6  11
ATOM      9  N   UNL     1      36.715 -25.677 -14.472  0.00  0.00    -0.296 N 
ATOM     10  N   UNL     1      37.934 -24.668 -12.655  0.00  0.00    -0.229 NA
ATOM     11  C   UNL     1      34.930 -24.351 -14.563  0.00  0.00    +0.091 C 
ATOM     12  C   UNL     1      35.776 -23.888 -13.520  0.00  0.00    +0.043 C 
ATOM     13  C   UNL     1      36.879 -24.736 -13.490  0.00  0.00    +0.133 C 
ATOM     14  C   UNL     1      35.535 -25.452 -15.131  0.00  0.00    +0.074 C 
ATOM     15  C   UNL     1      35.740 -22.840 -12.586  0.00  0.00    +0.005 C 
ATOM     16  C   UNL     1      36.807 -22.724 -11.698  0.00  0.00    +0.021 C 
ATOM     17  C   UNL     1      37.846 -23.641 -11.778  0.00  0.00    +0.100 C 
ATOM     18  H   UNL     1      37.349 -26.403 -14.674  0.00  0.00    +0.154 HD
ENDBRANCH   6  11
BRANCH   1  19
ATOM     19  C   UNL     1      33.517 -21.837 -18.674  0.00  0.00    +0.125 C 
ATOM     20  C   UNL     1      33.732 -23.113 -19.500  0.00  0.00    +0.029 C 
BRANCH  19  23
ATOM     21  O   UNL     1      32.024 -20.229 -19.721  0.00  0.00    -0.273 OA
ATOM     22  N   UNL     1      34.260 -20.149 -20.295  0.00  0.00    -0.296 N 
ATOM     23  C   UNL     1      33.171 -20.663 -19.606  0.00  0.00    +0.238 C 
ATOM     24  H   UNL     1      35.147 -20.550 -20.150  0.00  0.00    +0.150 HD
BRANCH  22  25
ATOM     25  C   UNL     1      34.135 -19.046 -21.217  0.00  0.00    +0.194 C 
BRANCH  25  29
ATOM     26  F   UNL     1      35.876 -18.224 -22.565  0.00  0.00    -0.168 F 
ATOM     27  F   UNL     1      35.209 -16.961 -20.919  0.00  0.00    -0.168 F 
ATOM     28  F   UNL     1      36.372 -18.766 -20.512  0.00  0.00    -0.168 F 
ATOM     29  C   UNL     1      35.408 -18.241 -21.297  0.00  0.00    +0.415 C 
ENDBRANCH  25  29
ENDBRANCH  22  25
ENDBRANCH  19  23
BRANCH  19  30
ATOM     30  C   UNL     1      34.761 -21.548 -17.808  0.00  0.00    +0.027 C 
ATOM     31  C   UNL     1      36.045 -21.329 -18.604  0.00  0.00    +0.002 C 
ENDBRANCH  19  30
ENDBRANCH   1  19
TORSDOF 6
ENDMDL
MODEL 3
REMARK VINA RESULT:      -9.9      3.332      4.846
REMARK  Name = 59422203
REMARK  6 active torsions:
REMARK  status: ('A' for Active; 'I' for Inactive)
REMARK    1  A    between atoms: N_1  and  C_19
REMARK    2  A    between atoms: C_6  and  C_11
REMARK    3  A    between atoms: C_19  and  C_23
REMARK    4  A    between atoms: C_19  and  C_30
REMARK    5  A    between atoms: N_22  and  C_25
REMARK    6  A    between atoms: C_25  and  C_29
REMARK                            x       y       z     vdW  Elec       q    Type
REMARK                         _______ _______ _______ _____ _____    ______ ____
ROOT
ATOM      1  N   UNL     1      36.974 -23.995 -13.955  0.00  0.00    -0.303 N 
ATOM      2  N   UNL     1      35.648 -23.033 -15.640  0.00  0.00    -0.336 NA
ATOM      3  N   UNL     1      36.610 -21.371 -17.096  0.00  0.00    -0.182 NA
ATOM      4  C   UNL     1      36.839 -23.117 -15.011  0.00  0.00    +0.193 C 
ATOM      5  C   UNL     1      37.947 -22.372 -15.363  0.00  0.00    +0.070 C 
ATOM      6  C   UNL     1      35.604 -22.153 -16.658  0.00  0.00    +0.090 C 
ATOM      7  C   UNL     1      37.771 -21.507 -16.424  0.00  0.00    +0.115 C 
ATOM      8  H   UNL     1      37.847 -24.051 -13.503  0.00  0.00    +0.150 HD
ENDROOT
BRANCH   6  11
ATOM      9  N   UNL     1      32.198 -22.362 -17.790  0.00  0.00    -0.296 N 
ATOM     10  N   UNL     1      31.944 -21.047 -19.793  0.00  0.00    -0.229 NA
ATOM     11  C   UNL     1      34.355 -22.036 -17.349  0.00  0.00    +0.091 C 
ATOM     12  C   UNL     1      34.027 -21.314 -18.528  0.00  0.00    +0.043 C 
ATOM     13  C   UNL     1      32.677 -21.539 -18.775  0.00  0.00    +0.133 C 
ATOM     14  C   UNL     1      33.209 -22.670 -16.917  0.00  0.00    +0.074 C 
ATOM     15  C   UNL     1      34.721 -20.487 -19.426  0.00  0.00    +0.005 C 
ATOM     16  C   UNL     1      34.010 -19.952 -20.499  0.00  0.00    +0.021 C 
ATOM     17  C   UNL     1      32.662 -20.259 -20.626  0.00  0.00    +0.100 C 
ATOM     18  H   UNL     1      31.270 -22.683 -17.719  0.00  0.00    +0.154 HD
ENDBRANCH   6  11
BRANCH   1  19
ATOM     19  C   UNL     1      35.891 -24.841 -13.477  0.00  0.00    +0.125 C 
ATOM     20  C   UNL     1      36.463 -25.715 -12.351  0.00  0.00    +0.029 C 
BRANCH  19  23
ATOM     21  O   UNL     1      34.973 -23.160 -11.980  0.00  0.00    -0.273 OA
ATOM     22  N   UNL     1      33.565 -24.063 -13.575  0.00  0.00    -0.296 N 
ATOM     23  C   UNL     1      34.783 -23.931 -12.922  0.00  0.00    +0.238 C 
ATOM     24  H   UNL     1      33.491 -24.702 -14.320  0.00  0.00    +0.150 HD
BRANCH  22  25
ATOM     25  C   UNL     1      32.404 -23.293 -13.197  0.00  0.00    +0.194 C 
BRANCH  25  29
ATOM     26  F   UNL     1      30.151 -23.790 -12.750  0.00  0.00    -0.168 F 
ATOM     27  F   UNL     1      30.692 -23.392 -14.823  0.00  0.00    -0.168 F 
ATOM     28  F   UNL     1      31.296 -25.266 -13.875  0.00  0.00    -0.168 F 
ATOM     29  C   UNL     1      31.128 -23.942 -13.671  0.00  0.00    +0.415 C 
ENDBRANCH  25  29
ENDBRANCH  22  25
ENDBRANCH  19  23
BRANCH  19  30
ATOM     30  C   UNL     1      35.393 -25.729 -14.638  0.00  0.00    +0.027 C 
ATOM     31  C   UNL     1      36.443 -26.686 -15.193  0.00  0.00    +0.002 C 
ENDBRANCH  19  30
ENDBRANCH   1  19
TORSDOF 6
ENDMDL
MODEL 4
REMARK VINA RESULT:      -9.7      2.537      4.934
REMARK  Name = 59422203
REMARK  6 active torsions:
REMARK  status: ('A' for Active; 'I' for Inactive)
REMARK    1  A    between atoms: N_1  and  C_19
REMARK    2  A    between atoms: C_6  and  C_11
REMARK    3  A    between atoms: C_19  and  C_23
REMARK    4  A    between atoms: C_19  and  C_30
REMARK    5  A    between atoms: N_22  and  C_25
REMARK    6  A    between atoms: C_25  and  C_29
REMARK                            x       y       z     vdW  Elec       q    Type
REMARK                         _______ _______ _______ _____ _____    ______ ____
ROOT
ATOM      1  N   UNL     1      38.049 -23.366 -15.472  0.00  0.00    -0.303 N 
ATOM      2  N   UNL     1      35.715 -23.405 -15.209  0.00  0.00    -0.336 NA
ATOM      3  N   UNL     1      34.352 -21.912 -16.521  0.00  0.00    -0.182 NA
ATOM      4  C   UNL     1      36.802 -22.886 -15.816  0.00  0.00    +0.193 C 
ATOM      5  C   UNL     1      36.746 -21.892 -16.772  0.00  0.00    +0.070 C 
ATOM      6  C   UNL     1      34.540 -22.880 -15.603  0.00  0.00    +0.090 C 
ATOM      7  C   UNL     1      35.482 -21.439 -17.088  0.00  0.00    +0.115 C 
ATOM      8  H   UNL     1      38.838 -22.982 -15.920  0.00  0.00    +0.150 HD
ENDROOT
BRANCH   6  11
ATOM      9  N   UNL     1      32.132 -24.571 -13.536  0.00  0.00    -0.296 N 
ATOM     10  N   UNL     1      29.912 -24.059 -14.320  0.00  0.00    -0.229 NA
ATOM     11  C   UNL     1      33.362 -23.406 -14.980  0.00  0.00    +0.091 C 
ATOM     12  C   UNL     1      31.993 -23.213 -15.304  0.00  0.00    +0.043 C 
ATOM     13  C   UNL     1      31.254 -23.953 -14.386  0.00  0.00    +0.133 C 
ATOM     14  C   UNL     1      33.417 -24.245 -13.887  0.00  0.00    +0.074 C 
ATOM     15  C   UNL     1      31.281 -22.492 -16.277  0.00  0.00    +0.005 C 
ATOM     16  C   UNL     1      29.890 -22.569 -16.254  0.00  0.00    +0.021 C 
ATOM     17  C   UNL     1      29.279 -23.346 -15.279  0.00  0.00    +0.100 C 
ATOM     18  H   UNL     1      31.880 -25.159 -12.788  0.00  0.00    +0.154 HD
ENDBRANCH   6  11
BRANCH   1  19
ATOM     19  C   UNL     1      38.257 -24.411 -14.481  0.00  0.00    +0.125 C 
ATOM     20  C   UNL     1      39.674 -24.964 -14.696  0.00  0.00    +0.029 C 
BRANCH  19  23
ATOM     21  O   UNL     1      39.124 -23.650 -12.341  0.00  0.00    -0.273 OA
ATOM     22  N   UNL     1      36.869 -23.359 -12.751  0.00  0.00    -0.296 N 
ATOM     23  C   UNL     1      38.151 -23.773 -13.085  0.00  0.00    +0.238 C 
ATOM     24  H   UNL     1      36.142 -23.492 -13.400  0.00  0.00    +0.150 HD
BRANCH  22  25
ATOM     25  C   UNL     1      36.570 -22.738 -11.482  0.00  0.00    +0.194 C 
BRANCH  25  29
ATOM     26  F   UNL     1      35.517 -24.805 -11.103  0.00  0.00    -0.168 F 
ATOM     27  F   UNL     1      35.750 -23.475  -9.392  0.00  0.00    -0.168 F 
ATOM     28  F   UNL     1      34.285 -23.013 -10.946  0.00  0.00    -0.168 F 
ATOM     29  C   UNL     1      35.520 -23.509 -10.721  0.00  0.00    +0.415 C 
ENDBRANCH  25  29
ENDBRANCH  22  25
ENDBRANCH  19  23
BRANCH  19  30
ATOM     30  C   UNL     1      37.213 -25.527 -14.695  0.00  0.00    +0.027 C 
ATOM     31  C   UNL     1      37.074 -26.492 -13.521  0.00  0.00    +0.002 C 
ENDBRANCH  19  30
ENDBRANCH   1  19
TORSDOF 6
ENDMDL
MODEL 5
REMARK VINA RESULT:      -9.6      2.401      5.065
REMARK  Name = 59422203
REMARK  6 active torsions:
REMARK  status: ('A' for Active; 'I' for Inactive)
REMARK    1  A    between atoms: N_1  and  C_19
REMARK    2  A    between atoms: C_6  and  C_11
REMARK    3  A    between atoms: C_19  and  C_23
REMARK    4  A    between atoms: C_19  and  C_30
REMARK    5  A    between atoms: N_22  and  C_25
REMARK    6  A    between atoms: C_25  and  C_29
REMARK                            x       y       z     vdW  Elec       q    Type
REMARK                         _______ _______ _______ _____ _____    ______ ____
ROOT
ATOM      1  N   UNL     1      37.539 -23.184 -15.375  0.00  0.00    -0.303 N 
ATOM      2  N   UNL     1      35.276 -22.897 -15.936  0.00  0.00    -0.336 NA
ATOM      3  N   UNL     1      34.680 -21.371 -17.703  0.00  0.00    -0.182 NA
ATOM      4  C   UNL     1      36.570 -22.582 -16.150  0.00  0.00    +0.193 C 
ATOM      5  C   UNL     1      36.992 -21.683 -17.109  0.00  0.00    +0.070 C 
ATOM      6  C   UNL     1      34.397 -22.264 -16.735  0.00  0.00    +0.090 C 
ATOM      7  C   UNL     1      35.993 -21.103 -17.864  0.00  0.00    +0.115 C 
ATOM      8  H   UNL     1      38.481 -22.949 -15.538  0.00  0.00    +0.150 HD
ENDROOT
BRANCH   6  11
ATOM      9  N   UNL     1      30.829 -22.649 -16.965  0.00  0.00    -0.296 N 
ATOM     10  N   UNL     1      30.031 -23.830 -15.023  0.00  0.00    -0.229 NA
ATOM     11  C   UNL     1      33.012 -22.573 -16.537  0.00  0.00    +0.091 C 
ATOM     12  C   UNL     1      32.372 -23.252 -15.466  0.00  0.00    +0.043 C 
ATOM     13  C   UNL     1      31.013 -23.282 -15.764  0.00  0.00    +0.133 C 
ATOM     14  C   UNL     1      32.038 -22.215 -17.445  0.00  0.00    +0.074 C 
ATOM     15  C   UNL     1      32.785 -23.853 -14.266  0.00  0.00    +0.005 C 
ATOM     16  C   UNL     1      31.808 -24.434 -13.460  0.00  0.00    +0.021 C 
ATOM     17  C   UNL     1      30.485 -24.392 -13.879  0.00  0.00    +0.100 C 
ATOM     18  H   UNL     1      29.963 -22.526 -17.415  0.00  0.00    +0.154 HD
ENDBRANCH   6  11
BRANCH   1  19
ATOM     19  C   UNL     1      37.238 -24.150 -14.328  0.00  0.00    +0.125 C 
ATOM     20  C   UNL     1      38.551 -24.869 -13.984  0.00  0.00    +0.029 C 
BRANCH  19  23
ATOM     21  O   UNL     1      37.286 -22.365 -12.678  0.00  0.00    -0.273 OA
ATOM     22  N   UNL     1      35.592 -23.929 -12.521  0.00  0.00    -0.296 N 
ATOM     23  C   UNL     1      36.727 -23.378 -13.100  0.00  0.00    +0.238 C 
ATOM     24  H   UNL     1      35.202 -24.741 -12.916  0.00  0.00    +0.150 HD
BRANCH  22  25
ATOM     25  C   UNL     1      34.964 -23.346 -11.358  0.00  0.00    +0.194 C 
BRANCH  25  29
ATOM     26  F   UNL     1      36.083 -22.690  -9.398  0.00  0.00    -0.168 F 
ATOM     27  F   UNL     1      34.816 -24.461  -9.279  0.00  0.00    -0.168 F 
ATOM     28  F   UNL     1      36.725 -24.548 -10.340  0.00  0.00    -0.168 F 
ATOM     29  C   UNL     1      35.652 -23.771 -10.085  0.00  0.00    +0.415 C 
ENDBRANCH  25  29
ENDBRANCH  22  25
ENDBRANCH  19  23
BRANCH  19  30
ATOM     30  C   UNL     1      36.200 -25.162 -14.856  0.00  0.00    +0.027 C 
ATOM     31  C   UNL     1      36.659 -26.617 -14.807  0.00  0.00    +0.002 C 
ENDBRANCH  19  30
ENDBRANCH   1  19
TORSDOF 6
ENDMDL
MODEL 6
REMARK VINA RESULT:      -9.5      9.193     13.021
REMARK  Name = 59422203
REMARK  6 active torsions:
REMARK  status: ('A' for Active; 'I' for Inactive)
REMARK    1  A    between atoms: N_1  and  C_19
REMARK    2  A    between atoms: C_6  and  C_11
REMARK    3  A    between atoms: C_19  and  C_23
REMARK    4  A    between atoms: C_19  and  C_30
REMARK    5  A    between atoms: N_22  and  C_25
REMARK    6  A    between atoms: C_25  and  C_29
REMARK                            x       y       z     vdW  Elec       q    Type
REMARK                         _______ _______ _______ _____ _____    ______ ____
ROOT
ATOM      1  N   UNL     1      33.010 -13.608 -22.464  0.00  0.00    -0.303 N 
ATOM      2  N   UNL     1      34.044 -15.687 -22.106  0.00  0.00    -0.336 NA
ATOM      3  N   UNL     1      34.392 -17.171 -23.972  0.00  0.00    -0.182 NA
ATOM      4  C   UNL     1      33.478 -14.808 -22.958  0.00  0.00    +0.193 C 
ATOM      5  C   UNL     1      33.336 -15.035 -24.313  0.00  0.00    +0.070 C 
ATOM      6  C   UNL     1      34.472 -16.831 -22.671  0.00  0.00    +0.090 C 
ATOM      7  C   UNL     1      33.816 -16.246 -24.768  0.00  0.00    +0.115 C 
ATOM      8  H   UNL     1      32.600 -12.971 -23.093  0.00  0.00    +0.150 HD
ENDROOT
BRANCH   6  11
ATOM      9  N   UNL     1      36.695 -18.841 -20.684  0.00  0.00    -0.296 N 
ATOM     10  N   UNL     1      35.423 -20.534 -19.535  0.00  0.00    -0.229 NA
ATOM     11  C   UNL     1      35.079 -17.790 -21.797  0.00  0.00    +0.091 C 
ATOM     12  C   UNL     1      34.491 -18.844 -21.048  0.00  0.00    +0.043 C 
ATOM     13  C   UNL     1      35.525 -19.479 -20.367  0.00  0.00    +0.133 C 
ATOM     14  C   UNL     1      36.435 -17.812 -21.552  0.00  0.00    +0.074 C 
ATOM     15  C   UNL     1      33.191 -19.343 -20.863  0.00  0.00    +0.005 C 
ATOM     16  C   UNL     1      33.030 -20.436 -20.013  0.00  0.00    +0.021 C 
ATOM     17  C   UNL     1      34.151 -20.973 -19.395  0.00  0.00    +0.100 C 
ATOM     18  H   UNL     1      37.585 -19.083 -20.341  0.00  0.00    +0.154 HD
ENDBRANCH   6  11
BRANCH   1  19
ATOM     19  C   UNL     1      33.094 -13.236 -21.059  0.00  0.00    +0.125 C 
ATOM     20  C   UNL     1      34.519 -12.719 -20.811  0.00  0.00    +0.029 C 
BRANCH  19  23
ATOM     21  O   UNL     1      31.927 -11.600 -19.690  0.00  0.00    -0.273 OA
ATOM     22  N   UNL     1      31.356 -11.735 -21.925  0.00  0.00    -0.296 N 
ATOM     23  C   UNL     1      32.078 -12.111 -20.801  0.00  0.00    +0.238 C 
ATOM     24  H   UNL     1      31.533 -12.191 -22.779  0.00  0.00    +0.150 HD
BRANCH  22  25
ATOM     25  C   UNL     1      30.354 -10.696 -21.881  0.00  0.00    +0.194 C 
BRANCH  25  29
ATOM     26  F   UNL     1      31.192  -8.723 -20.916  0.00  0.00    -0.168 F 
ATOM     27  F   UNL     1      32.136  -9.413 -22.756  0.00  0.00    -0.168 F 
ATOM     28  F   UNL     1      30.135  -8.536 -22.814  0.00  0.00    -0.168 F 
ATOM     29  C   UNL     1      30.959  -9.332 -22.100  0.00  0.00    +0.415 C 
ENDBRANCH  25  29
ENDBRANCH  22  25
ENDBRANCH  19  23
BRANCH  19  30
ATOM     30  C   UNL     1      32.822 -14.481 -20.189  0.00  0.00    +0.027 C 
ATOM     31  C   UNL     1      31.517 -14.423 -19.399  0.00  0.00    +0.002 C 
ENDBRANCH  19  30
ENDBRANCH   1  19
TORSDOF 6
ENDMDL
MODEL 7
REMARK VINA RESULT:      -9.5     10.830     14.442
REMARK  Name = 59422203
REMARK  6 active torsions:
REMARK  status: ('A' for Active; 'I' for Inactive)
REMARK    1  A    between atoms: N_1  and  C_19
REMARK    2  A    between atoms: C_6  and  C_11
REMARK    3  A    between atoms: C_19  and  C_23
REMARK    4  A    between atoms: C_19  and  C_30
REMARK    5  A    between atoms: N_22  and  C_25
REMARK    6  A    between atoms: C_25  and  C_29
REMARK                            x       y       z     vdW  Elec       q    Type
REMARK                         _______ _______ _______ _____ _____    ______ ____
ROOT
ATOM      1  N   UNL     1      32.523 -11.866 -22.882  0.00  0.00    -0.303 N 
ATOM      2  N   UNL     1      32.984 -14.087 -23.495  0.00  0.00    -0.336 NA
ATOM      3  N   UNL     1      33.179 -14.653 -25.829  0.00  0.00    -0.182 NA
ATOM      4  C   UNL     1      32.744 -12.811 -23.862  0.00  0.00    +0.193 C 
ATOM      5  C   UNL     1      32.708 -12.385 -25.175  0.00  0.00    +0.070 C 
ATOM      6  C   UNL     1      33.189 -14.943 -24.514  0.00  0.00    +0.090 C 
ATOM      7  C   UNL     1      32.935 -13.360 -26.125  0.00  0.00    +0.115 C 
ATOM      8  H   UNL     1      32.350 -10.938 -23.159  0.00  0.00    +0.150 HD
ENDROOT
BRANCH   6  11
ATOM      9  N   UNL     1      33.453 -18.525 -24.354  0.00  0.00    -0.296 N 
ATOM     10  N   UNL     1      34.571 -19.149 -22.312  0.00  0.00    -0.229 NA
ATOM     11  C   UNL     1      33.446 -16.308 -24.162  0.00  0.00    +0.091 C 
ATOM     12  C   UNL     1      34.084 -16.851 -23.015  0.00  0.00    +0.043 C 
ATOM     13  C   UNL     1      34.071 -18.235 -23.166  0.00  0.00    +0.133 C 
ATOM     14  C   UNL     1      33.070 -17.362 -24.968  0.00  0.00    +0.074 C 
ATOM     15  C   UNL     1      34.677 -16.332 -21.854  0.00  0.00    +0.005 C 
ATOM     16  C   UNL     1      35.210 -17.235 -20.936  0.00  0.00    +0.021 C 
ATOM     17  C   UNL     1      35.129 -18.594 -21.212  0.00  0.00    +0.100 C 
ATOM     18  H   UNL     1      33.307 -19.431 -24.711  0.00  0.00    +0.154 HD
ENDBRANCH   6  11
BRANCH   1  19
ATOM     19  C   UNL     1      32.532 -12.174 -21.460  0.00  0.00    +0.125 C 
ATOM     20  C   UNL     1      33.997 -12.390 -21.052  0.00  0.00    +0.029 C 
BRANCH  19  23
ATOM     21  O   UNL     1      31.724 -10.992 -19.495  0.00  0.00    -0.273 OA
ATOM     22  N   UNL     1      31.710  -9.862 -21.510  0.00  0.00    -0.296 N 
ATOM     23  C   UNL     1      31.952 -10.966 -20.705  0.00  0.00    +0.238 C 
ATOM     24  H   UNL     1      31.918  -9.918 -22.470  0.00  0.00    +0.150 HD
BRANCH  22  25
ATOM     25  C   UNL     1      31.165  -8.633 -20.984  0.00  0.00    +0.194 C 
BRANCH  25  29
ATOM     26  F   UNL     1      31.367  -6.398 -21.685  0.00  0.00    -0.168 F 
ATOM     27  F   UNL     1      32.735  -7.084 -20.132  0.00  0.00    -0.168 F 
ATOM     28  F   UNL     1      32.994  -7.757 -22.195  0.00  0.00    -0.168 F 
ATOM     29  C   UNL     1      32.078  -7.462 -21.249  0.00  0.00    +0.415 C 
ENDBRANCH  25  29
ENDBRANCH  22  25
ENDBRANCH  19  23
BRANCH  19  30
ATOM     30  C   UNL     1      31.718 -13.462 -21.215  0.00  0.00    +0.027 C 
ATOM     31  C   UNL     1      32.110 -14.224 -19.953  0.00  0.00    +0.002 C 
ENDBRANCH  19  30
ENDBRANCH   1  19
TORSDOF 6
ENDMDL
MODEL 8
REMARK VINA RESULT:      -9.4     14.624     18.193
REMARK  Name = 59422203
REMARK  6 active torsions:
REMARK  status: ('A' for Active; 'I' for Inactive)
REMARK    1  A    between atoms: N_1  and  C_19
REMARK    2  A    between atoms: C_6  and  C_11
REMARK    3  A    between atoms: C_19  and  C_23
REMARK    4  A    between atoms: C_19  and  C_30
REMARK    5  A    between atoms: N_22  and  C_25
REMARK    6  A    between atoms: C_25  and  C_29
REMARK                            x       y       z     vdW  Elec       q    Type
REMARK                         _______ _______ _______ _____ _____    ______ ____
ROOT
ATOM      1  N   UNL     1      31.150  -7.444 -21.472  0.00  0.00    -0.303 N 
ATOM      2  N   UNL     1      31.832  -9.643 -21.943  0.00  0.00    -0.336 NA
ATOM      3  N   UNL     1      31.782 -11.296 -20.190  0.00  0.00    -0.182 NA
ATOM      4  C   UNL     1      31.367  -8.741 -21.054  0.00  0.00    +0.193 C 
ATOM      5  C   UNL     1      31.089  -9.037 -19.734  0.00  0.00    +0.070 C 
ATOM      6  C   UNL     1      32.015 -10.883 -21.451  0.00  0.00    +0.090 C 
ATOM      7  C   UNL     1      31.318 -10.344 -19.355  0.00  0.00    +0.115 C 
ATOM      8  H   UNL     1      30.810  -6.792 -20.818  0.00  0.00    +0.150 HD
ENDROOT
BRANCH   6  11
ATOM      9  N   UNL     1      32.980 -12.820 -24.322  0.00  0.00    -0.296 N 
ATOM     10  N   UNL     1      34.006 -14.873 -23.587  0.00  0.00    -0.229 NA
ATOM     11  C   UNL     1      32.508 -11.869 -22.366  0.00  0.00    +0.091 C 
ATOM     12  C   UNL     1      33.133 -13.119 -22.113  0.00  0.00    +0.043 C 
ATOM     13  C   UNL     1      33.413 -13.686 -23.352  0.00  0.00    +0.133 C 
ATOM     14  C   UNL     1      32.429 -11.712 -23.734  0.00  0.00    +0.074 C 
ATOM     15  C   UNL     1      33.498 -13.847 -20.970  0.00  0.00    +0.005 C 
ATOM     16  C   UNL     1      34.114 -15.083 -21.156  0.00  0.00    +0.021 C 
ATOM     17  C   UNL     1      34.335 -15.531 -22.451  0.00  0.00    +0.100 C 
ATOM     18  H   UNL     1      33.054 -12.971 -25.292  0.00  0.00    +0.154 HD
ENDBRANCH   6  11
BRANCH   1  19
ATOM     19  C   UNL     1      31.400  -6.992 -22.833  0.00  0.00    +0.125 C 
ATOM     20  C   UNL     1      30.501  -7.825 -23.759  0.00  0.00    +0.029 C 
BRANCH  19  23
ATOM     21  O   UNL     1      30.690  -4.849 -21.931  0.00  0.00    -0.273 OA
ATOM     22  N   UNL     1      31.052  -4.989 -24.209  0.00  0.00    -0.296 N 
ATOM     23  C   UNL     1      31.010  -5.507 -22.922  0.00  0.00    +0.238 C 
ATOM     24  H   UNL     1      31.318  -5.579 -24.951  0.00  0.00    +0.150 HD
BRANCH  22  25
ATOM     25  C   UNL     1      30.719  -3.613 -24.494  0.00  0.00    +0.194 C 
BRANCH  25  29
ATOM     26  F   UNL     1      33.064  -3.480 -24.407  0.00  0.00    -0.168 F 
ATOM     27  F   UNL     1      32.021  -1.969 -25.583  0.00  0.00    -0.168 F 
ATOM     28  F   UNL     1      31.936  -1.910 -23.400  0.00  0.00    -0.168 F 
ATOM     29  C   UNL     1      31.941  -2.730 -24.471  0.00  0.00    +0.415 C 
ENDBRANCH  25  29
ENDBRANCH  22  25
ENDBRANCH  19  23
BRANCH  19  30
ATOM     30  C   UNL     1      32.885  -7.229 -23.180  0.00  0.00    +0.027 C 
ATOM     31  C   UNL     1      33.853  -6.274 -22.487  0.00  0.00    +0.002 C 
ENDBRANCH  19  30
ENDBRANCH   1  19
TORSDOF 6
ENDMDL
MODEL 9
REMARK VINA RESULT:      -9.0     11.274     15.249
REMARK  Name = 59422203
REMARK  6 active torsions:
REMARK  status: ('A' for Active; 'I' for Inactive)
REMARK    1  A    between atoms: N_1  and  C_19
REMARK    2  A    between atoms: C_6  and  C_11
REMARK    3  A    between atoms: C_19  and  C_23
REMARK    4  A    between atoms: C_19  and  C_30
REMARK    5  A    between atoms: N_22  and  C_25
REMARK    6  A    between atoms: C_25  and  C_29
REMARK                            x       y       z     vdW  Elec       q    Type
REMARK                         _______ _______ _______ _____ _____    ______ ____
ROOT
ATOM      1  N   UNL     1      32.226 -11.342 -24.095  0.00  0.00    -0.303 N 
ATOM      2  N   UNL     1      33.075 -13.399 -23.340  0.00  0.00    -0.336 NA
ATOM      3  N   UNL     1      33.547 -15.140 -24.937  0.00  0.00    -0.182 NA
ATOM      4  C   UNL     1      32.671 -12.619 -24.365  0.00  0.00    +0.193 C 
ATOM      5  C   UNL     1      32.677 -13.024 -25.685  0.00  0.00    +0.070 C 
ATOM      6  C   UNL     1      33.494 -14.629 -23.692  0.00  0.00    +0.090 C 
ATOM      7  C   UNL     1      33.130 -14.307 -25.913  0.00  0.00    +0.115 C 
ATOM      8  H   UNL     1      31.934 -10.780 -24.848  0.00  0.00    +0.150 HD
ENDROOT
BRANCH   6  11
ATOM      9  N   UNL     1      34.576 -16.075 -20.583  0.00  0.00    -0.296 N 
ATOM     10  N   UNL     1      34.943 -18.436 -20.891  0.00  0.00    -0.229 NA
ATOM     11  C   UNL     1      33.931 -15.485 -22.630  0.00  0.00    +0.091 C 
ATOM     12  C   UNL     1      34.194 -16.881 -22.631  0.00  0.00    +0.043 C 
ATOM     13  C   UNL     1      34.595 -17.216 -21.342  0.00  0.00    +0.133 C 
ATOM     14  C   UNL     1      34.173 -15.017 -21.356  0.00  0.00    +0.074 C 
ATOM     15  C   UNL     1      34.141 -17.913 -23.582  0.00  0.00    +0.005 C 
ATOM     16  C   UNL     1      34.493 -19.196 -23.167  0.00  0.00    +0.021 C 
ATOM     17  C   UNL     1      34.875 -19.391 -21.847  0.00  0.00    +0.100 C 
ATOM     18  H   UNL     1      34.816 -16.023 -19.630  0.00  0.00    +0.154 HD
ENDBRANCH   6  11
BRANCH   1  19
ATOM     19  C   UNL     1      32.166 -10.784 -22.752  0.00  0.00    +0.125 C 
ATOM     20  C   UNL     1      33.570 -10.917 -22.143  0.00  0.00    +0.029 C 
BRANCH  19  23
ATOM     21  O   UNL     1      30.635  -8.897 -22.677  0.00  0.00    -0.273 OA
ATOM     22  N   UNL     1      32.843  -8.469 -23.205  0.00  0.00    -0.296 N 
ATOM     23  C   UNL     1      31.784  -9.299 -22.867  0.00  0.00    +0.238 C 
ATOM     24  H   UNL     1      33.734  -8.865 -23.342  0.00  0.00    +0.150 HD
BRANCH  22  25
ATOM     25  C   UNL     1      32.681  -7.043 -23.361  0.00  0.00    +0.194 C 
BRANCH  25  29
ATOM     26  F   UNL     1      34.612  -6.257 -22.275  0.00  0.00    -0.168 F 
ATOM     27  F   UNL     1      32.828  -5.010 -22.165  0.00  0.00    -0.168 F 
ATOM     28  F   UNL     1      32.938  -6.868 -21.019  0.00  0.00    -0.168 F 
ATOM     29  C   UNL     1      33.263  -6.287 -22.193  0.00  0.00    +0.415 C 
ENDBRANCH  25  29
ENDBRANCH  22  25
ENDBRANCH  19  23
BRANCH  19  30
ATOM     30  C   UNL     1      31.146 -11.587 -21.916  0.00  0.00    +0.027 C 
ATOM     31  C   UNL     1      31.632 -11.958 -20.518  0.00  0.00    +0.002 C 
ENDBRANCH  19  30
ENDBRANCH   1  19
TORSDOF 6
ENDMDL
