MODEL 1
REMARK VINA RESULT:     -12.7      0.000      0.000
REMARK  Name = 24901696
REMARK  4 active torsions:
REMARK  status: ('A' for Active; 'I' for Inactive)
REMARK    1  A    between atoms: C_5  and  C_16
REMARK    2  A    between atoms: C_7  and  C_10
REMARK    3  A    between atoms: C_16  and  C_17
REMARK    4  A    between atoms: C_22  and  O_23
REMARK                            x       y       z     vdW  Elec       q    Type
REMARK                         _______ _______ _______ _____ _____    ______ ____
ROOT
ATOM      1  N   UNL     1      34.101 -16.631 -22.941  0.00  0.00    -0.195 N 
ATOM      2  N   UNL     1      34.247 -17.381 -21.820  0.00  0.00    -0.163 NA
ATOM      3  N   UNL     1      33.904 -14.900 -24.272  0.00  0.00    -0.131 NA
ATOM      4  N   UNL     1      33.837 -16.045 -25.041  0.00  0.00    -0.127 NA
ATOM      5  C   UNL     1      34.063 -15.270 -23.021  0.00  0.00    +0.168 A 
ATOM      6  C   UNL     1      33.956 -17.078 -24.234  0.00  0.00    +0.186 A 
ATOM      7  C   UNL     1      34.240 -18.665 -22.041  0.00  0.00    +0.101 C 
ATOM      8  C   UNL     1      33.969 -18.471 -24.445  0.00  0.00    +0.042 C 
ATOM      9  C   UNL     1      34.109 -19.292 -23.395  0.00  0.00    +0.024 C 
ENDROOT
BRANCH   7  10
ATOM     10  C   UNL     1      34.386 -19.594 -20.890  0.00  0.00    +0.019 C 
ATOM     11  C   UNL     1      35.655 -19.909 -20.404  0.00  0.00    +0.002 C 
ATOM     12  C   UNL     1      33.253 -20.150 -20.294  0.00  0.00    +0.002 C 
ATOM     13  C   UNL     1      35.792 -20.781 -19.324  0.00  0.00    +0.000 C 
ATOM     14  C   UNL     1      33.390 -21.022 -19.215  0.00  0.00    +0.000 C 
ATOM     15  C   UNL     1      34.660 -21.337 -18.728  0.00  0.00    +0.000 C 
ENDBRANCH   7  10
BRANCH   5  16
ATOM     16  C   UNL     1      34.186 -14.391 -21.843  0.00  0.00    +0.094 C 
BRANCH  16  17
ATOM     17  C   UNL     1      33.235 -13.203 -21.839  0.00  0.00    -0.014 C 
ATOM     18  C   UNL     1      33.318 -12.239 -22.843  0.00  0.00    -0.001 C 
ATOM     19  C   UNL     1      32.281 -13.078 -20.829  0.00  0.00    -0.001 C 
ATOM     20  C   UNL     1      32.446 -11.149 -22.837  0.00  0.00    +0.036 C 
ATOM     21  C   UNL     1      31.410 -11.989 -20.823  0.00  0.00    +0.036 C 
ATOM     22  C   UNL     1      31.493 -11.025 -21.827  0.00  0.00    +0.134 C 
BRANCH  22  23
ATOM     23  O   UNL     1      30.643  -9.961 -21.822  0.00  0.00    -0.506 OA
ATOM     24  H   UNL     1      30.590  -9.407 -21.069  0.00  0.00    +0.292 HD
ENDBRANCH  22  23
ENDBRANCH  16  17
ENDBRANCH   5  16
TORSDOF 4
ENDMDL
MODEL 2
REMARK VINA RESULT:     -11.8      4.965      7.958
REMARK  Name = 24901696
REMARK  4 active torsions:
REMARK  status: ('A' for Active; 'I' for Inactive)
REMARK    1  A    between atoms: C_5  and  C_16
REMARK    2  A    between atoms: C_7  and  C_10
REMARK    3  A    between atoms: C_16  and  C_17
REMARK    4  A    between atoms: C_22  and  O_23
REMARK                            x       y       z     vdW  Elec       q    Type
REMARK                         _______ _______ _______ _____ _____    ______ ____
ROOT
ATOM      1  N   UNL     1      33.669 -22.227 -17.535  0.00  0.00    -0.195 N 
ATOM      2  N   UNL     1      34.700 -22.664 -16.769  0.00  0.00    -0.163 NA
ATOM      3  N   UNL     1      32.542 -21.366 -19.206  0.00  0.00    -0.131 NA
ATOM      4  N   UNL     1      31.643 -21.730 -18.223  0.00  0.00    -0.127 NA
ATOM      5  C   UNL     1      33.746 -21.671 -18.778  0.00  0.00    +0.168 A 
ATOM      6  C   UNL     1      32.329 -22.246 -17.225  0.00  0.00    +0.186 A 
ATOM      7  C   UNL     1      34.332 -23.144 -15.615  0.00  0.00    +0.101 C 
ATOM      8  C   UNL     1      31.959 -22.786 -15.977  0.00  0.00    +0.042 C 
ATOM      9  C   UNL     1      32.911 -23.243 -15.152  0.00  0.00    +0.024 C 
ENDROOT
BRANCH   7  10
ATOM     10  C   UNL     1      35.372 -23.650 -14.682  0.00  0.00    +0.019 C 
ATOM     11  C   UNL     1      35.716 -25.002 -14.686  0.00  0.00    +0.002 C 
ATOM     12  C   UNL     1      36.007 -22.772 -13.802  0.00  0.00    +0.002 C 
ATOM     13  C   UNL     1      36.692 -25.477 -13.809  0.00  0.00    +0.000 C 
ATOM     14  C   UNL     1      36.982 -23.247 -12.926  0.00  0.00    +0.000 C 
ATOM     15  C   UNL     1      37.326 -24.599 -12.930  0.00  0.00    +0.000 C 
ENDBRANCH   7  10
BRANCH   5  16
ATOM     16  C   UNL     1      35.020 -21.467 -19.490  0.00  0.00    +0.094 C 
BRANCH  16  17
ATOM     17  C   UNL     1      35.088 -20.186 -20.310  0.00  0.00    -0.014 C 
ATOM     18  C   UNL     1      33.993 -19.790 -21.077  0.00  0.00    -0.001 C 
ATOM     19  C   UNL     1      36.247 -19.409 -20.296  0.00  0.00    -0.001 C 
ATOM     20  C   UNL     1      34.056 -18.616 -21.829  0.00  0.00    +0.036 C 
ATOM     21  C   UNL     1      36.310 -18.236 -21.047  0.00  0.00    +0.036 C 
ATOM     22  C   UNL     1      35.215 -17.840 -21.814  0.00  0.00    +0.134 C 
BRANCH  22  23
ATOM     23  O   UNL     1      35.276 -16.695 -22.548  0.00  0.00    -0.506 OA
ATOM     24  H   UNL     1      35.075 -16.713 -23.463  0.00  0.00    +0.292 HD
ENDBRANCH  22  23
ENDBRANCH  16  17
ENDBRANCH   5  16
TORSDOF 4
ENDMDL
MODEL 3
REMARK VINA RESULT:     -11.6      3.024      7.686
REMARK  Name = 24901696
REMARK  4 active torsions:
REMARK  status: ('A' for Active; 'I' for Inactive)
REMARK    1  A    between atoms: C_5  and  C_16
REMARK    2  A    between atoms: C_7  and  C_10
REMARK    3  A    between atoms: C_16  and  C_17
REMARK    4  A    between atoms: C_22  and  O_23
REMARK                            x       y       z     vdW  Elec       q    Type
REMARK                         _______ _______ _______ _____ _____    ______ ____
ROOT
ATOM      1  N   UNL     1      33.671 -14.853 -23.300  0.00  0.00    -0.195 N 
ATOM      2  N   UNL     1      33.250 -13.792 -22.569  0.00  0.00    -0.163 NA
ATOM      3  N   UNL     1      34.558 -16.785 -23.838  0.00  0.00    -0.131 NA
ATOM      4  N   UNL     1      34.095 -16.187 -24.994  0.00  0.00    -0.127 NA
ATOM      5  C   UNL     1      34.295 -15.975 -22.838  0.00  0.00    +0.168 A 
ATOM      6  C   UNL     1      33.565 -15.029 -24.661  0.00  0.00    +0.186 A 
ATOM      7  C   UNL     1      32.691 -12.853 -23.278  0.00  0.00    +0.101 C 
ATOM      8  C   UNL     1      32.941 -14.004 -25.400  0.00  0.00    +0.042 C 
ATOM      9  C   UNL     1      32.492 -12.915 -24.762  0.00  0.00    +0.024 C 
ENDROOT
BRANCH   7  10
ATOM     10  C   UNL     1      32.192 -11.632 -22.592  0.00  0.00    +0.019 C 
ATOM     11  C   UNL     1      32.373 -10.379 -23.177  0.00  0.00    +0.002 C 
ATOM     12  C   UNL     1      31.541 -11.741 -21.363  0.00  0.00    +0.002 C 
ATOM     13  C   UNL     1      31.905  -9.234 -22.533  0.00  0.00    +0.000 C 
ATOM     14  C   UNL     1      31.073 -10.596 -20.719  0.00  0.00    +0.000 C 
ATOM     15  C   UNL     1      31.254  -9.342 -21.304  0.00  0.00    +0.000 C 
ENDBRANCH   7  10
BRANCH   5  16
ATOM     16  C   UNL     1      34.604 -16.194 -21.413  0.00  0.00    +0.094 C 
BRANCH  16  17
ATOM     17  C   UNL     1      34.775 -17.655 -21.020  0.00  0.00    -0.014 C 
ATOM     18  C   UNL     1      33.657 -18.479 -20.897  0.00  0.00    -0.001 C 
ATOM     19  C   UNL     1      36.050 -18.167 -20.780  0.00  0.00    -0.001 C 
ATOM     20  C   UNL     1      33.814 -19.818 -20.536  0.00  0.00    +0.036 C 
ATOM     21  C   UNL     1      36.207 -19.505 -20.419  0.00  0.00    +0.036 C 
ATOM     22  C   UNL     1      35.090 -20.330 -20.297  0.00  0.00    +0.134 C 
BRANCH  22  23
ATOM     23  O   UNL     1      35.242 -21.636 -19.944  0.00  0.00    -0.506 OA
ATOM     24  H   UNL     1      34.562 -22.078 -19.476  0.00  0.00    +0.292 HD
ENDBRANCH  22  23
ENDBRANCH  16  17
ENDBRANCH   5  16
TORSDOF 4
ENDMDL
MODEL 4
REMARK VINA RESULT:     -11.4      5.583     10.481
REMARK  Name = 24901696
REMARK  4 active torsions:
REMARK  status: ('A' for Active; 'I' for Inactive)
REMARK    1  A    between atoms: C_5  and  C_16
REMARK    2  A    between atoms: C_7  and  C_10
REMARK    3  A    between atoms: C_16  and  C_17
REMARK    4  A    between atoms: C_22  and  O_23
REMARK                            x       y       z     vdW  Elec       q    Type
REMARK                         _______ _______ _______ _____ _____    ______ ____
ROOT
ATOM      1  N   UNL     1      31.633  -8.550 -21.014  0.00  0.00    -0.195 N 
ATOM      2  N   UNL     1      31.824  -8.222 -22.316  0.00  0.00    -0.163 NA
ATOM      3  N   UNL     1      31.068  -9.666 -19.214  0.00  0.00    -0.131 NA
ATOM      4  N   UNL     1      31.595  -8.453 -18.820  0.00  0.00    -0.127 NA
ATOM      5  C   UNL     1      31.100  -9.707 -20.527  0.00  0.00    +0.168 A 
ATOM      6  C   UNL     1      31.932  -7.790 -19.907  0.00  0.00    +0.186 A 
ATOM      7  C   UNL     1      32.348  -7.043 -22.491  0.00  0.00    +0.101 C 
ATOM      8  C   UNL     1      32.514  -6.526 -20.126  0.00  0.00    +0.042 C 
ATOM      9  C   UNL     1      32.740  -6.116 -21.381  0.00  0.00    +0.024 C 
ENDROOT
BRANCH   7  10
ATOM     10  C   UNL     1      32.601  -6.565 -23.876  0.00  0.00    +0.019 C 
ATOM     11  C   UNL     1      31.560  -6.528 -24.803  0.00  0.00    +0.002 C 
ATOM     12  C   UNL     1      33.881  -6.151 -24.247  0.00  0.00    +0.002 C 
ATOM     13  C   UNL     1      31.798  -6.080 -26.102  0.00  0.00    +0.000 C 
ATOM     14  C   UNL     1      34.118  -5.703 -25.546  0.00  0.00    +0.000 C 
ATOM     15  C   UNL     1      33.076  -5.666 -26.474  0.00  0.00    +0.000 C 
ENDBRANCH   7  10
BRANCH   5  16
ATOM     16  C   UNL     1      30.641 -10.809 -21.393  0.00  0.00    +0.094 C 
BRANCH  16  17
ATOM     17  C   UNL     1      31.698 -11.865 -21.685  0.00  0.00    -0.014 C 
ATOM     18  C   UNL     1      32.386 -11.847 -22.898  0.00  0.00    -0.001 C 
ATOM     19  C   UNL     1      31.977 -12.852 -20.740  0.00  0.00    -0.001 C 
ATOM     20  C   UNL     1      33.354 -12.816 -23.166  0.00  0.00    +0.036 C 
ATOM     21  C   UNL     1      32.944 -13.821 -21.008  0.00  0.00    +0.036 C 
ATOM     22  C   UNL     1      33.632 -13.803 -22.221  0.00  0.00    +0.134 C 
BRANCH  22  23
ATOM     23  O   UNL     1      34.576 -14.748 -22.483  0.00  0.00    -0.506 OA
ATOM     24  H   UNL     1      35.057 -15.137 -21.780  0.00  0.00    +0.292 HD
ENDBRANCH  22  23
ENDBRANCH  16  17
ENDBRANCH   5  16
TORSDOF 4
ENDMDL
MODEL 5
REMARK VINA RESULT:     -11.3      6.293      9.324
REMARK  Name = 24901696
REMARK  4 active torsions:
REMARK  status: ('A' for Active; 'I' for Inactive)
REMARK    1  A    between atoms: C_5  and  C_16
REMARK    2  A    between atoms: C_7  and  C_10
REMARK    3  A    between atoms: C_16  and  C_17
REMARK    4  A    between atoms: C_22  and  O_23
REMARK                            x       y       z     vdW  Elec       q    Type
REMARK                         _______ _______ _______ _____ _____    ______ ____
ROOT
ATOM      1  N   UNL     1      33.213 -23.135 -16.123  0.00  0.00    -0.195 N 
ATOM      2  N   UNL     1      34.467 -23.581 -15.867  0.00  0.00    -0.163 NA
ATOM      3  N   UNL     1      31.432 -22.446 -17.201  0.00  0.00    -0.131 NA
ATOM      4  N   UNL     1      31.146 -22.441 -15.851  0.00  0.00    -0.127 NA
ATOM      5  C   UNL     1      32.670 -22.864 -17.345  0.00  0.00    +0.168 A 
ATOM      6  C   UNL     1      32.220 -22.856 -15.212  0.00  0.00    +0.186 A 
ATOM      7  C   UNL     1      34.719 -23.746 -14.600  0.00  0.00    +0.101 C 
ATOM      8  C   UNL     1      32.515 -23.059 -13.849  0.00  0.00    +0.042 C 
ATOM      9  C   UNL     1      33.731 -23.499 -13.499  0.00  0.00    +0.024 C 
ENDROOT
BRANCH   7  10
ATOM     10  C   UNL     1      36.064 -24.227 -14.189  0.00  0.00    +0.019 C 
ATOM     11  C   UNL     1      37.201 -23.778 -14.860  0.00  0.00    +0.002 C 
ATOM     12  C   UNL     1      36.189 -25.126 -13.129  0.00  0.00    +0.002 C 
ATOM     13  C   UNL     1      38.463 -24.229 -14.474  0.00  0.00    +0.000 C 
ATOM     14  C   UNL     1      37.451 -25.577 -12.744  0.00  0.00    +0.000 C 
ATOM     15  C   UNL     1      38.589 -25.128 -13.416  0.00  0.00    +0.000 C 
ENDBRANCH   7  10
BRANCH   5  16
ATOM     16  C   UNL     1      33.409 -23.034 -18.609  0.00  0.00    +0.094 C 
BRANCH  16  17
ATOM     17  C   UNL     1      33.875 -21.734 -19.249  0.00  0.00    -0.014 C 
ATOM     18  C   UNL     1      32.951 -20.885 -19.858  0.00  0.00    -0.001 C 
ATOM     19  C   UNL     1      35.227 -21.392 -19.227  0.00  0.00    -0.001 C 
ATOM     20  C   UNL     1      33.380 -19.694 -20.445  0.00  0.00    +0.036 C 
ATOM     21  C   UNL     1      35.656 -20.201 -19.813  0.00  0.00    +0.036 C 
ATOM     22  C   UNL     1      34.732 -19.353 -20.423  0.00  0.00    +0.134 C 
BRANCH  22  23
ATOM     23  O   UNL     1      35.149 -18.190 -20.995  0.00  0.00    -0.506 OA
ATOM     24  H   UNL     1      35.349 -18.163 -21.910  0.00  0.00    +0.292 HD
ENDBRANCH  22  23
ENDBRANCH  16  17
ENDBRANCH   5  16
TORSDOF 4
ENDMDL
MODEL 6
REMARK VINA RESULT:     -11.3      5.557      8.575
REMARK  Name = 24901696
REMARK  4 active torsions:
REMARK  status: ('A' for Active; 'I' for Inactive)
REMARK    1  A    between atoms: C_5  and  C_16
REMARK    2  A    between atoms: C_7  and  C_10
REMARK    3  A    between atoms: C_16  and  C_17
REMARK    4  A    between atoms: C_22  and  O_23
REMARK                            x       y       z     vdW  Elec       q    Type
REMARK                         _______ _______ _______ _____ _____    ______ ____
ROOT
ATOM      1  N   UNL     1      34.018 -22.343 -16.760  0.00  0.00    -0.195 N 
ATOM      2  N   UNL     1      32.705 -22.672 -16.680  0.00  0.00    -0.163 NA
ATOM      3  N   UNL     1      35.955 -21.701 -17.562  0.00  0.00    -0.131 NA
ATOM      4  N   UNL     1      36.117 -21.983 -16.221  0.00  0.00    -0.127 NA
ATOM      5  C   UNL     1      34.695 -21.921 -17.866  0.00  0.00    +0.168 A 
ATOM      6  C   UNL     1      34.950 -22.367 -15.748  0.00  0.00    +0.186 A 
ATOM      7  C   UNL     1      32.328 -23.052 -15.493  0.00  0.00    +0.101 C 
ATOM      8  C   UNL     1      34.510 -22.766 -14.470  0.00  0.00    +0.042 C 
ATOM      9  C   UNL     1      33.227 -23.110 -14.295  0.00  0.00    +0.024 C 
ENDROOT
BRANCH   7  10
ATOM     10  C   UNL     1      30.910 -23.445 -15.279  0.00  0.00    +0.019 C 
ATOM     11  C   UNL     1      30.598 -24.482 -14.401  0.00  0.00    +0.002 C 
ATOM     12  C   UNL     1      29.891 -22.773 -15.956  0.00  0.00    +0.002 C 
ATOM     13  C   UNL     1      29.268 -24.850 -14.201  0.00  0.00    +0.000 C 
ATOM     14  C   UNL     1      28.561 -23.141 -15.755  0.00  0.00    +0.000 C 
ATOM     15  C   UNL     1      28.249 -24.179 -14.876  0.00  0.00    +0.000 C 
ENDBRANCH   7  10
BRANCH   5  16
ATOM     16  C   UNL     1      34.057 -21.753 -19.184  0.00  0.00    +0.094 C 
BRANCH  16  17
ATOM     17  C   UNL     1      34.528 -20.534 -19.965  0.00  0.00    -0.014 C 
ATOM     18  C   UNL     1      33.613 -19.779 -20.698  0.00  0.00    -0.001 C 
ATOM     19  C   UNL     1      35.875 -20.174 -19.948  0.00  0.00    -0.001 C 
ATOM     20  C   UNL     1      34.045 -18.661 -21.414  0.00  0.00    +0.036 C 
ATOM     21  C   UNL     1      36.308 -19.057 -20.664  0.00  0.00    +0.036 C 
ATOM     22  C   UNL     1      35.393 -18.302 -21.397  0.00  0.00    +0.134 C 
BRANCH  22  23
ATOM     23  O   UNL     1      35.814 -17.212 -22.095  0.00  0.00    -0.506 OA
ATOM     24  H   UNL     1      35.382 -16.969 -22.890  0.00  0.00    +0.292 HD
ENDBRANCH  22  23
ENDBRANCH  16  17
ENDBRANCH   5  16
TORSDOF 4
ENDMDL
MODEL 7
REMARK VINA RESULT:     -10.8      3.953      9.608
REMARK  Name = 24901696
REMARK  4 active torsions:
REMARK  status: ('A' for Active; 'I' for Inactive)
REMARK    1  A    between atoms: C_5  and  C_16
REMARK    2  A    between atoms: C_7  and  C_10
REMARK    3  A    between atoms: C_16  and  C_17
REMARK    4  A    between atoms: C_22  and  O_23
REMARK                            x       y       z     vdW  Elec       q    Type
REMARK                         _______ _______ _______ _____ _____    ______ ____
ROOT
ATOM      1  N   UNL     1      32.090 -11.033 -22.277  0.00  0.00    -0.195 N 
ATOM      2  N   UNL     1      32.392 -10.017 -23.123  0.00  0.00    -0.163 NA
ATOM      3  N   UNL     1      31.955 -13.039 -21.404  0.00  0.00    -0.131 NA
ATOM      4  N   UNL     1      31.299 -12.160 -20.566  0.00  0.00    -0.127 NA
ATOM      5  C   UNL     1      32.422 -12.348 -22.419  0.00  0.00    +0.168 A 
ATOM      6  C   UNL     1      31.385 -10.959 -21.098  0.00  0.00    +0.186 A 
ATOM      7  C   UNL     1      31.938  -8.858 -22.738  0.00  0.00    +0.101 C 
ATOM      8  C   UNL     1      30.921  -9.690 -20.697  0.00  0.00    +0.042 C 
ATOM      9  C   UNL     1      31.172  -8.626 -21.472  0.00  0.00    +0.024 C 
ENDROOT
BRANCH   7  10
ATOM     10  C   UNL     1      32.198  -7.665 -23.586  0.00  0.00    +0.019 C 
ATOM     11  C   UNL     1      33.478  -7.115 -23.642  0.00  0.00    +0.002 C 
ATOM     12  C   UNL     1      31.161  -7.097 -24.327  0.00  0.00    +0.002 C 
ATOM     13  C   UNL     1      33.722  -5.995 -24.438  0.00  0.00    +0.000 C 
ATOM     14  C   UNL     1      31.405  -5.977 -25.121  0.00  0.00    +0.000 C 
ATOM     15  C   UNL     1      32.686  -5.427 -25.178  0.00  0.00    +0.000 C 
ENDBRANCH   7  10
BRANCH   5  16
ATOM     16  C   UNL     1      33.193 -12.864 -23.565  0.00  0.00    +0.094 C 
BRANCH  16  17
ATOM     17  C   UNL     1      33.616 -14.321 -23.439  0.00  0.00    -0.014 C 
ATOM     18  C   UNL     1      34.218 -14.773 -22.265  0.00  0.00    -0.001 C 
ATOM     19  C   UNL     1      33.403 -15.203 -24.498  0.00  0.00    -0.001 C 
ATOM     20  C   UNL     1      34.607 -16.108 -22.150  0.00  0.00    +0.036 C 
ATOM     21  C   UNL     1      33.791 -16.537 -24.384  0.00  0.00    +0.036 C 
ATOM     22  C   UNL     1      34.393 -16.990 -23.210  0.00  0.00    +0.134 C 
BRANCH  22  23
ATOM     23  O   UNL     1      34.773 -18.292 -23.097  0.00  0.00    -0.506 OA
ATOM     24  H   UNL     1      34.537 -18.785 -22.336  0.00  0.00    +0.292 HD
ENDBRANCH  22  23
ENDBRANCH  16  17
ENDBRANCH   5  16
TORSDOF 4
ENDMDL
MODEL 8
REMARK VINA RESULT:     -10.6      8.710     11.679
REMARK  Name = 24901696
REMARK  4 active torsions:
REMARK  status: ('A' for Active; 'I' for Inactive)
REMARK    1  A    between atoms: C_5  and  C_16
REMARK    2  A    between atoms: C_7  and  C_10
REMARK    3  A    between atoms: C_16  and  C_17
REMARK    4  A    between atoms: C_22  and  O_23
REMARK                            x       y       z     vdW  Elec       q    Type
REMARK                         _______ _______ _______ _____ _____    ______ ____
ROOT
ATOM      1  N   UNL     1      34.748 -22.364 -16.156  0.00  0.00    -0.195 N 
ATOM      2  N   UNL     1      33.641 -22.777 -15.491  0.00  0.00    -0.163 NA
ATOM      3  N   UNL     1      36.826 -21.819 -16.595  0.00  0.00    -0.131 NA
ATOM      4  N   UNL     1      36.080 -21.631 -17.741  0.00  0.00    -0.127 NA
ATOM      5  C   UNL     1      36.015 -22.259 -15.659  0.00  0.00    +0.168 A 
ATOM      6  C   UNL     1      34.835 -21.960 -17.468  0.00  0.00    +0.186 A 
ATOM      7  C   UNL     1      32.559 -22.770 -16.215  0.00  0.00    +0.101 C 
ATOM      8  C   UNL     1      33.651 -21.979 -18.232  0.00  0.00    +0.042 C 
ATOM      9  C   UNL     1      32.506 -22.373 -17.659  0.00  0.00    +0.024 C 
ENDROOT
BRANCH   7  10
ATOM     10  C   UNL     1      31.276 -23.196 -15.597  0.00  0.00    +0.019 C 
ATOM     11  C   UNL     1      31.282 -24.057 -14.499  0.00  0.00    +0.002 C 
ATOM     12  C   UNL     1      30.065 -22.733 -16.113  0.00  0.00    +0.002 C 
ATOM     13  C   UNL     1      30.078 -24.457 -13.920  0.00  0.00    +0.000 C 
ATOM     14  C   UNL     1      28.862 -23.133 -15.534  0.00  0.00    +0.000 C 
ATOM     15  C   UNL     1      28.868 -23.995 -14.436  0.00  0.00    +0.000 C 
ENDBRANCH   7  10
BRANCH   5  16
ATOM     16  C   UNL     1      36.365 -22.601 -14.269  0.00  0.00    +0.094 C 
BRANCH  16  17
ATOM     17  C   UNL     1      37.508 -23.597 -14.131  0.00  0.00    -0.014 C 
ATOM     18  C   UNL     1      37.544 -24.471 -13.045  0.00  0.00    -0.001 C 
ATOM     19  C   UNL     1      38.520 -23.634 -15.090  0.00  0.00    -0.001 C 
ATOM     20  C   UNL     1      38.592 -25.383 -12.918  0.00  0.00    +0.036 C 
ATOM     21  C   UNL     1      39.568 -24.545 -14.964  0.00  0.00    +0.036 C 
ATOM     22  C   UNL     1      39.604 -25.419 -13.878  0.00  0.00    +0.134 C 
BRANCH  22  23
ATOM     23  O   UNL     1      40.627 -26.310 -13.754  0.00  0.00    -0.506 OA
ATOM     24  H   UNL     1      40.847 -26.657 -12.912  0.00  0.00    +0.292 HD
ENDBRANCH  22  23
ENDBRANCH  16  17
ENDBRANCH   5  16
TORSDOF 4
ENDMDL
MODEL 9
REMARK VINA RESULT:     -10.5      3.105      7.439
REMARK  Name = 24901696
REMARK  4 active torsions:
REMARK  status: ('A' for Active; 'I' for Inactive)
REMARK    1  A    between atoms: C_5  and  C_16
REMARK    2  A    between atoms: C_7  and  C_10
REMARK    3  A    between atoms: C_16  and  C_17
REMARK    4  A    between atoms: C_22  and  O_23
REMARK                            x       y       z     vdW  Elec       q    Type
REMARK                         _______ _______ _______ _____ _____    ______ ____
ROOT
ATOM      1  N   UNL     1      34.151 -17.315 -22.994  0.00  0.00    -0.195 N 
ATOM      2  N   UNL     1      33.939 -16.107 -22.415  0.00  0.00    -0.163 NA
ATOM      3  N   UNL     1      34.711 -19.416 -23.271  0.00  0.00    -0.131 NA
ATOM      4  N   UNL     1      34.257 -18.929 -24.480  0.00  0.00    -0.127 NA
ATOM      5  C   UNL     1      34.639 -18.439 -22.395  0.00  0.00    +0.168 A 
ATOM      6  C   UNL     1      33.923 -17.668 -24.304  0.00  0.00    +0.186 A 
ATOM      7  C   UNL     1      33.470 -15.207 -23.232  0.00  0.00    +0.101 C 
ATOM      8  C   UNL     1      33.399 -16.678 -25.160  0.00  0.00    +0.042 C 
ATOM      9  C   UNL     1      33.158 -15.453 -24.677  0.00  0.00    +0.024 C 
ENDROOT
BRANCH   7  10
ATOM     10  C   UNL     1      33.201 -13.838 -22.718  0.00  0.00    +0.019 C 
ATOM     11  C   UNL     1      33.309 -12.739 -23.570  0.00  0.00    +0.002 C 
ATOM     12  C   UNL     1      32.839 -13.653 -21.383  0.00  0.00    +0.002 C 
ATOM     13  C   UNL     1      33.057 -11.455 -23.087  0.00  0.00    +0.000 C 
ATOM     14  C   UNL     1      32.587 -12.369 -20.901  0.00  0.00    +0.000 C 
ATOM     15  C   UNL     1      32.695 -11.270 -21.753  0.00  0.00    +0.000 C 
ENDBRANCH   7  10
BRANCH   5  16
ATOM     16  C   UNL     1      35.016 -18.493 -20.971  0.00  0.00    +0.094 C 
BRANCH  16  17
ATOM     17  C   UNL     1      34.514 -19.724 -20.230  0.00  0.00    -0.014 C 
ATOM     18  C   UNL     1      35.419 -20.573 -19.594  0.00  0.00    -0.001 C 
ATOM     19  C   UNL     1      33.148 -20.004 -20.188  0.00  0.00    -0.001 C 
ATOM     20  C   UNL     1      34.958 -21.702 -18.915  0.00  0.00    +0.036 C 
ATOM     21  C   UNL     1      32.687 -21.132 -19.510  0.00  0.00    +0.036 C 
ATOM     22  C   UNL     1      33.592 -21.981 -18.874  0.00  0.00    +0.134 C 
BRANCH  22  23
ATOM     23  O   UNL     1      33.143 -23.082 -18.212  0.00  0.00    -0.506 OA
ATOM     24  H   UNL     1      33.153 -23.103 -17.276  0.00  0.00    +0.292 HD
ENDBRANCH  22  23
ENDBRANCH  16  17
ENDBRANCH   5  16
TORSDOF 4
ENDMDL
