MODEL 1
REMARK VINA RESULT:     -10.9      0.000      0.000
REMARK  Name = 62300
REMARK  6 active torsions:
REMARK  status: ('A' for Active; 'I' for Inactive)
REMARK    1  A    between atoms: N_1  and  C_20
REMARK    2  A    between atoms: C_2  and  N_9
REMARK    3  A    between atoms: N_9  and  C_12
REMARK    4  A    between atoms: C_10  and  C_18
REMARK    5  A    between atoms: C_20  and  C_21
REMARK    6  A    between atoms: C_21  and  C_22
REMARK                            x       y       z     vdW  Elec       q    Type
REMARK                         _______ _______ _______ _____ _____    ______ ____
ROOT
ATOM      1  N   UNL     1      34.928 -22.165 -17.648  0.00  0.00    +0.387 N 
ATOM      2  C   UNL     1      35.080 -22.640 -14.766  0.00  0.00    +0.076 C 
ATOM      3  C   UNL     1      34.032 -23.317 -15.651  0.00  0.00    -0.003 C 
ATOM      4  C   UNL     1      36.305 -22.258 -15.595  0.00  0.00    -0.003 C 
ATOM      5  C   UNL     1      33.712 -22.465 -16.880  0.00  0.00    -0.076 C 
ATOM      6  C   UNL     1      35.909 -21.443 -16.828  0.00  0.00    -0.076 C 
ATOM      7  H   UNL     1      35.347 -23.050 -17.934  0.00  0.00    -0.080 HD
ENDROOT
BRANCH   2   9
ATOM      8  O   UNL     1      33.564 -23.089 -12.283  0.00  0.00    -0.275 OA
ATOM      9  N   UNL     1      35.451 -23.488 -13.661  0.00  0.00    -0.260 N 
ATOM     10  C   UNL     1      34.646 -23.643 -12.492  0.00  0.00    +0.229 C 
BRANCH   9  12
ATOM     11  F   UNL     1      40.215 -26.272 -13.960  0.00  0.00    -0.204 F 
ATOM     12  C   UNL     1      36.711 -24.224 -13.740  0.00  0.00    +0.054 C 
ATOM     13  C   UNL     1      37.792 -23.697 -13.099  0.00  0.00    +0.017 C 
ATOM     14  C   UNL     1      36.718 -25.388 -14.451  0.00  0.00    +0.017 C 
ATOM     15  C   UNL     1      38.995 -24.400 -13.173  0.00  0.00    +0.031 C 
ATOM     16  C   UNL     1      37.921 -26.090 -14.525  0.00  0.00    +0.031 C 
ATOM     17  C   UNL     1      39.059 -25.597 -13.887  0.00  0.00    +0.140 C 
ENDBRANCH   9  12
BRANCH  10  18
ATOM     18  C   UNL     1      35.239 -24.549 -11.417  0.00  0.00    +0.086 C 
ATOM     19  C   UNL     1      35.443 -23.833 -10.090  0.00  0.00    +0.010 C 
ENDBRANCH  10  18
ENDBRANCH   2   9
BRANCH   1  20
ATOM     20  C   UNL     1      34.598 -21.394 -18.848  0.00  0.00    -0.073 C 
BRANCH  20  21
ATOM     21  C   UNL     1      35.809 -20.601 -19.339  0.00  0.00    +0.004 C 
BRANCH  21  22
ATOM     22  C   UNL     1      35.444 -19.682 -20.478  0.00  0.00    -0.024 C 
ATOM     23  C   UNL     1      36.361 -18.737 -20.912  0.00  0.00    -0.004 C 
ATOM     24  C   UNL     1      34.196 -19.796 -21.071  0.00  0.00    -0.004 C 
ATOM     25  C   UNL     1      36.024 -17.887 -21.965  0.00  0.00    -0.000 C 
ATOM     26  C   UNL     1      33.857 -18.945 -22.124  0.00  0.00    -0.000 C 
ATOM     27  C   UNL     1      34.772 -17.991 -22.571  0.00  0.00    -0.000 C 
ENDBRANCH  21  22
ENDBRANCH  20  21
ENDBRANCH   1  20
TORSDOF 6
ENDMDL
MODEL 2
REMARK VINA RESULT:     -10.5      2.373      3.911
REMARK  Name = 62300
REMARK  6 active torsions:
REMARK  status: ('A' for Active; 'I' for Inactive)
REMARK    1  A    between atoms: N_1  and  C_20
REMARK    2  A    between atoms: C_2  and  N_9
REMARK    3  A    between atoms: N_9  and  C_12
REMARK    4  A    between atoms: C_10  and  C_18
REMARK    5  A    between atoms: C_20  and  C_21
REMARK    6  A    between atoms: C_21  and  C_22
REMARK                            x       y       z     vdW  Elec       q    Type
REMARK                         _______ _______ _______ _____ _____    ______ ____
ROOT
ATOM      1  N   UNL     1      34.130 -20.100 -19.877  0.00  0.00    +0.387 N 
ATOM      2  C   UNL     1      33.376 -22.228 -18.017  0.00  0.00    +0.076 C 
ATOM      3  C   UNL     1      34.784 -21.633 -18.050  0.00  0.00    -0.003 C 
ATOM      4  C   UNL     1      32.364 -21.218 -18.555  0.00  0.00    -0.003 C 
ATOM      5  C   UNL     1      35.124 -21.088 -19.438  0.00  0.00    -0.076 C 
ATOM      6  C   UNL     1      32.784 -20.685 -19.926  0.00  0.00    -0.076 C 
ATOM      7  H   UNL     1      34.119 -19.341 -19.195  0.00  0.00    -0.080 HD
ENDROOT
BRANCH   2   9
ATOM      8  O   UNL     1      30.677 -22.345 -16.849  0.00  0.00    -0.275 OA
ATOM      9  N   UNL     1      33.022 -22.651 -16.685  0.00  0.00    -0.260 N 
ATOM     10  C   UNL     1      31.677 -22.673 -16.206  0.00  0.00    +0.229 C 
BRANCH   9  12
ATOM     11  F   UNL     1      37.057 -24.258 -13.270  0.00  0.00    -0.204 F 
ATOM     12  C   UNL     1      34.090 -23.075 -15.782  0.00  0.00    +0.054 C 
ATOM     13  C   UNL     1      34.781 -22.105 -15.120  0.00  0.00    +0.017 C 
ATOM     14  C   UNL     1      34.320 -24.414 -15.664  0.00  0.00    +0.017 C 
ATOM     15  C   UNL     1      35.799 -22.510 -14.257  0.00  0.00    +0.031 C 
ATOM     16  C   UNL     1      35.339 -24.819 -14.801  0.00  0.00    +0.031 C 
ATOM     17  C   UNL     1      36.079 -23.868 -14.098  0.00  0.00    +0.140 C 
ENDBRANCH   9  12
BRANCH  10  18
ATOM     18  C   UNL     1      31.519 -23.107 -14.752  0.00  0.00    +0.086 C 
ATOM     19  C   UNL     1      30.189 -22.680 -14.150  0.00  0.00    +0.010 C 
ENDBRANCH  10  18
ENDBRANCH   2   9
BRANCH   1  20
ATOM     20  C   UNL     1      34.497 -19.551 -21.183  0.00  0.00    -0.073 C 
BRANCH  20  21
ATOM     21  C   UNL     1      35.353 -18.294 -21.028  0.00  0.00    +0.004 C 
BRANCH  21  22
ATOM     22  C   UNL     1      34.815 -17.152 -21.854  0.00  0.00    -0.024 C 
ATOM     23  C   UNL     1      34.515 -15.947 -21.237  0.00  0.00    -0.004 C 
ATOM     24  C   UNL     1      34.628 -17.327 -23.216  0.00  0.00    -0.004 C 
ATOM     25  C   UNL     1      34.018 -14.892 -22.001  0.00  0.00    -0.000 C 
ATOM     26  C   UNL     1      34.130 -16.272 -23.981  0.00  0.00    -0.000 C 
ATOM     27  C   UNL     1      33.825 -15.054 -23.373  0.00  0.00    -0.000 C 
ENDBRANCH  21  22
ENDBRANCH  20  21
ENDBRANCH   1  20
TORSDOF 6
ENDMDL
MODEL 3
REMARK VINA RESULT:     -10.2      1.677      2.429
REMARK  Name = 62300
REMARK  6 active torsions:
REMARK  status: ('A' for Active; 'I' for Inactive)
REMARK    1  A    between atoms: N_1  and  C_20
REMARK    2  A    between atoms: C_2  and  N_9
REMARK    3  A    between atoms: N_9  and  C_12
REMARK    4  A    between atoms: C_10  and  C_18
REMARK    5  A    between atoms: C_20  and  C_21
REMARK    6  A    between atoms: C_21  and  C_22
REMARK                            x       y       z     vdW  Elec       q    Type
REMARK                         _______ _______ _______ _____ _____    ______ ____
ROOT
ATOM      1  N   UNL     1      35.292 -21.672 -19.105  0.00  0.00    +0.387 N 
ATOM      2  C   UNL     1      34.280 -22.033 -16.384  0.00  0.00    +0.076 C 
ATOM      3  C   UNL     1      33.490 -22.479 -17.615  0.00  0.00    -0.003 C 
ATOM      4  C   UNL     1      35.774 -21.997 -16.701  0.00  0.00    -0.003 C 
ATOM      5  C   UNL     1      33.847 -21.635 -18.839  0.00  0.00    -0.076 C 
ATOM      6  C   UNL     1      36.057 -21.170 -17.956  0.00  0.00    -0.076 C 
ATOM      7  H   UNL     1      35.558 -22.645 -19.259  0.00  0.00    -0.080 HD
ENDROOT
BRANCH   2   9
ATOM      8  O   UNL     1      31.669 -22.569 -15.136  0.00  0.00    -0.275 OA
ATOM      9  N   UNL     1      34.014 -22.893 -15.258  0.00  0.00    -0.260 N 
ATOM     10  C   UNL     1      32.706 -23.090 -14.720  0.00  0.00    +0.229 C 
BRANCH   9  12
ATOM     11  F   UNL     1      38.253 -25.544 -12.905  0.00  0.00    -0.204 F 
ATOM     12  C   UNL     1      35.135 -23.594 -14.636  0.00  0.00    +0.054 C 
ATOM     13  C   UNL     1      35.359 -24.885 -15.011  0.00  0.00    +0.017 C 
ATOM     14  C   UNL     1      35.880 -22.908 -13.722  0.00  0.00    +0.017 C 
ATOM     15  C   UNL     1      36.430 -25.555 -14.417  0.00  0.00    +0.031 C 
ATOM     16  C   UNL     1      36.950 -23.578 -13.129  0.00  0.00    +0.031 C 
ATOM     17  C   UNL     1      37.225 -24.901 -13.476  0.00  0.00    +0.140 C 
ENDBRANCH   9  12
BRANCH  10  18
ATOM     18  C   UNL     1      32.644 -24.002 -13.497  0.00  0.00    +0.086 C 
ATOM     19  C   UNL     1      31.272 -24.627 -13.298  0.00  0.00    +0.010 C 
ENDBRANCH  10  18
ENDBRANCH   2   9
BRANCH   1  20
ATOM     20  C   UNL     1      35.610 -20.902 -20.308  0.00  0.00    -0.073 C 
BRANCH  20  21
ATOM     21  C   UNL     1      35.560 -19.400 -20.026  0.00  0.00    +0.004 C 
BRANCH  21  22
ATOM     22  C   UNL     1      35.053 -18.631 -21.220  0.00  0.00    -0.024 C 
ATOM     23  C   UNL     1      35.282 -17.265 -21.297  0.00  0.00    -0.004 C 
ATOM     24  C   UNL     1      34.366 -19.301 -22.221  0.00  0.00    -0.004 C 
ATOM     25  C   UNL     1      34.814 -16.553 -22.401  0.00  0.00    -0.000 C 
ATOM     26  C   UNL     1      33.897 -18.588 -23.325  0.00  0.00    -0.000 C 
ATOM     27  C   UNL     1      34.121 -17.214 -23.415  0.00  0.00    -0.000 C 
ENDBRANCH  21  22
ENDBRANCH  20  21
ENDBRANCH   1  20
TORSDOF 6
ENDMDL
MODEL 4
REMARK VINA RESULT:     -10.1     10.347     15.638
REMARK  Name = 62300
REMARK  6 active torsions:
REMARK  status: ('A' for Active; 'I' for Inactive)
REMARK    1  A    between atoms: N_1  and  C_20
REMARK    2  A    between atoms: C_2  and  N_9
REMARK    3  A    between atoms: N_9  and  C_12
REMARK    4  A    between atoms: C_10  and  C_18
REMARK    5  A    between atoms: C_20  and  C_21
REMARK    6  A    between atoms: C_21  and  C_22
REMARK                            x       y       z     vdW  Elec       q    Type
REMARK                         _______ _______ _______ _____ _____    ______ ____
ROOT
ATOM      1  N   UNL     1      33.153 -12.732 -22.450  0.00  0.00    +0.387 N 
ATOM      2  C   UNL     1      31.700 -10.194 -22.492  0.00  0.00    +0.076 C 
ATOM      3  C   UNL     1      31.706 -11.111 -21.268  0.00  0.00    -0.003 C 
ATOM      4  C   UNL     1      32.951 -10.432 -23.336  0.00  0.00    -0.003 C 
ATOM      5  C   UNL     1      31.917 -12.571 -21.672  0.00  0.00    -0.076 C 
ATOM      6  C   UNL     1      33.122 -11.915 -23.669  0.00  0.00    -0.076 C 
ATOM      7  H   UNL     1      33.931 -12.411 -21.874  0.00  0.00    -0.080 HD
ENDROOT
BRANCH   2   9
ATOM      8  O   UNL     1      31.389  -9.136 -19.763  0.00  0.00    -0.275 OA
ATOM      9  N   UNL     1      31.599  -8.810 -22.102  0.00  0.00    -0.260 N 
ATOM     10  C   UNL     1      31.449  -8.392 -20.744  0.00  0.00    +0.229 C 
BRANCH   9  12
ATOM     11  F   UNL     1      31.795  -4.938 -26.038  0.00  0.00    -0.204 F 
ATOM     12  C   UNL     1      31.651  -7.786 -23.143  0.00  0.00    +0.054 C 
ATOM     13  C   UNL     1      32.865  -7.235 -23.428  0.00  0.00    +0.017 C 
ATOM     14  C   UNL     1      30.481  -7.451 -23.757  0.00  0.00    +0.017 C 
ATOM     15  C   UNL     1      32.915  -6.258 -24.422  0.00  0.00    +0.031 C 
ATOM     16  C   UNL     1      30.531  -6.474 -24.751  0.00  0.00    +0.031 C 
ATOM     17  C   UNL     1      31.747  -5.877 -25.084  0.00  0.00    +0.140 C 
ENDBRANCH   9  12
BRANCH  10  18
ATOM     18  C   UNL     1      31.312  -6.885 -20.546  0.00  0.00    +0.086 C 
ATOM     19  C   UNL     1      32.518  -6.270 -19.852  0.00  0.00    +0.010 C 
ENDBRANCH  10  18
ENDBRANCH   2   9
BRANCH   1  20
ATOM     20  C   UNL     1      33.367 -14.141 -22.783  0.00  0.00    -0.073 C 
BRANCH  20  21
ATOM     21  C   UNL     1      34.183 -14.843 -21.697  0.00  0.00    +0.004 C 
BRANCH  21  22
ATOM     22  C   UNL     1      34.406 -16.297 -22.026  0.00  0.00    -0.024 C 
ATOM     23  C   UNL     1      34.930 -17.142 -21.059  0.00  0.00    -0.004 C 
ATOM     24  C   UNL     1      34.086 -16.766 -23.291  0.00  0.00    -0.004 C 
ATOM     25  C   UNL     1      35.136 -18.487 -21.362  0.00  0.00    -0.000 C 
ATOM     26  C   UNL     1      34.293 -18.112 -23.595  0.00  0.00    -0.000 C 
ATOM     27  C   UNL     1      34.818 -18.973 -22.631  0.00  0.00    -0.000 C 
ENDBRANCH  21  22
ENDBRANCH  20  21
ENDBRANCH   1  20
TORSDOF 6
ENDMDL
MODEL 5
REMARK VINA RESULT:     -10.0     10.926     16.153
REMARK  Name = 62300
REMARK  6 active torsions:
REMARK  status: ('A' for Active; 'I' for Inactive)
REMARK    1  A    between atoms: N_1  and  C_20
REMARK    2  A    between atoms: C_2  and  N_9
REMARK    3  A    between atoms: N_9  and  C_12
REMARK    4  A    between atoms: C_10  and  C_18
REMARK    5  A    between atoms: C_20  and  C_21
REMARK    6  A    between atoms: C_21  and  C_22
REMARK                            x       y       z     vdW  Elec       q    Type
REMARK                         _______ _______ _______ _____ _____    ______ ____
ROOT
ATOM      1  N   UNL     1      32.445 -11.956 -21.220  0.00  0.00    +0.387 N 
ATOM      2  C   UNL     1      31.358  -9.288 -21.729  0.00  0.00    +0.076 C 
ATOM      3  C   UNL     1      31.548  -9.836 -20.314  0.00  0.00    -0.003 C 
ATOM      4  C   UNL     1      32.324  -9.974 -22.694  0.00  0.00    -0.003 C 
ATOM      5  C   UNL     1      31.469 -11.363 -20.296  0.00  0.00    -0.076 C 
ATOM      6  C   UNL     1      32.220 -11.497 -22.596  0.00  0.00    -0.076 C 
ATOM      7  H   UNL     1      33.375 -11.649 -20.934  0.00  0.00    -0.080 HD
ENDROOT
BRANCH   2   9
ATOM      8  O   UNL     1      31.435  -7.461 -19.423  0.00  0.00    -0.275 OA
ATOM      9  N   UNL     1      31.531  -7.858 -21.759  0.00  0.00    -0.260 N 
ATOM     10  C   UNL     1      31.555  -7.051 -20.580  0.00  0.00    +0.229 C 
BRANCH   9  12
ATOM     11  F   UNL     1      32.129  -5.374 -26.658  0.00  0.00    -0.204 F 
ATOM     12  C   UNL     1      31.689  -7.201 -23.055  0.00  0.00    +0.054 C 
ATOM     13  C   UNL     1      30.575  -7.044 -23.823  0.00  0.00    +0.017 C 
ATOM     14  C   UNL     1      32.941  -6.790 -23.405  0.00  0.00    +0.017 C 
ATOM     15  C   UNL     1      30.725  -6.416 -25.060  0.00  0.00    +0.031 C 
ATOM     16  C   UNL     1      33.091  -6.163 -24.642  0.00  0.00    +0.031 C 
ATOM     17  C   UNL     1      31.984  -5.976 -25.470  0.00  0.00    +0.140 C 
ENDBRANCH   9  12
BRANCH  10  18
ATOM     18  C   UNL     1      31.701  -5.552 -20.829  0.00  0.00    +0.086 C 
ATOM     19  C   UNL     1      30.387  -4.800 -20.682  0.00  0.00    +0.010 C 
ENDBRANCH  10  18
ENDBRANCH   2   9
BRANCH   1  20
ATOM     20  C   UNL     1      32.392 -13.417 -21.152  0.00  0.00    -0.073 C 
BRANCH  20  21
ATOM     21  C   UNL     1      33.756 -13.998 -20.779  0.00  0.00    +0.004 C 
BRANCH  21  22
ATOM     22  C   UNL     1      34.099 -15.194 -21.630  0.00  0.00    -0.024 C 
ATOM     23  C   UNL     1      34.004 -15.098 -23.010  0.00  0.00    -0.004 C 
ATOM     24  C   UNL     1      34.504 -16.371 -21.019  0.00  0.00    -0.004 C 
ATOM     25  C   UNL     1      34.321 -16.204 -23.798  0.00  0.00    -0.000 C 
ATOM     26  C   UNL     1      34.821 -17.478 -21.807  0.00  0.00    -0.000 C 
ATOM     27  C   UNL     1      34.730 -17.394 -23.197  0.00  0.00    -0.000 C 
ENDBRANCH  21  22
ENDBRANCH  20  21
ENDBRANCH   1  20
TORSDOF 6
ENDMDL
MODEL 6
REMARK VINA RESULT:     -10.0     11.479     16.900
REMARK  Name = 62300
REMARK  6 active torsions:
REMARK  status: ('A' for Active; 'I' for Inactive)
REMARK    1  A    between atoms: N_1  and  C_20
REMARK    2  A    between atoms: C_2  and  N_9
REMARK    3  A    between atoms: N_9  and  C_12
REMARK    4  A    between atoms: C_10  and  C_18
REMARK    5  A    between atoms: C_20  and  C_21
REMARK    6  A    between atoms: C_21  and  C_22
REMARK                            x       y       z     vdW  Elec       q    Type
REMARK                         _______ _______ _______ _____ _____    ______ ____
ROOT
ATOM      1  N   UNL     1      31.951 -11.230 -22.866  0.00  0.00    +0.387 N 
ATOM      2  C   UNL     1      32.341  -8.437 -22.090  0.00  0.00    +0.076 C 
ATOM      3  C   UNL     1      33.121  -9.083 -23.237  0.00  0.00    -0.003 C 
ATOM      4  C   UNL     1      31.015  -9.165 -21.878  0.00  0.00    -0.003 C 
ATOM      5  C   UNL     1      33.264 -10.591 -23.029  0.00  0.00    -0.076 C 
ATOM      6  C   UNL     1      31.227 -10.671 -21.717  0.00  0.00    -0.076 C 
ATOM      7  H   UNL     1      31.403 -11.042 -23.705  0.00  0.00    -0.080 HD
ENDROOT
BRANCH   2   9
ATOM      8  O   UNL     1      31.467  -6.407 -20.147  0.00  0.00    -0.275 OA
ATOM      9  N   UNL     1      32.123  -7.034 -22.337  0.00  0.00    -0.260 N 
ATOM     10  C   UNL     1      31.697  -6.122 -21.324  0.00  0.00    +0.229 C 
BRANCH   9  12
ATOM     11  F   UNL     1      32.970  -5.091 -27.439  0.00  0.00    -0.204 F 
ATOM     12  C   UNL     1      32.348  -6.520 -23.686  0.00  0.00    +0.054 C 
ATOM     13  C   UNL     1      33.562  -5.963 -23.957  0.00  0.00    +0.017 C 
ATOM     14  C   UNL     1      31.326  -6.633 -24.582  0.00  0.00    +0.017 C 
ATOM     15  C   UNL     1      33.776  -5.472 -25.245  0.00  0.00    +0.031 C 
ATOM     16  C   UNL     1      31.541  -6.143 -25.870  0.00  0.00    +0.031 C 
ATOM     17  C   UNL     1      32.765  -5.562 -26.202  0.00  0.00    +0.140 C 
ENDBRANCH   9  12
BRANCH  10  18
ATOM     18  C   UNL     1      31.477  -4.688 -21.801  0.00  0.00    +0.086 C 
ATOM     19  C   UNL     1      30.018  -4.264 -21.741  0.00  0.00    +0.010 C 
ENDBRANCH  10  18
ENDBRANCH   2   9
BRANCH   1  20
ATOM     20  C   UNL     1      32.102 -12.679 -22.720  0.00  0.00    -0.073 C 
BRANCH  20  21
ATOM     21  C   UNL     1      33.422 -13.025 -22.031  0.00  0.00    +0.004 C 
BRANCH  21  22
ATOM     22  C   UNL     1      33.847 -14.441 -22.331  0.00  0.00    -0.024 C 
ATOM     23  C   UNL     1      33.844 -14.890 -23.643  0.00  0.00    -0.004 C 
ATOM     24  C   UNL     1      34.234 -15.270 -21.290  0.00  0.00    -0.004 C 
ATOM     25  C   UNL     1      34.238 -16.198 -23.921  0.00  0.00    -0.000 C 
ATOM     26  C   UNL     1      34.627 -16.580 -21.567  0.00  0.00    -0.000 C 
ATOM     27  C   UNL     1      34.629 -17.044 -22.883  0.00  0.00    -0.000 C 
ENDBRANCH  21  22
ENDBRANCH  20  21
ENDBRANCH   1  20
TORSDOF 6
ENDMDL
MODEL 7
REMARK VINA RESULT:     -10.0     13.093     18.512
REMARK  Name = 62300
REMARK  6 active torsions:
REMARK  status: ('A' for Active; 'I' for Inactive)
REMARK    1  A    between atoms: N_1  and  C_20
REMARK    2  A    between atoms: C_2  and  N_9
REMARK    3  A    between atoms: N_9  and  C_12
REMARK    4  A    between atoms: C_10  and  C_18
REMARK    5  A    between atoms: C_20  and  C_21
REMARK    6  A    between atoms: C_21  and  C_22
REMARK                            x       y       z     vdW  Elec       q    Type
REMARK                         _______ _______ _______ _____ _____    ______ ____
ROOT
ATOM      1  N   UNL     1      31.507  -8.727 -21.295  0.00  0.00    +0.387 N 
ATOM      2  C   UNL     1      30.839  -6.129 -22.462  0.00  0.00    +0.076 C 
ATOM      3  C   UNL     1      31.701  -6.263 -21.206  0.00  0.00    -0.003 C 
ATOM      4  C   UNL     1      30.931  -7.402 -23.303  0.00  0.00    -0.003 C 
ATOM      5  C   UNL     1      31.366  -7.542 -20.438  0.00  0.00    -0.076 C 
ATOM      6  C   UNL     1      30.623  -8.644 -22.465  0.00  0.00    -0.076 C 
ATOM      7  H   UNL     1      32.470  -8.760 -21.630  0.00  0.00    -0.080 HD
ENDROOT
BRANCH   2   9
ATOM      8  O   UNL     1      29.834  -3.379 -22.166  0.00  0.00    -0.275 OA
ATOM      9  N   UNL     1      31.224  -4.975 -23.235  0.00  0.00    -0.260 N 
ATOM     10  C   UNL     1      30.678  -3.674 -23.016  0.00  0.00    +0.229 C 
BRANCH   9  12
ATOM     11  F   UNL     1      34.987  -5.610 -27.230  0.00  0.00    -0.204 F 
ATOM     12  C   UNL     1      32.219  -5.143 -24.292  0.00  0.00    +0.054 C 
ATOM     13  C   UNL     1      31.771  -5.479 -25.534  0.00  0.00    +0.017 C 
ATOM     14  C   UNL     1      33.528  -4.952 -23.962  0.00  0.00    +0.017 C 
ATOM     15  C   UNL     1      32.720  -5.639 -26.543  0.00  0.00    +0.031 C 
ATOM     16  C   UNL     1      34.478  -5.112 -24.971  0.00  0.00    +0.031 C 
ATOM     17  C   UNL     1      34.075  -5.455 -26.261  0.00  0.00    +0.140 C 
ENDBRANCH   9  12
BRANCH  10  18
ATOM     18  C   UNL     1      31.181  -2.595 -23.972  0.00  0.00    +0.086 C 
ATOM     19  C   UNL     1      30.105  -2.108 -24.930  0.00  0.00    +0.010 C 
ENDBRANCH  10  18
ENDBRANCH   2   9
BRANCH   1  20
ATOM     20  C   UNL     1      31.235  -9.946 -20.532  0.00  0.00    -0.073 C 
BRANCH  20  21
ATOM     21  C   UNL     1      30.804 -11.085 -21.457  0.00  0.00    +0.004 C 
BRANCH  21  22
ATOM     22  C   UNL     1      31.870 -12.147 -21.559  0.00  0.00    -0.024 C 
ATOM     23  C   UNL     1      32.661 -12.211 -22.695  0.00  0.00    -0.004 C 
ATOM     24  C   UNL     1      32.040 -13.043 -20.515  0.00  0.00    -0.004 C 
ATOM     25  C   UNL     1      33.647 -13.192 -22.791  0.00  0.00    -0.000 C 
ATOM     26  C   UNL     1      33.026 -14.026 -20.609  0.00  0.00    -0.000 C 
ATOM     27  C   UNL     1      33.830 -14.100 -21.748  0.00  0.00    -0.000 C 
ENDBRANCH  21  22
ENDBRANCH  20  21
ENDBRANCH   1  20
TORSDOF 6
ENDMDL
MODEL 8
REMARK VINA RESULT:      -9.9      8.846     13.942
REMARK  Name = 62300
REMARK  6 active torsions:
REMARK  status: ('A' for Active; 'I' for Inactive)
REMARK    1  A    between atoms: N_1  and  C_20
REMARK    2  A    between atoms: C_2  and  N_9
REMARK    3  A    between atoms: N_9  and  C_12
REMARK    4  A    between atoms: C_10  and  C_18
REMARK    5  A    between atoms: C_20  and  C_21
REMARK    6  A    between atoms: C_21  and  C_22
REMARK                            x       y       z     vdW  Elec       q    Type
REMARK                         _______ _______ _______ _____ _____    ______ ____
ROOT
ATOM      1  N   UNL     1      33.497 -15.145 -23.748  0.00  0.00    +0.387 N 
ATOM      2  C   UNL     1      33.145 -12.327 -23.048  0.00  0.00    +0.076 C 
ATOM      3  C   UNL     1      32.321 -13.006 -24.143  0.00  0.00    -0.003 C 
ATOM      4  C   UNL     1      33.636 -13.363 -22.038  0.00  0.00    -0.003 C 
ATOM      5  C   UNL     1      33.086 -14.172 -24.769  0.00  0.00    -0.076 C 
ATOM      6  C   UNL     1      34.356 -14.519 -22.734  0.00  0.00    -0.076 C 
ATOM      7  H   UNL     1      32.657 -15.486 -23.281  0.00  0.00    -0.080 HD
ENDROOT
BRANCH   2   9
ATOM      8  O   UNL     1      31.331 -12.637 -20.751  0.00  0.00    -0.275 OA
ATOM      9  N   UNL     1      32.385 -11.291 -22.394  0.00  0.00    -0.260 N 
ATOM     10  C   UNL     1      31.526 -11.541 -21.280  0.00  0.00    +0.229 C 
BRANCH   9  12
ATOM     11  F   UNL     1      32.803  -6.116 -24.282  0.00  0.00    -0.204 F 
ATOM     12  C   UNL     1      32.496  -9.922 -22.893  0.00  0.00    +0.054 C 
ATOM     13  C   UNL     1      33.747  -9.424 -23.097  0.00  0.00    +0.017 C 
ATOM     14  C   UNL     1      31.338  -9.238 -23.121  0.00  0.00    +0.017 C 
ATOM     15  C   UNL     1      33.854  -8.117 -23.575  0.00  0.00    +0.031 C 
ATOM     16  C   UNL     1      31.445  -7.932 -23.598  0.00  0.00    +0.031 C 
ATOM     17  C   UNL     1      32.701  -7.371 -23.825  0.00  0.00    +0.140 C 
ENDBRANCH   9  12
BRANCH  10  18
ATOM     18  C   UNL     1      30.773 -10.319 -20.762  0.00  0.00    +0.086 C 
ATOM     19  C   UNL     1      31.246  -9.874 -19.386  0.00  0.00    +0.010 C 
ENDBRANCH  10  18
ENDBRANCH   2   9
BRANCH   1  20
ATOM     20  C   UNL     1      34.182 -16.280 -24.368  0.00  0.00    -0.073 C 
BRANCH  20  21
ATOM     21  C   UNL     1      33.603 -17.605 -23.874  0.00  0.00    +0.004 C 
BRANCH  21  22
ATOM     22  C   UNL     1      34.402 -18.163 -22.723  0.00  0.00    -0.024 C 
ATOM     23  C   UNL     1      35.692 -17.706 -22.505  0.00  0.00    -0.004 C 
ATOM     24  C   UNL     1      33.833 -19.125 -21.902  0.00  0.00    -0.004 C 
ATOM     25  C   UNL     1      36.431 -18.221 -21.441  0.00  0.00    -0.000 C 
ATOM     26  C   UNL     1      34.572 -19.641 -20.838  0.00  0.00    -0.000 C 
ATOM     27  C   UNL     1      35.872 -19.189 -20.607  0.00  0.00    -0.000 C 
ENDBRANCH  21  22
ENDBRANCH  20  21
ENDBRANCH   1  20
TORSDOF 6
ENDMDL
MODEL 9
REMARK VINA RESULT:      -9.9      7.411     11.353
REMARK  Name = 62300
REMARK  6 active torsions:
REMARK  status: ('A' for Active; 'I' for Inactive)
REMARK    1  A    between atoms: N_1  and  C_20
REMARK    2  A    between atoms: C_2  and  N_9
REMARK    3  A    between atoms: N_9  and  C_12
REMARK    4  A    between atoms: C_10  and  C_18
REMARK    5  A    between atoms: C_20  and  C_21
REMARK    6  A    between atoms: C_21  and  C_22
REMARK                            x       y       z     vdW  Elec       q    Type
REMARK                         _______ _______ _______ _____ _____    ______ ____
ROOT
ATOM      1  N   UNL     1      32.722 -13.002 -21.346  0.00  0.00    +0.387 N 
ATOM      2  C   UNL     1      34.195 -15.265 -22.470  0.00  0.00    +0.076 C 
ATOM      3  C   UNL     1      33.775 -15.212 -21.000  0.00  0.00    -0.003 C 
ATOM      4  C   UNL     1      33.265 -14.396 -23.316  0.00  0.00    -0.003 C 
ATOM      5  C   UNL     1      33.655 -13.769 -20.510  0.00  0.00    -0.076 C 
ATOM      6  C   UNL     1      33.160 -12.980 -22.748  0.00  0.00    -0.076 C 
ATOM      7  H   UNL     1      31.813 -13.463 -21.308  0.00  0.00    -0.080 HD
ENDROOT
BRANCH   2   9
ATOM      8  O   UNL     1      33.316 -16.217 -25.113  0.00  0.00    -0.275 OA
ATOM      9  N   UNL     1      34.212 -16.622 -22.956  0.00  0.00    -0.260 N 
ATOM     10  C   UNL     1      33.763 -16.989 -24.261  0.00  0.00    +0.229 C 
BRANCH   9  12
ATOM     11  F   UNL     1      36.100 -20.596 -19.614  0.00  0.00    -0.204 F 
ATOM     12  C   UNL     1      34.712 -17.673 -22.072  0.00  0.00    +0.054 C 
ATOM     13  C   UNL     1      36.052 -17.710 -21.828  0.00  0.00    +0.017 C 
ATOM     14  C   UNL     1      33.802 -18.545 -21.552  0.00  0.00    +0.017 C 
ATOM     15  C   UNL     1      36.530 -18.712 -20.984  0.00  0.00    +0.031 C 
ATOM     16  C   UNL     1      34.279 -19.548 -20.708  0.00  0.00    +0.031 C 
ATOM     17  C   UNL     1      35.642 -19.632 -20.423  0.00  0.00    +0.140 C 
ENDBRANCH   9  12
BRANCH  10  18
ATOM     18  C   UNL     1      33.819 -18.483 -24.565  0.00  0.00    +0.086 C 
ATOM     19  C   UNL     1      32.457 -19.065 -24.913  0.00  0.00    +0.010 C 
ENDBRANCH  10  18
ENDBRANCH   2   9
BRANCH   1  20
ATOM     20  C   UNL     1      32.578 -11.638 -20.834  0.00  0.00    -0.073 C 
BRANCH  20  21
ATOM     21  C   UNL     1      31.202 -11.067 -21.178  0.00  0.00    +0.004 C 
BRANCH  21  22
ATOM     22  C   UNL     1      31.214  -9.559 -21.176  0.00  0.00    -0.024 C 
ATOM     23  C   UNL     1      31.013  -8.874 -22.365  0.00  0.00    -0.004 C 
ATOM     24  C   UNL     1      31.426  -8.881 -19.986  0.00  0.00    -0.004 C 
ATOM     25  C   UNL     1      31.024  -7.480 -22.365  0.00  0.00    -0.000 C 
ATOM     26  C   UNL     1      31.438  -7.486 -19.984  0.00  0.00    -0.000 C 
ATOM     27  C   UNL     1      31.236  -6.785 -21.174  0.00  0.00    -0.000 C 
ENDBRANCH  21  22
ENDBRANCH  20  21
ENDBRANCH   1  20
TORSDOF 6
ENDMDL
