MODEL 1
REMARK VINA RESULT:     -12.6      0.000      0.000
REMARK  Name = 16750094
REMARK  4 active torsions:
REMARK  status: ('A' for Active; 'I' for Inactive)
REMARK    1  A    between atoms: C_4  and  C_22
REMARK    2  A    between atoms: C_7  and  C_12
REMARK    3  A    between atoms: C_14  and  C_19
REMARK    4  A    between atoms: C_23  and  O_28
REMARK                            x       y       z     vdW  Elec       q    Type
REMARK                         _______ _______ _______ _____ _____    ______ ____
ROOT
ATOM      1  N   UNL     1      31.945 -22.718 -17.366  0.00  0.00    -0.297 N 
ATOM      2  N   UNL     1      31.843 -21.284 -19.298  0.00  0.00    -0.229 NA
ATOM      3  C   UNL     1      33.854 -21.729 -17.969  0.00  0.00    +0.033 C 
ATOM      4  C   UNL     1      34.094 -22.531 -16.821  0.00  0.00    +0.020 C 
ATOM      5  C   UNL     1      32.505 -21.868 -18.282  0.00  0.00    +0.132 C 
ATOM      6  C   UNL     1      34.626 -20.892 -18.791  0.00  0.00    +0.004 C 
ATOM      7  C   UNL     1      33.989 -20.261 -19.858  0.00  0.00    +0.021 C 
ATOM      8  C   UNL     1      32.901 -23.126 -16.473  0.00  0.00    +0.063 C 
ATOM      9  C   UNL     1      32.634 -20.489 -20.057  0.00  0.00    +0.100 C 
ATOM     10  H   UNL     1      31.000 -22.993 -17.351  0.00  0.00    +0.154 HD
ENDROOT
BRANCH   7  12
ATOM     11  N   UNL     1      36.834 -18.371 -21.353  0.00  0.00    -0.242 NA
ATOM     12  C   UNL     1      34.728 -19.387 -20.740  0.00  0.00    +0.021 C 
ATOM     13  C   UNL     1      34.098 -18.732 -21.793  0.00  0.00    +0.008 C 
ATOM     14  C   UNL     1      34.834 -17.897 -22.626  0.00  0.00    +0.073 C 
ATOM     15  C   UNL     1      36.086 -19.175 -20.564  0.00  0.00    +0.099 C 
ATOM     16  C   UNL     1      36.187 -17.751 -22.366  0.00  0.00    +0.103 C 
BRANCH  14  19
ATOM     17  O   UNL     1      33.954 -17.864 -24.748  0.00  0.00    -0.270 OA
ATOM     18  N   UNL     1      33.933 -15.824 -23.606  0.00  0.00    -0.273 N 
ATOM     19  C   UNL     1      34.206 -17.198 -23.733  0.00  0.00    +0.251 C 
ATOM     20  C   UNL     1      33.321 -15.052 -24.679  0.00  0.00    +0.115 C 
ATOM     21  C   UNL     1      34.247 -15.077 -22.390  0.00  0.00    +0.115 C 
ENDBRANCH  14  19
ENDBRANCH   7  12
BRANCH   4  22
ATOM     22  C   UNL     1      35.306 -22.748 -16.086  0.00  0.00    +0.035 C 
ATOM     23  C   UNL     1      35.324 -23.577 -14.964  0.00  0.00    +0.139 C 
ATOM     24  C   UNL     1      36.478 -22.119 -16.507  0.00  0.00    +0.003 C 
ATOM     25  C   UNL     1      36.513 -23.774 -14.262  0.00  0.00    +0.037 C 
ATOM     26  C   UNL     1      37.667 -22.317 -15.804  0.00  0.00    +0.000 C 
ATOM     27  C   UNL     1      37.685 -23.145 -14.682  0.00  0.00    +0.003 C 
BRANCH  23  28
ATOM     28  O   UNL     1      34.194 -24.203 -14.528  0.00  0.00    -0.471 OA
ATOM     29  C   UNL     1      33.766 -23.915 -13.200  0.00  0.00    +0.252 C 
ENDBRANCH  23  28
ENDBRANCH   4  22
TORSDOF 4
ENDMDL
MODEL 2
REMARK VINA RESULT:     -11.9      6.228     12.771
REMARK  Name = 16750094
REMARK  4 active torsions:
REMARK  status: ('A' for Active; 'I' for Inactive)
REMARK    1  A    between atoms: C_4  and  C_22
REMARK    2  A    between atoms: C_7  and  C_12
REMARK    3  A    between atoms: C_14  and  C_19
REMARK    4  A    between atoms: C_23  and  O_28
REMARK                            x       y       z     vdW  Elec       q    Type
REMARK                         _______ _______ _______ _____ _____    ______ ____
ROOT
ATOM      1  N   UNL     1      31.080  -9.031 -20.211  0.00  0.00    -0.297 N 
ATOM      2  N   UNL     1      31.545 -11.392 -20.305  0.00  0.00    -0.229 NA
ATOM      3  C   UNL     1      31.820  -9.818 -22.165  0.00  0.00    +0.033 C 
ATOM      4  C   UNL     1      31.597  -8.420 -22.287  0.00  0.00    +0.020 C 
ATOM      5  C   UNL     1      31.487 -10.166 -20.859  0.00  0.00    +0.132 C 
ATOM      6  C   UNL     1      32.268 -10.843 -23.014  0.00  0.00    +0.004 C 
ATOM      7  C   UNL     1      32.347 -12.132 -22.490  0.00  0.00    +0.021 C 
ATOM      8  C   UNL     1      31.142  -7.964 -21.069  0.00  0.00    +0.063 C 
ATOM      9  C   UNL     1      31.984 -12.340 -21.167  0.00  0.00    +0.100 C 
ATOM     10  H   UNL     1      30.786  -8.988 -19.273  0.00  0.00    +0.154 HD
ENDROOT
BRANCH   7  12
ATOM     11  N   UNL     1      33.099 -14.174 -25.518  0.00  0.00    -0.242 NA
ATOM     12  C   UNL     1      32.800 -13.232 -23.312  0.00  0.00    +0.021 C 
ATOM     13  C   UNL     1      33.356 -14.372 -22.742  0.00  0.00    +0.008 C 
ATOM     14  C   UNL     1      33.783 -15.413 -23.558  0.00  0.00    +0.073 C 
ATOM     15  C   UNL     1      32.695 -13.182 -24.693  0.00  0.00    +0.099 C 
ATOM     16  C   UNL     1      33.634 -15.267 -24.928  0.00  0.00    +0.103 C 
BRANCH  14  19
ATOM     17  O   UNL     1      35.192 -16.468 -22.080  0.00  0.00    -0.270 OA
ATOM     18  N   UNL     1      33.985 -17.868 -23.511  0.00  0.00    -0.273 N 
ATOM     19  C   UNL     1      34.367 -16.617 -22.993  0.00  0.00    +0.251 C 
ATOM     20  C   UNL     1      34.538 -19.118 -23.009  0.00  0.00    +0.115 C 
ATOM     21  C   UNL     1      33.007 -17.999 -24.589  0.00  0.00    +0.115 C 
ENDBRANCH  14  19
ENDBRANCH   7  12
BRANCH   4  22
ATOM     22  C   UNL     1      31.778  -7.554 -23.415  0.00  0.00    +0.035 C 
ATOM     23  C   UNL     1      33.056  -7.184 -23.836  0.00  0.00    +0.139 C 
ATOM     24  C   UNL     1      30.656  -7.078 -24.094  0.00  0.00    +0.003 C 
ATOM     25  C   UNL     1      33.211  -6.339 -24.934  0.00  0.00    +0.037 C 
ATOM     26  C   UNL     1      30.812  -6.234 -25.193  0.00  0.00    +0.000 C 
ATOM     27  C   UNL     1      32.089  -5.864 -25.614  0.00  0.00    +0.003 C 
BRANCH  23  28
ATOM     28  O   UNL     1      34.171  -7.632 -23.191  0.00  0.00    -0.471 OA
ATOM     29  C   UNL     1      35.065  -8.454 -23.937  0.00  0.00    +0.252 C 
ENDBRANCH  23  28
ENDBRANCH   4  22
TORSDOF 4
ENDMDL
MODEL 3
REMARK VINA RESULT:     -11.6      5.181      7.515
REMARK  Name = 16750094
REMARK  4 active torsions:
REMARK  status: ('A' for Active; 'I' for Inactive)
REMARK    1  A    between atoms: C_4  and  C_22
REMARK    2  A    between atoms: C_7  and  C_12
REMARK    3  A    between atoms: C_14  and  C_19
REMARK    4  A    between atoms: C_23  and  O_28
REMARK                            x       y       z     vdW  Elec       q    Type
REMARK                         _______ _______ _______ _____ _____    ______ ____
ROOT
ATOM      1  N   UNL     1      36.176 -21.681 -17.145  0.00  0.00    -0.297 N 
ATOM      2  N   UNL     1      33.842 -21.918 -17.693  0.00  0.00    -0.229 NA
ATOM      3  C   UNL     1      34.907 -22.744 -15.646  0.00  0.00    +0.033 C 
ATOM      4  C   UNL     1      36.244 -22.696 -15.166  0.00  0.00    +0.020 C 
ATOM      5  C   UNL     1      34.900 -22.104 -16.881  0.00  0.00    +0.132 C 
ATOM      6  C   UNL     1      33.688 -23.259 -15.177  0.00  0.00    +0.004 C 
ATOM      7  C   UNL     1      32.561 -23.095 -15.979  0.00  0.00    +0.021 C 
ATOM      8  C   UNL     1      37.001 -22.036 -16.110  0.00  0.00    +0.063 C 
ATOM      9  C   UNL     1      32.695 -22.434 -17.192  0.00  0.00    +0.100 C 
ATOM     10  H   UNL     1      36.457 -21.198 -17.955  0.00  0.00    +0.154 HD
ENDROOT
BRANCH   7  12
ATOM     11  N   UNL     1      30.012 -25.058 -14.096  0.00  0.00    -0.242 NA
ATOM     12  C   UNL     1      31.277 -23.603 -15.554  0.00  0.00    +0.021 C 
ATOM     13  C   UNL     1      30.099 -23.163 -16.148  0.00  0.00    +0.008 C 
ATOM     14  C   UNL     1      28.878 -23.669 -15.717  0.00  0.00    +0.073 C 
ATOM     15  C   UNL     1      31.180 -24.543 -14.541  0.00  0.00    +0.099 C 
ATOM     16  C   UNL     1      28.888 -24.607 -14.697  0.00  0.00    +0.103 C 
BRANCH  14  19
ATOM     17  O   UNL     1      27.212 -23.882 -17.286  0.00  0.00    -0.270 OA
ATOM     18  N   UNL     1      26.979 -22.101 -15.790  0.00  0.00    -0.273 N 
ATOM     19  C   UNL     1      27.630 -23.231 -16.318  0.00  0.00    +0.251 C 
ATOM     20  C   UNL     1      25.734 -21.591 -16.348  0.00  0.00    +0.115 C 
ATOM     21  C   UNL     1      27.508 -21.362 -14.646  0.00  0.00    +0.115 C 
ENDBRANCH  14  19
ENDBRANCH   7  12
BRANCH   4  22
ATOM     22  C   UNL     1      36.805 -23.204 -13.948  0.00  0.00    +0.035 C 
ATOM     23  C   UNL     1      37.347 -24.488 -13.891  0.00  0.00    +0.139 C 
ATOM     24  C   UNL     1      36.804 -22.397 -12.810  0.00  0.00    +0.003 C 
ATOM     25  C   UNL     1      37.887 -24.965 -12.697  0.00  0.00    +0.037 C 
ATOM     26  C   UNL     1      37.344 -22.874 -11.617  0.00  0.00    +0.000 C 
ATOM     27  C   UNL     1      37.886 -24.157 -11.559  0.00  0.00    +0.003 C 
BRANCH  23  28
ATOM     28  O   UNL     1      37.360 -25.301 -14.986  0.00  0.00    -0.471 OA
ATOM     29  C   UNL     1      36.458 -26.405 -14.983  0.00  0.00    +0.252 C 
ENDBRANCH  23  28
ENDBRANCH   4  22
TORSDOF 4
ENDMDL
MODEL 4
REMARK VINA RESULT:     -11.6      3.272     10.035
REMARK  Name = 16750094
REMARK  4 active torsions:
REMARK  status: ('A' for Active; 'I' for Inactive)
REMARK    1  A    between atoms: C_4  and  C_22
REMARK    2  A    between atoms: C_7  and  C_12
REMARK    3  A    between atoms: C_14  and  C_19
REMARK    4  A    between atoms: C_23  and  O_28
REMARK                            x       y       z     vdW  Elec       q    Type
REMARK                         _______ _______ _______ _____ _____    ______ ____
ROOT
ATOM      1  N   UNL     1      32.838 -13.613 -25.455  0.00  0.00    -0.297 N 
ATOM      2  N   UNL     1      33.899 -15.768 -25.283  0.00  0.00    -0.229 NA
ATOM      3  C   UNL     1      33.238 -14.360 -23.389  0.00  0.00    +0.033 C 
ATOM      4  C   UNL     1      32.615 -13.086 -23.304  0.00  0.00    +0.020 C 
ATOM      5  C   UNL     1      33.363 -14.658 -24.742  0.00  0.00    +0.132 C 
ATOM      6  C   UNL     1      33.719 -15.308 -22.470  0.00  0.00    +0.004 C 
ATOM      7  C   UNL     1      34.284 -16.475 -22.978  0.00  0.00    +0.021 C 
ATOM      8  C   UNL     1      32.381 -12.651 -24.591  0.00  0.00    +0.063 C 
ATOM      9  C   UNL     1      34.345 -16.646 -24.354  0.00  0.00    +0.100 C 
ATOM     10  H   UNL     1      32.796 -13.559 -26.436  0.00  0.00    +0.154 HD
ENDROOT
BRANCH   7  12
ATOM     11  N   UNL     1      36.693 -18.489 -20.967  0.00  0.00    -0.242 NA
ATOM     12  C   UNL     1      34.797 -17.490 -22.085  0.00  0.00    +0.021 C 
ATOM     13  C   UNL     1      33.949 -18.421 -21.495  0.00  0.00    +0.008 C 
ATOM     14  C   UNL     1      34.471 -19.386 -20.641  0.00  0.00    +0.073 C 
ATOM     15  C   UNL     1      36.149 -17.567 -21.792  0.00  0.00    +0.099 C 
ATOM     16  C   UNL     1      35.838 -19.378 -20.411  0.00  0.00    +0.103 C 
BRANCH  14  19
ATOM     17  O   UNL     1      32.418 -20.372 -20.339  0.00  0.00    -0.270 OA
ATOM     18  N   UNL     1      34.166 -21.251 -19.060  0.00  0.00    -0.273 N 
ATOM     19  C   UNL     1      33.612 -20.372 -20.009  0.00  0.00    +0.251 C 
ATOM     20  C   UNL     1      33.366 -22.255 -18.372  0.00  0.00    +0.115 C 
ATOM     21  C   UNL     1      35.582 -21.216 -18.700  0.00  0.00    +0.115 C 
ENDBRANCH  14  19
ENDBRANCH   7  12
BRANCH   4  22
ATOM     22  C   UNL     1      32.254 -12.311 -22.153  0.00  0.00    +0.035 C 
ATOM     23  C   UNL     1      31.956 -10.953 -22.268  0.00  0.00    +0.139 C 
ATOM     24  C   UNL     1      32.203 -12.932 -20.904  0.00  0.00    +0.003 C 
ATOM     25  C   UNL     1      31.609 -10.217 -21.136  0.00  0.00    +0.037 C 
ATOM     26  C   UNL     1      31.855 -12.195 -19.773  0.00  0.00    +0.000 C 
ATOM     27  C   UNL     1      31.558 -10.838 -19.887  0.00  0.00    +0.003 C 
BRANCH  23  28
ATOM     28  O   UNL     1      32.000 -10.319 -23.474  0.00  0.00    -0.471 OA
ATOM     29  C   UNL     1      31.908  -8.896 -23.461  0.00  0.00    +0.252 C 
ENDBRANCH  23  28
ENDBRANCH   4  22
TORSDOF 4
ENDMDL
MODEL 5
REMARK VINA RESULT:     -11.6      6.161     13.035
REMARK  Name = 16750094
REMARK  4 active torsions:
REMARK  status: ('A' for Active; 'I' for Inactive)
REMARK    1  A    between atoms: C_4  and  C_22
REMARK    2  A    between atoms: C_7  and  C_12
REMARK    3  A    between atoms: C_14  and  C_19
REMARK    4  A    between atoms: C_23  and  O_28
REMARK                            x       y       z     vdW  Elec       q    Type
REMARK                         _______ _______ _______ _____ _____    ______ ____
ROOT
ATOM      1  N   UNL     1      31.164  -8.753 -20.677  0.00  0.00    -0.297 N 
ATOM      2  N   UNL     1      31.235 -11.160 -20.761  0.00  0.00    -0.229 NA
ATOM      3  C   UNL     1      32.182  -9.655 -22.448  0.00  0.00    +0.033 C 
ATOM      4  C   UNL     1      32.231  -8.239 -22.561  0.00  0.00    +0.020 C 
ATOM      5  C   UNL     1      31.510  -9.942 -21.264  0.00  0.00    +0.132 C 
ATOM      6  C   UNL     1      32.631 -10.741 -23.217  0.00  0.00    +0.004 C 
ATOM      7  C   UNL     1      32.372 -12.025 -22.741  0.00  0.00    +0.021 C 
ATOM      8  C   UNL     1      31.597  -7.712 -21.457  0.00  0.00    +0.063 C 
ATOM      9  C   UNL     1      31.690 -12.169 -21.541  0.00  0.00    +0.100 C 
ATOM     10  H   UNL     1      30.678  -8.661 -19.826  0.00  0.00    +0.154 HD
ENDROOT
BRANCH   7  12
ATOM     11  N   UNL     1      33.075 -14.288 -25.620  0.00  0.00    -0.242 NA
ATOM     12  C   UNL     1      32.807 -13.185 -23.486  0.00  0.00    +0.021 C 
ATOM     13  C   UNL     1      33.359 -14.286 -22.839  0.00  0.00    +0.008 C 
ATOM     14  C   UNL     1      33.770 -15.387 -23.582  0.00  0.00    +0.073 C 
ATOM     15  C   UNL     1      32.688 -13.235 -24.865  0.00  0.00    +0.099 C 
ATOM     16  C   UNL     1      33.607 -15.340 -24.957  0.00  0.00    +0.103 C 
BRANCH  14  19
ATOM     17  O   UNL     1      35.122 -16.346 -21.990  0.00  0.00    -0.270 OA
ATOM     18  N   UNL     1      34.023 -17.833 -23.420  0.00  0.00    -0.273 N 
ATOM     19  C   UNL     1      34.349 -16.552 -22.937  0.00  0.00    +0.251 C 
ATOM     20  C   UNL     1      34.577 -19.047 -22.837  0.00  0.00    +0.115 C 
ATOM     21  C   UNL     1      33.106 -18.032 -24.540  0.00  0.00    +0.115 C 
ENDBRANCH  14  19
ENDBRANCH   7  12
BRANCH   4  22
ATOM     22  C   UNL     1      32.805  -7.416 -23.584  0.00  0.00    +0.035 C 
ATOM     23  C   UNL     1      32.015  -6.535 -24.322  0.00  0.00    +0.139 C 
ATOM     24  C   UNL     1      34.174  -7.503 -23.839  0.00  0.00    +0.003 C 
ATOM     25  C   UNL     1      32.592  -5.743 -25.314  0.00  0.00    +0.037 C 
ATOM     26  C   UNL     1      34.751  -6.711 -24.830  0.00  0.00    +0.000 C 
ATOM     27  C   UNL     1      33.961  -5.830 -25.569  0.00  0.00    +0.003 C 
BRANCH  23  28
ATOM     28  O   UNL     1      30.674  -6.429 -24.097  0.00  0.00    -0.471 OA
ATOM     29  C   UNL     1      30.203  -5.197 -23.557  0.00  0.00    +0.252 C 
ENDBRANCH  23  28
ENDBRANCH   4  22
TORSDOF 4
ENDMDL
MODEL 6
REMARK VINA RESULT:     -11.0      3.511      8.483
REMARK  Name = 16750094
REMARK  4 active torsions:
REMARK  status: ('A' for Active; 'I' for Inactive)
REMARK    1  A    between atoms: C_4  and  C_22
REMARK    2  A    between atoms: C_7  and  C_12
REMARK    3  A    between atoms: C_14  and  C_19
REMARK    4  A    between atoms: C_23  and  O_28
REMARK                            x       y       z     vdW  Elec       q    Type
REMARK                         _______ _______ _______ _____ _____    ______ ____
ROOT
ATOM      1  N   UNL     1      36.459 -21.977 -16.961  0.00  0.00    -0.297 N 
ATOM      2  N   UNL     1      35.271 -23.205 -15.264  0.00  0.00    -0.229 NA
ATOM      3  C   UNL     1      34.240 -22.087 -17.186  0.00  0.00    +0.033 C 
ATOM      4  C   UNL     1      34.774 -21.332 -18.264  0.00  0.00    +0.020 C 
ATOM      5  C   UNL     1      35.316 -22.474 -16.393  0.00  0.00    +0.132 C 
ATOM      6  C   UNL     1      32.958 -22.495 -16.782  0.00  0.00    +0.004 C 
ATOM      7  C   UNL     1      32.855 -23.254 -15.618  0.00  0.00    +0.021 C 
ATOM      8  C   UNL     1      36.142 -21.281 -18.099  0.00  0.00    +0.063 C 
ATOM      9  C   UNL     1      34.013 -23.571 -14.921  0.00  0.00    +0.100 C 
ATOM     10  H   UNL     1      37.369 -22.100 -16.607  0.00  0.00    +0.154 HD
ENDROOT
BRANCH   7  12
ATOM     11  N   UNL     1      30.282 -24.984 -13.548  0.00  0.00    -0.242 NA
ATOM     12  C   UNL     1      31.564 -23.705 -15.148  0.00  0.00    +0.021 C 
ATOM     13  C   UNL     1      30.393 -23.326 -15.795  0.00  0.00    +0.008 C 
ATOM     14  C   UNL     1      29.166 -23.775 -15.320  0.00  0.00    +0.073 C 
ATOM     15  C   UNL     1      31.455 -24.528 -14.039  0.00  0.00    +0.099 C 
ATOM     16  C   UNL     1      29.164 -24.595 -14.203  0.00  0.00    +0.103 C 
BRANCH  14  19
ATOM     17  O   UNL     1      27.529 -24.125 -16.894  0.00  0.00    -0.270 OA
ATOM     18  N   UNL     1      27.255 -22.236 -15.545  0.00  0.00    -0.273 N 
ATOM     19  C   UNL     1      27.925 -23.397 -15.973  0.00  0.00    +0.251 C 
ATOM     20  C   UNL     1      26.015 -21.784 -16.161  0.00  0.00    +0.115 C 
ATOM     21  C   UNL     1      27.757 -21.406 -14.453  0.00  0.00    +0.115 C 
ENDBRANCH  14  19
ENDBRANCH   7  12
BRANCH   4  22
ATOM     22  C   UNL     1      34.109 -20.699 -19.366  0.00  0.00    +0.035 C 
ATOM     23  C   UNL     1      34.810 -19.879 -20.251  0.00  0.00    +0.139 C 
ATOM     24  C   UNL     1      32.742 -20.912 -19.547  0.00  0.00    +0.003 C 
ATOM     25  C   UNL     1      34.144 -19.272 -21.315  0.00  0.00    +0.037 C 
ATOM     26  C   UNL     1      32.077 -20.305 -20.612  0.00  0.00    +0.000 C 
ATOM     27  C   UNL     1      32.777 -19.485 -21.496  0.00  0.00    +0.003 C 
BRANCH  23  28
ATOM     28  O   UNL     1      36.146 -19.651 -20.097  0.00  0.00    -0.471 OA
ATOM     29  C   UNL     1      36.721 -18.620 -20.895  0.00  0.00    +0.252 C 
ENDBRANCH  23  28
ENDBRANCH   4  22
TORSDOF 4
ENDMDL
MODEL 7
REMARK VINA RESULT:     -10.9      1.905      3.289
REMARK  Name = 16750094
REMARK  4 active torsions:
REMARK  status: ('A' for Active; 'I' for Inactive)
REMARK    1  A    between atoms: C_4  and  C_22
REMARK    2  A    between atoms: C_7  and  C_12
REMARK    3  A    between atoms: C_14  and  C_19
REMARK    4  A    between atoms: C_23  and  O_28
REMARK                            x       y       z     vdW  Elec       q    Type
REMARK                         _______ _______ _______ _____ _____    ______ ____
ROOT
ATOM      1  N   UNL     1      31.500 -23.974 -14.416  0.00  0.00    -0.297 N 
ATOM      2  N   UNL     1      31.400 -22.894 -16.566  0.00  0.00    -0.229 NA
ATOM      3  C   UNL     1      33.426 -23.174 -15.215  0.00  0.00    +0.033 C 
ATOM      4  C   UNL     1      33.666 -23.772 -13.948  0.00  0.00    +0.020 C 
ATOM      5  C   UNL     1      32.066 -23.317 -15.476  0.00  0.00    +0.132 C 
ATOM      6  C   UNL     1      34.205 -22.521 -16.183  0.00  0.00    +0.004 C 
ATOM      7  C   UNL     1      33.565 -22.063 -17.332  0.00  0.00    +0.021 C 
ATOM      8  C   UNL     1      32.463 -24.255 -13.481  0.00  0.00    +0.063 C 
ATOM      9  C   UNL     1      32.199 -22.273 -17.466  0.00  0.00    +0.100 C 
ATOM     10  H   UNL     1      30.547 -24.208 -14.337  0.00  0.00    +0.154 HD
ENDROOT
BRANCH   7  12
ATOM     11  N   UNL     1      36.453 -20.764 -19.300  0.00  0.00    -0.242 NA
ATOM     12  C   UNL     1      34.311 -21.382 -18.366  0.00  0.00    +0.021 C 
ATOM     13  C   UNL     1      33.660 -20.709 -19.395  0.00  0.00    +0.008 C 
ATOM     14  C   UNL     1      34.405 -20.064 -20.376  0.00  0.00    +0.073 C 
ATOM     15  C   UNL     1      35.696 -21.379 -18.364  0.00  0.00    +0.099 C 
ATOM     16  C   UNL     1      35.786 -20.120 -20.284  0.00  0.00    +0.103 C 
BRANCH  14  19
ATOM     17  O   UNL     1      32.544 -19.557 -21.626  0.00  0.00    -0.270 OA
ATOM     18  N   UNL     1      34.523 -18.493 -22.271  0.00  0.00    -0.273 N 
ATOM     19  C   UNL     1      33.756 -19.353 -21.463  0.00  0.00    +0.251 C 
ATOM     20  C   UNL     1      33.948 -17.759 -23.389  0.00  0.00    +0.115 C 
ATOM     21  C   UNL     1      35.951 -18.280 -22.043  0.00  0.00    +0.115 C 
ENDBRANCH  14  19
ENDBRANCH   7  12
BRANCH   4  22
ATOM     22  C   UNL     1      34.887 -23.902 -13.208  0.00  0.00    +0.035 C 
ATOM     23  C   UNL     1      35.966 -24.619 -13.725  0.00  0.00    +0.139 C 
ATOM     24  C   UNL     1      34.988 -23.300 -11.953  0.00  0.00    +0.003 C 
ATOM     25  C   UNL     1      37.144 -24.734 -12.988  0.00  0.00    +0.037 C 
ATOM     26  C   UNL     1      36.167 -23.415 -11.217  0.00  0.00    +0.000 C 
ATOM     27  C   UNL     1      37.245 -24.132 -11.734  0.00  0.00    +0.003 C 
BRANCH  23  28
ATOM     28  O   UNL     1      35.896 -25.219 -14.947  0.00  0.00    -0.471 OA
ATOM     29  C   UNL     1      36.459 -26.524 -15.060  0.00  0.00    +0.252 C 
ENDBRANCH  23  28
ENDBRANCH   4  22
TORSDOF 4
ENDMDL
MODEL 8
REMARK VINA RESULT:     -10.3      3.970      8.184
REMARK  Name = 16750094
REMARK  4 active torsions:
REMARK  status: ('A' for Active; 'I' for Inactive)
REMARK    1  A    between atoms: C_4  and  C_22
REMARK    2  A    between atoms: C_7  and  C_12
REMARK    3  A    between atoms: C_14  and  C_19
REMARK    4  A    between atoms: C_23  and  O_28
REMARK                            x       y       z     vdW  Elec       q    Type
REMARK                         _______ _______ _______ _____ _____    ______ ____
ROOT
ATOM      1  N   UNL     1      37.448 -22.625 -15.327  0.00  0.00    -0.297 N 
ATOM      2  N   UNL     1      35.907 -23.533 -13.712  0.00  0.00    -0.229 NA
ATOM      3  C   UNL     1      35.277 -22.456 -15.822  0.00  0.00    +0.033 C 
ATOM      4  C   UNL     1      36.036 -21.874 -16.874  0.00  0.00    +0.020 C 
ATOM      5  C   UNL     1      36.187 -22.913 -14.874  0.00  0.00    +0.132 C 
ATOM      6  C   UNL     1      33.912 -22.652 -15.556  0.00  0.00    +0.004 C 
ATOM      7  C   UNL     1      33.567 -23.288 -14.366  0.00  0.00    +0.021 C 
ATOM      8  C   UNL     1      37.368 -21.993 -16.540  0.00  0.00    +0.063 C 
ATOM      9  C   UNL     1      34.579 -23.695 -13.507  0.00  0.00    +0.100 C 
ATOM     10  H   UNL     1      38.283 -22.838 -14.852  0.00  0.00    +0.154 HD
ENDROOT
BRANCH   7  12
ATOM     11  N   UNL     1      30.541 -24.764 -12.765  0.00  0.00    -0.242 NA
ATOM     12  C   UNL     1      32.179 -23.520 -14.033  0.00  0.00    +0.021 C 
ATOM     13  C   UNL     1      31.166 -22.769 -14.619  0.00  0.00    +0.008 C 
ATOM     14  C   UNL     1      29.841 -23.014 -14.279  0.00  0.00    +0.073 C 
ATOM     15  C   UNL     1      31.817 -24.497 -13.120  0.00  0.00    +0.099 C 
ATOM     16  C   UNL     1      29.583 -24.014 -13.355  0.00  0.00    +0.103 C 
BRANCH  14  19
ATOM     17  O   UNL     1      28.537 -21.126 -14.397  0.00  0.00    -0.270 OA
ATOM     18  N   UNL     1      28.024 -22.813 -15.931  0.00  0.00    -0.273 N 
ATOM     19  C   UNL     1      28.760 -22.248 -14.874  0.00  0.00    +0.251 C 
ATOM     20  C   UNL     1      26.916 -22.114 -16.567  0.00  0.00    +0.115 C 
ATOM     21  C   UNL     1      28.321 -24.141 -16.464  0.00  0.00    +0.115 C 
ENDBRANCH  14  19
ENDBRANCH   7  12
BRANCH   4  22
ATOM     22  C   UNL     1      35.600 -21.255 -18.091  0.00  0.00    +0.035 C 
ATOM     23  C   UNL     1      34.386 -21.610 -18.681  0.00  0.00    +0.139 C 
ATOM     24  C   UNL     1      36.406 -20.286 -18.687  0.00  0.00    +0.003 C 
ATOM     25  C   UNL     1      33.981 -20.997 -19.866  0.00  0.00    +0.037 C 
ATOM     26  C   UNL     1      36.000 -19.673 -19.872  0.00  0.00    +0.000 C 
ATOM     27  C   UNL     1      34.787 -20.028 -20.462  0.00  0.00    +0.003 C 
BRANCH  23  28
ATOM     28  O   UNL     1      33.578 -22.556 -18.122  0.00  0.00    -0.471 OA
ATOM     29  C   UNL     1      32.204 -22.215 -17.953  0.00  0.00    +0.252 C 
ENDBRANCH  23  28
ENDBRANCH   4  22
TORSDOF 4
ENDMDL
MODEL 9
REMARK VINA RESULT:     -10.2      6.396     12.508
REMARK  Name = 16750094
REMARK  4 active torsions:
REMARK  status: ('A' for Active; 'I' for Inactive)
REMARK    1  A    between atoms: C_4  and  C_22
REMARK    2  A    between atoms: C_7  and  C_12
REMARK    3  A    between atoms: C_14  and  C_19
REMARK    4  A    between atoms: C_23  and  O_28
REMARK                            x       y       z     vdW  Elec       q    Type
REMARK                         _______ _______ _______ _____ _____    ______ ____
ROOT
ATOM      1  N   UNL     1      31.254  -9.961 -19.138  0.00  0.00    -0.297 N 
ATOM      2  N   UNL     1      31.914 -12.161 -19.864  0.00  0.00    -0.229 NA
ATOM      3  C   UNL     1      31.595 -10.221 -21.329  0.00  0.00    +0.033 C 
ATOM      4  C   UNL     1      31.215  -8.875 -21.080  0.00  0.00    +0.020 C 
ATOM      5  C   UNL     1      31.609 -10.870 -20.098  0.00  0.00    +0.132 C 
ATOM      6  C   UNL     1      31.933 -10.977 -22.463  0.00  0.00    +0.004 C 
ATOM      7  C   UNL     1      32.257 -12.320 -22.277  0.00  0.00    +0.021 C 
ATOM      8  C   UNL     1      31.011  -8.745 -19.723  0.00  0.00    +0.063 C 
ATOM      9  C   UNL     1      32.231 -12.841 -20.991  0.00  0.00    +0.100 C 
ATOM     10  H   UNL     1      31.182 -10.151 -18.175  0.00  0.00    +0.154 HD
ENDROOT
BRANCH   7  12
ATOM     11  N   UNL     1      32.866 -13.391 -25.795  0.00  0.00    -0.242 NA
ATOM     12  C   UNL     1      32.613 -13.152 -23.403  0.00  0.00    +0.021 C 
ATOM     13  C   UNL     1      33.032 -14.466 -23.220  0.00  0.00    +0.008 C 
ATOM     14  C   UNL     1      33.368 -15.242 -24.323  0.00  0.00    +0.073 C 
ATOM     15  C   UNL     1      32.548 -12.667 -24.700  0.00  0.00    +0.099 C 
ATOM     16  C   UNL     1      33.269 -14.664 -25.578  0.00  0.00    +0.103 C 
BRANCH  14  19
ATOM     17  O   UNL     1      33.560 -17.398 -25.095  0.00  0.00    -0.270 OA
ATOM     18  N   UNL     1      34.472 -16.990 -22.981  0.00  0.00    -0.273 N 
ATOM     19  C   UNL     1      33.809 -16.617 -24.166  0.00  0.00    +0.251 C 
ATOM     20  C   UNL     1      34.929 -18.352 -22.744  0.00  0.00    +0.115 C 
ATOM     21  C   UNL     1      34.746 -16.036 -21.910  0.00  0.00    +0.115 C 
ENDBRANCH  14  19
ENDBRANCH   7  12
BRANCH   4  22
ATOM     22  C   UNL     1      31.045  -7.782 -21.991  0.00  0.00    +0.035 C 
ATOM     23  C   UNL     1      31.132  -6.461 -21.550  0.00  0.00    +0.139 C 
ATOM     24  C   UNL     1      30.790  -8.051 -23.336  0.00  0.00    +0.003 C 
ATOM     25  C   UNL     1      30.962  -5.411 -22.452  0.00  0.00    +0.037 C 
ATOM     26  C   UNL     1      30.622  -7.001 -24.238  0.00  0.00    +0.000 C 
ATOM     27  C   UNL     1      30.708  -5.681 -23.797  0.00  0.00    +0.003 C 
BRANCH  23  28
ATOM     28  O   UNL     1      31.378  -6.167 -20.241  0.00  0.00    -0.471 OA
ATOM     29  C   UNL     1      32.176  -5.016 -19.976  0.00  0.00    +0.252 C 
ENDBRANCH  23  28
ENDBRANCH   4  22
TORSDOF 4
ENDMDL
