MODEL 1
REMARK VINA RESULT:     -11.1      0.000      0.000
REMARK  Name = 9886249
REMARK  2 active torsions:
REMARK  status: ('A' for Active; 'I' for Inactive)
REMARK    1  A    between atoms: C_16  and  C_25
REMARK    2  A    between atoms: C_29  and  C_31
REMARK                            x       y       z     vdW  Elec       q    Type
REMARK                         _______ _______ _______ _____ _____    ______ ____
ROOT
ATOM      1  F   UNL     1      29.664 -10.381 -21.288  0.00  0.00    -0.203 F 
ATOM      2  F   UNL     1      34.088  -7.513 -22.717  0.00  0.00    -0.204 F 
ATOM      3  O   UNL     1      32.974 -16.981 -25.209  0.00  0.00    -0.270 OA
ATOM      4  N   UNL     1      33.638 -14.981 -24.189  0.00  0.00    -0.276 N 
ATOM      5  N   UNL     1      31.566 -11.613 -22.869  0.00  0.00    -0.316 N 
ATOM      6  N   UNL     1      33.764 -11.471 -24.060  0.00  0.00    -0.242 NA
ATOM      7  N   UNL     1      34.885  -9.468 -24.261  0.00  0.00    -0.343 N 
ATOM      8  C   UNL     1      32.680 -12.297 -23.506  0.00  0.00    +0.145 C 
ATOM      9  C   UNL     1      32.099 -13.124 -24.679  0.00  0.00    +0.063 C 
ATOM     10  C   UNL     1      33.307 -13.254 -22.463  0.00  0.00    +0.063 C 
ATOM     11  C   UNL     1      33.099 -14.131 -25.248  0.00  0.00    +0.097 C 
ATOM     12  C   UNL     1      34.279 -14.259 -23.086  0.00  0.00    +0.097 C 
ATOM     13  C   UNL     1      31.738 -10.309 -22.446  0.00  0.00    +0.078 C 
ATOM     14  C   UNL     1      33.855 -10.216 -23.740  0.00  0.00    +0.126 C 
ATOM     15  C   UNL     1      32.861  -9.565 -22.832  0.00  0.00    +0.074 C 
ATOM     16  C   UNL     1      33.512 -16.369 -24.288  0.00  0.00    +0.251 C 
ATOM     17  C   UNL     1      30.766  -9.700 -21.638  0.00  0.00    +0.153 C 
ATOM     18  C   UNL     1      33.018  -8.246 -22.384  0.00  0.00    +0.144 C 
ATOM     19  C   UNL     1      30.920  -8.386 -21.199  0.00  0.00    +0.033 C 
ATOM     20  C   UNL     1      32.048  -7.662 -21.568  0.00  0.00    +0.032 C 
ATOM     21  H   UNL     1      30.704 -12.072 -22.740  0.00  0.00    +0.148 HD
ATOM     22  H   UNL     1      35.545  -9.888 -24.860  0.00  0.00    +0.144 HD
ATOM     23  H   UNL     1      34.963  -8.513 -24.036  0.00  0.00    +0.144 HD
ENDROOT
BRANCH  16  25
ATOM     24  N   UNL     1      34.326 -19.362 -22.193  0.00  0.00    -0.233 NA
ATOM     25  C   UNL     1      34.064 -17.187 -23.203  0.00  0.00    +0.073 C 
ATOM     26  C   UNL     1      34.818 -16.610 -22.192  0.00  0.00    +0.008 C 
ATOM     27  C   UNL     1      33.847 -18.551 -23.163  0.00  0.00    +0.104 C 
ATOM     28  C   UNL     1      35.328 -17.411 -21.176  0.00  0.00    +0.030 C 
ATOM     29  C   UNL     1      35.057 -18.768 -21.222  0.00  0.00    +0.149 C 
BRANCH  29  31
ATOM     30  N   UNL     1      35.942 -20.379 -19.396  0.00  0.00    -0.189 NA
ATOM     31  C   UNL     1      35.545 -19.655 -20.217  0.00  0.00    +0.120 C 
ENDBRANCH  29  31
ENDBRANCH  16  25
TORSDOF 2
ENDMDL
MODEL 2
REMARK VINA RESULT:     -10.1      3.733      9.037
REMARK  Name = 9886249
REMARK  2 active torsions:
REMARK  status: ('A' for Active; 'I' for Inactive)
REMARK    1  A    between atoms: C_16  and  C_25
REMARK    2  A    between atoms: C_29  and  C_31
REMARK                            x       y       z     vdW  Elec       q    Type
REMARK                         _______ _______ _______ _____ _____    ______ ____
ROOT
ATOM      1  F   UNL     1      32.633 -15.073 -25.935  0.00  0.00    -0.203 F 
ATOM      2  F   UNL     1      35.073 -15.935 -21.124  0.00  0.00    -0.204 F 
ATOM      3  O   UNL     1      30.127  -7.634 -23.057  0.00  0.00    -0.270 OA
ATOM      4  N   UNL     1      31.804  -9.226 -22.693  0.00  0.00    -0.276 N 
ATOM      5  N   UNL     1      32.341 -13.161 -23.960  0.00  0.00    -0.316 N 
ATOM      6  N   UNL     1      32.873 -12.403 -21.633  0.00  0.00    -0.242 NA
ATOM      7  N   UNL     1      33.934 -13.796 -20.137  0.00  0.00    -0.343 N 
ATOM      8  C   UNL     1      32.393 -12.083 -22.987  0.00  0.00    +0.145 C 
ATOM      9  C   UNL     1      30.953 -11.531 -22.837  0.00  0.00    +0.063 C 
ATOM     10  C   UNL     1      33.311 -10.974 -23.558  0.00  0.00    +0.063 C 
ATOM     11  C   UNL     1      30.903 -10.202 -22.084  0.00  0.00    +0.097 C 
ATOM     12  C   UNL     1      33.203  -9.656 -22.787  0.00  0.00    +0.097 C 
ATOM     13  C   UNL     1      33.093 -14.299 -23.735  0.00  0.00    +0.078 C 
ATOM     14  C   UNL     1      33.485 -13.525 -21.409  0.00  0.00    +0.126 C 
ATOM     15  C   UNL     1      33.699 -14.532 -22.493  0.00  0.00    +0.074 C 
ATOM     16  C   UNL     1      31.299  -8.000 -23.131  0.00  0.00    +0.251 C 
ATOM     17  C   UNL     1      33.237 -15.256 -24.750  0.00  0.00    +0.153 C 
ATOM     18  C   UNL     1      34.464 -15.690 -22.291  0.00  0.00    +0.144 C 
ATOM     19  C   UNL     1      33.991 -16.410 -24.545  0.00  0.00    +0.033 C 
ATOM     20  C   UNL     1      34.608 -16.623 -23.318  0.00  0.00    +0.032 C 
ATOM     21  H   UNL     1      31.781 -13.083 -24.766  0.00  0.00    +0.148 HD
ATOM     22  H   UNL     1      33.798 -13.140 -19.416  0.00  0.00    +0.144 HD
ATOM     23  H   UNL     1      34.392 -14.647 -19.948  0.00  0.00    +0.144 HD
ENDROOT
BRANCH  16  25
ATOM     24  N   UNL     1      32.993  -5.875 -25.705  0.00  0.00    -0.233 NA
ATOM     25  C   UNL     1      32.237  -7.049 -23.738  0.00  0.00    +0.073 C 
ATOM     26  C   UNL     1      33.220  -6.437 -22.976  0.00  0.00    +0.008 C 
ATOM     27  C   UNL     1      32.161  -6.741 -25.083  0.00  0.00    +0.104 C 
ATOM     28  C   UNL     1      34.096  -5.541 -23.579  0.00  0.00    +0.030 C 
ATOM     29  C   UNL     1      33.941  -5.295 -24.933  0.00  0.00    +0.149 C 
BRANCH  29  31
ATOM     30  N   UNL     1      35.500  -3.650 -26.189  0.00  0.00    -0.189 NA
ATOM     31  C   UNL     1      34.799  -4.389 -25.624  0.00  0.00    +0.120 C 
ENDBRANCH  29  31
ENDBRANCH  16  25
TORSDOF 2
ENDMDL
MODEL 3
REMARK VINA RESULT:      -9.2      6.941     10.447
REMARK  Name = 9886249
REMARK  2 active torsions:
REMARK  status: ('A' for Active; 'I' for Inactive)
REMARK    1  A    between atoms: C_16  and  C_25
REMARK    2  A    between atoms: C_29  and  C_31
REMARK                            x       y       z     vdW  Elec       q    Type
REMARK                         _______ _______ _______ _____ _____    ______ ____
ROOT
ATOM      1  F   UNL     1      31.536 -10.254 -23.080  0.00  0.00    -0.203 F 
ATOM      2  F   UNL     1      31.356  -6.839 -18.820  0.00  0.00    -0.204 F 
ATOM      3  O   UNL     1      32.834  -3.636 -28.021  0.00  0.00    -0.270 OA
ATOM      4  N   UNL     1      33.109  -4.291 -25.790  0.00  0.00    -0.276 N 
ATOM      5  N   UNL     1      31.737  -7.542 -23.569  0.00  0.00    -0.316 N 
ATOM      6  N   UNL     1      31.810  -5.211 -22.656  0.00  0.00    -0.242 NA
ATOM      7  N   UNL     1      31.358  -4.784 -20.438  0.00  0.00    -0.343 N 
ATOM      8  C   UNL     1      32.062  -6.139 -23.770  0.00  0.00    +0.145 C 
ATOM      9  C   UNL     1      31.221  -5.641 -24.972  0.00  0.00    +0.063 C 
ATOM     10  C   UNL     1      33.567  -6.047 -24.123  0.00  0.00    +0.063 C 
ATOM     11  C   UNL     1      31.679  -4.278 -25.492  0.00  0.00    +0.097 C 
ATOM     12  C   UNL     1      33.968  -4.674 -24.665  0.00  0.00    +0.097 C 
ATOM     13  C   UNL     1      31.603  -8.018 -22.279  0.00  0.00    +0.078 C 
ATOM     14  C   UNL     1      31.579  -5.672 -21.465  0.00  0.00    +0.126 C 
ATOM     15  C   UNL     1      31.534  -7.140 -21.188  0.00  0.00    +0.074 C 
ATOM     16  C   UNL     1      33.549  -3.956 -27.072  0.00  0.00    +0.251 C 
ATOM     17  C   UNL     1      31.510  -9.398 -22.047  0.00  0.00    +0.153 C 
ATOM     18  C   UNL     1      31.406  -7.647 -19.886  0.00  0.00    +0.144 C 
ATOM     19  C   UNL     1      31.376  -9.899 -20.753  0.00  0.00    +0.033 C 
ATOM     20  C   UNL     1      31.330  -9.024 -19.674  0.00  0.00    +0.032 C 
ATOM     21  H   UNL     1      31.614  -8.143 -24.340  0.00  0.00    +0.148 HD
ATOM     22  H   UNL     1      31.385  -3.815 -20.610  0.00  0.00    +0.144 HD
ATOM     23  H   UNL     1      31.172  -5.117 -19.531  0.00  0.00    +0.144 HD
ENDROOT
BRANCH  16  25
ATOM     24  N   UNL     1      36.880  -5.079 -28.358  0.00  0.00    -0.233 NA
ATOM     25  C   UNL     1      34.993  -3.983 -27.332  0.00  0.00    +0.073 C 
ATOM     26  C   UNL     1      35.823  -2.993 -26.828  0.00  0.00    +0.008 C 
ATOM     27  C   UNL     1      35.559  -4.994 -28.083  0.00  0.00    +0.104 C 
ATOM     28  C   UNL     1      37.188  -3.044 -27.088  0.00  0.00    +0.030 C 
ATOM     29  C   UNL     1      37.662  -4.098 -27.853  0.00  0.00    +0.149 C 
BRANCH  29  31
ATOM     30  N   UNL     1      40.181  -4.322 -28.417  0.00  0.00    -0.189 NA
ATOM     31  C   UNL     1      39.049  -4.221 -28.164  0.00  0.00    +0.120 C 
ENDBRANCH  29  31
ENDBRANCH  16  25
TORSDOF 2
ENDMDL
MODEL 4
REMARK VINA RESULT:      -9.2      6.028     10.238
REMARK  Name = 9886249
REMARK  2 active torsions:
REMARK  status: ('A' for Active; 'I' for Inactive)
REMARK    1  A    between atoms: C_16  and  C_25
REMARK    2  A    between atoms: C_29  and  C_31
REMARK                            x       y       z     vdW  Elec       q    Type
REMARK                         _______ _______ _______ _____ _____    ______ ____
ROOT
ATOM      1  F   UNL     1      31.424 -11.513 -23.310  0.00  0.00    -0.203 F 
ATOM      2  F   UNL     1      31.727  -9.274 -18.336  0.00  0.00    -0.204 F 
ATOM      3  O   UNL     1      31.592  -3.799 -26.528  0.00  0.00    -0.270 OA
ATOM      4  N   UNL     1      32.243  -4.952 -24.598  0.00  0.00    -0.276 N 
ATOM      5  N   UNL     1      31.404  -8.757 -23.114  0.00  0.00    -0.316 N 
ATOM      6  N   UNL     1      31.495  -6.723 -21.655  0.00  0.00    -0.242 NA
ATOM      7  N   UNL     1      31.370  -6.894 -19.361  0.00  0.00    -0.343 N 
ATOM      8  C   UNL     1      31.620  -7.324 -22.992  0.00  0.00    +0.145 C 
ATOM      9  C   UNL     1      30.578  -6.625 -23.901  0.00  0.00    +0.063 C 
ATOM     10  C   UNL     1      33.045  -7.014 -23.513  0.00  0.00    +0.063 C 
ATOM     11  C   UNL     1      30.877  -5.141 -24.114  0.00  0.00    +0.097 C 
ATOM     12  C   UNL     1      33.285  -5.519 -23.736  0.00  0.00    +0.097 C 
ATOM     13  C   UNL     1      31.497  -9.544 -21.982  0.00  0.00    +0.078 C 
ATOM     14  C   UNL     1      31.476  -7.480 -20.601  0.00  0.00    +0.126 C 
ATOM     15  C   UNL     1      31.551  -8.970 -20.704  0.00  0.00    +0.074 C 
ATOM     16  C   UNL     1      32.461  -4.275 -25.800  0.00  0.00    +0.251 C 
ATOM     17  C   UNL     1      31.513 -10.941 -22.099  0.00  0.00    +0.153 C 
ATOM     18  C   UNL     1      31.654  -9.788 -19.570  0.00  0.00    +0.144 C 
ATOM     19  C   UNL     1      31.608 -11.754 -20.970  0.00  0.00    +0.033 C 
ATOM     20  C   UNL     1      31.684 -11.177 -19.708  0.00  0.00    +0.032 C 
ATOM     21  H   UNL     1      31.195  -9.159 -23.988  0.00  0.00    +0.148 HD
ATOM     22  H   UNL     1      31.319  -5.913 -19.282  0.00  0.00    +0.144 HD
ATOM     23  H   UNL     1      31.345  -7.454 -18.552  0.00  0.00    +0.144 HD
ENDROOT
BRANCH  16  25
ATOM     24  N   UNL     1      35.707  -2.636 -26.687  0.00  0.00    -0.233 NA
ATOM     25  C   UNL     1      33.847  -4.108 -26.252  0.00  0.00    +0.073 C 
ATOM     26  C   UNL     1      34.597  -5.201 -26.659  0.00  0.00    +0.008 C 
ATOM     27  C   UNL     1      34.437  -2.859 -26.281  0.00  0.00    +0.104 C 
ATOM     28  C   UNL     1      35.908  -5.012 -27.084  0.00  0.00    +0.030 C 
ATOM     29  C   UNL     1      36.412  -3.722 -27.078  0.00  0.00    +0.149 C 
BRANCH  29  31
ATOM     30  N   UNL     1      38.836  -3.222 -27.843  0.00  0.00    -0.189 NA
ATOM     31  C   UNL     1      37.746  -3.447 -27.499  0.00  0.00    +0.120 C 
ENDBRANCH  29  31
ENDBRANCH  16  25
TORSDOF 2
ENDMDL
MODEL 5
REMARK VINA RESULT:      -8.8      8.620     13.859
REMARK  Name = 9886249
REMARK  2 active torsions:
REMARK  status: ('A' for Active; 'I' for Inactive)
REMARK    1  A    between atoms: C_16  and  C_25
REMARK    2  A    between atoms: C_29  and  C_31
REMARK                            x       y       z     vdW  Elec       q    Type
REMARK                         _______ _______ _______ _____ _____    ______ ____
ROOT
ATOM      1  F   UNL     1      37.568 -26.840 -14.624  0.00  0.00    -0.203 F 
ATOM      2  F   UNL     1      36.249 -23.757 -10.311  0.00  0.00    -0.204 F 
ATOM      3  O   UNL     1      32.131 -22.394 -19.159  0.00  0.00    -0.270 OA
ATOM      4  N   UNL     1      33.437 -22.199 -17.226  0.00  0.00    -0.276 N 
ATOM      5  N   UNL     1      35.588 -24.937 -14.934  0.00  0.00    -0.316 N 
ATOM      6  N   UNL     1      34.219 -23.102 -13.920  0.00  0.00    -0.242 NA
ATOM      7  N   UNL     1      34.285 -22.674 -11.657  0.00  0.00    -0.343 N 
ATOM      8  C   UNL     1      34.717 -23.788 -15.122  0.00  0.00    +0.145 C 
ATOM      9  C   UNL     1      33.477 -24.278 -15.909  0.00  0.00    +0.063 C 
ATOM     10  C   UNL     1      35.486 -22.746 -15.971  0.00  0.00    +0.063 C 
ATOM     11  C   UNL     1      32.623 -23.129 -16.447  0.00  0.00    +0.097 C 
ATOM     12  C   UNL     1      34.583 -21.633 -16.508  0.00  0.00    +0.097 C 
ATOM     13  C   UNL     1      36.231 -25.095 -13.720  0.00  0.00    +0.078 C 
ATOM     14  C   UNL     1      34.760 -23.337 -12.764  0.00  0.00    +0.126 C 
ATOM     15  C   UNL     1      35.876 -24.321 -12.608  0.00  0.00    +0.074 C 
ATOM     16  C   UNL     1      33.090 -21.922 -18.550  0.00  0.00    +0.251 C 
ATOM     17  C   UNL     1      37.239 -26.061 -13.582  0.00  0.00    +0.153 C 
ATOM     18  C   UNL     1      36.548 -24.493 -11.389  0.00  0.00    +0.144 C 
ATOM     19  C   UNL     1      37.901 -26.236 -12.368  0.00  0.00    +0.033 C 
ATOM     20  C   UNL     1      37.559 -25.448 -11.275  0.00  0.00    +0.032 C 
ATOM     21  H   UNL     1      35.718 -25.592 -15.658  0.00  0.00    +0.148 HD
ATOM     22  H   UNL     1      33.550 -22.025 -11.750  0.00  0.00    +0.144 HD
ATOM     23  H   UNL     1      34.678 -22.848 -10.772  0.00  0.00    +0.144 HD
ENDROOT
BRANCH  16  25
ATOM     24  N   UNL     1      36.138 -20.135 -19.784  0.00  0.00    -0.233 NA
ATOM     25  C   UNL     1      33.934 -20.984 -19.299  0.00  0.00    +0.073 C 
ATOM     26  C   UNL     1      33.374 -20.089 -20.198  0.00  0.00    +0.008 C 
ATOM     27  C   UNL     1      35.305 -20.972 -19.127  0.00  0.00    +0.104 C 
ATOM     28  C   UNL     1      34.199 -19.211 -20.894  0.00  0.00    +0.030 C 
ATOM     29  C   UNL     1      35.562 -19.274 -20.654  0.00  0.00    +0.149 C 
BRANCH  29  31
ATOM     30  N   UNL     1      37.216 -17.701 -21.878  0.00  0.00    -0.189 NA
ATOM     31  C   UNL     1      36.472 -18.408 -21.327  0.00  0.00    +0.120 C 
ENDBRANCH  29  31
ENDBRANCH  16  25
TORSDOF 2
ENDMDL
MODEL 6
REMARK VINA RESULT:      -8.7      6.959     10.336
REMARK  Name = 9886249
REMARK  2 active torsions:
REMARK  status: ('A' for Active; 'I' for Inactive)
REMARK    1  A    between atoms: C_16  and  C_25
REMARK    2  A    between atoms: C_29  and  C_31
REMARK                            x       y       z     vdW  Elec       q    Type
REMARK                         _______ _______ _______ _____ _____    ______ ____
ROOT
ATOM      1  F   UNL     1      30.010 -10.199 -22.858  0.00  0.00    -0.203 F 
ATOM      2  F   UNL     1      32.387  -8.564 -18.219  0.00  0.00    -0.204 F 
ATOM      3  O   UNL     1      31.947  -2.777 -26.181  0.00  0.00    -0.270 OA
ATOM      4  N   UNL     1      32.655  -4.220 -24.480  0.00  0.00    -0.276 N 
ATOM      5  N   UNL     1      30.992  -7.619 -22.731  0.00  0.00    -0.316 N 
ATOM      6  N   UNL     1      32.163  -5.848 -21.404  0.00  0.00    -0.242 NA
ATOM      7  N   UNL     1      32.608  -6.134 -19.162  0.00  0.00    -0.343 N 
ATOM      8  C   UNL     1      31.710  -6.355 -22.708  0.00  0.00    +0.145 C 
ATOM      9  C   UNL     1      30.769  -5.282 -23.309  0.00  0.00    +0.063 C 
ATOM     10  C   UNL     1      32.960  -6.505 -23.611  0.00  0.00    +0.063 C 
ATOM     11  C   UNL     1      31.491  -3.974 -23.632  0.00  0.00    +0.097 C 
ATOM     12  C   UNL     1      33.629  -5.166 -23.928  0.00  0.00    +0.097 C 
ATOM     13  C   UNL     1      31.109  -8.472 -21.650  0.00  0.00    +0.078 C 
ATOM     14  C   UNL     1      32.169  -6.629 -20.367  0.00  0.00    +0.126 C 
ATOM     15  C   UNL     1      31.698  -8.046 -20.452  0.00  0.00    +0.074 C 
ATOM     16  C   UNL     1      32.761  -3.569 -25.711  0.00  0.00    +0.251 C 
ATOM     17  C   UNL     1      30.612  -9.781 -21.734  0.00  0.00    +0.153 C 
ATOM     18  C   UNL     1      31.813  -8.932 -19.371  0.00  0.00    +0.144 C 
ATOM     19  C   UNL     1      30.721 -10.659 -20.656  0.00  0.00    +0.033 C 
ATOM     20  C   UNL     1      31.326 -10.236 -19.479  0.00  0.00    +0.032 C 
ATOM     21  H   UNL     1      30.431  -7.863 -23.503  0.00  0.00    +0.148 HD
ATOM     22  H   UNL     1      32.920  -5.203 -19.095  0.00  0.00    +0.144 HD
ATOM     23  H   UNL     1      32.610  -6.711 -18.364  0.00  0.00    +0.144 HD
ENDROOT
BRANCH  16  25
ATOM     24  N   UNL     1      34.980  -5.149 -28.279  0.00  0.00    -0.233 NA
ATOM     25  C   UNL     1      33.944  -3.845 -26.534  0.00  0.00    +0.073 C 
ATOM     26  C   UNL     1      35.108  -3.110 -26.371  0.00  0.00    +0.008 C 
ATOM     27  C   UNL     1      33.926  -4.843 -27.490  0.00  0.00    +0.104 C 
ATOM     28  C   UNL     1      36.215  -3.394 -27.164  0.00  0.00    +0.030 C 
ATOM     29  C   UNL     1      36.100  -4.413 -28.095  0.00  0.00    +0.149 C 
BRANCH  29  31
ATOM     30  N   UNL     1      38.080  -5.052 -29.639  0.00  0.00    -0.189 NA
ATOM     31  C   UNL     1      37.190  -4.765 -28.946  0.00  0.00    +0.120 C 
ENDBRANCH  29  31
ENDBRANCH  16  25
TORSDOF 2
ENDMDL
MODEL 7
REMARK VINA RESULT:      -8.6      3.142      4.970
REMARK  Name = 9886249
REMARK  2 active torsions:
REMARK  status: ('A' for Active; 'I' for Inactive)
REMARK    1  A    between atoms: C_16  and  C_25
REMARK    2  A    between atoms: C_29  and  C_31
REMARK                            x       y       z     vdW  Elec       q    Type
REMARK                         _______ _______ _______ _____ _____    ______ ____
ROOT
ATOM      1  F   UNL     1      35.243  -5.547 -22.822  0.00  0.00    -0.203 F 
ATOM      2  F   UNL     1      31.355  -5.417 -26.657  0.00  0.00    -0.204 F 
ATOM      3  O   UNL     1      31.474 -12.265 -19.572  0.00  0.00    -0.270 OA
ATOM      4  N   UNL     1      31.663 -11.122 -21.607  0.00  0.00    -0.276 N 
ATOM      5  N   UNL     1      33.190  -7.390 -22.665  0.00  0.00    -0.316 N 
ATOM      6  N   UNL     1      31.079  -8.317 -23.642  0.00  0.00    -0.242 NA
ATOM      7  N   UNL     1      30.001  -7.254 -25.379  0.00  0.00    -0.343 N 
ATOM      8  C   UNL     1      32.228  -8.478 -22.737  0.00  0.00    +0.145 C 
ATOM      9  C   UNL     1      31.656  -8.679 -21.312  0.00  0.00    +0.063 C 
ATOM     10  C   UNL     1      32.989  -9.755 -23.170  0.00  0.00    +0.063 C 
ATOM     11  C   UNL     1      30.865  -9.980 -21.168  0.00  0.00    +0.097 C 
ATOM     12  C   UNL     1      32.165 -11.031 -22.981  0.00  0.00    +0.097 C 
ATOM     13  C   UNL     1      33.233  -6.468 -23.693  0.00  0.00    +0.078 C 
ATOM     14  C   UNL     1      31.082  -7.377 -24.537  0.00  0.00    +0.126 C 
ATOM     15  C   UNL     1      32.223  -6.419 -24.664  0.00  0.00    +0.074 C 
ATOM     16  C   UNL     1      31.890 -12.183 -20.727  0.00  0.00    +0.251 C 
ATOM     17  C   UNL     1      34.286  -5.544 -23.762  0.00  0.00    +0.153 C 
ATOM     18  C   UNL     1      32.292  -5.479 -25.702  0.00  0.00    +0.144 C 
ATOM     19  C   UNL     1      34.349  -4.606 -24.791  0.00  0.00    +0.033 C 
ATOM     20  C   UNL     1      33.356  -4.578 -25.763  0.00  0.00    +0.032 C 
ATOM     21  H   UNL     1      33.801  -7.312 -21.896  0.00  0.00    +0.148 HD
ATOM     22  H   UNL     1      29.244  -7.880 -25.304  0.00  0.00    +0.144 HD
ATOM     23  H   UNL     1      29.984  -6.541 -26.057  0.00  0.00    +0.144 HD
ENDROOT
BRANCH  16  25
ATOM     24  N   UNL     1      34.109 -15.197 -20.688  0.00  0.00    -0.233 NA
ATOM     25  C   UNL     1      32.698 -13.311 -21.205  0.00  0.00    +0.073 C 
ATOM     26  C   UNL     1      32.827 -13.566 -22.561  0.00  0.00    +0.008 C 
ATOM     27  C   UNL     1      33.349 -14.143 -20.315  0.00  0.00    +0.104 C 
ATOM     28  C   UNL     1      33.600 -14.642 -22.985  0.00  0.00    +0.030 C 
ATOM     29  C   UNL     1      34.214 -15.420 -22.018  0.00  0.00    +0.149 C 
BRANCH  29  31
ATOM     30  N   UNL     1      35.683 -17.455 -22.661  0.00  0.00    -0.189 NA
ATOM     31  C   UNL     1      35.023 -16.540 -22.372  0.00  0.00    +0.120 C 
ENDBRANCH  29  31
ENDBRANCH  16  25
TORSDOF 2
ENDMDL
MODEL 8
REMARK VINA RESULT:      -8.2      8.125     10.506
REMARK  Name = 9886249
REMARK  2 active torsions:
REMARK  status: ('A' for Active; 'I' for Inactive)
REMARK    1  A    between atoms: C_16  and  C_25
REMARK    2  A    between atoms: C_29  and  C_31
REMARK                            x       y       z     vdW  Elec       q    Type
REMARK                         _______ _______ _______ _____ _____    ______ ____
ROOT
ATOM      1  F   UNL     1      38.173  -2.155 -25.875  0.00  0.00    -0.203 F 
ATOM      2  F   UNL     1      37.650  -5.699 -30.000  0.00  0.00    -0.204 F 
ATOM      3  O   UNL     1      30.270  -3.849 -23.738  0.00  0.00    -0.270 OA
ATOM      4  N   UNL     1      32.067  -4.821 -24.880  0.00  0.00    -0.276 N 
ATOM      5  N   UNL     1      35.712  -3.349 -26.270  0.00  0.00    -0.316 N 
ATOM      6  N   UNL     1      34.305  -4.946 -27.589  0.00  0.00    -0.242 NA
ATOM      7  N   UNL     1      35.081  -5.888 -29.542  0.00  0.00    -0.343 N 
ATOM      8  C   UNL     1      34.505  -4.154 -26.365  0.00  0.00    +0.145 C 
ATOM      9  C   UNL     1      33.300  -3.188 -26.249  0.00  0.00    +0.063 C 
ATOM     10  C   UNL     1      34.494  -5.135 -25.166  0.00  0.00    +0.063 C 
ATOM     11  C   UNL     1      31.975  -3.918 -26.025  0.00  0.00    +0.097 C 
ATOM     12  C   UNL     1      33.139  -5.817 -24.968  0.00  0.00    +0.097 C 
ATOM     13  C   UNL     1      36.781  -3.650 -27.091  0.00  0.00    +0.078 C 
ATOM     14  C   UNL     1      35.291  -5.134 -28.411  0.00  0.00    +0.126 C 
ATOM     15  C   UNL     1      36.641  -4.541 -28.164  0.00  0.00    +0.074 C 
ATOM     16  C   UNL     1      31.170  -4.683 -23.819  0.00  0.00    +0.251 C 
ATOM     17  C   UNL     1      38.026  -3.041 -26.873  0.00  0.00    +0.153 C 
ATOM     18  C   UNL     1      37.743  -4.837 -28.979  0.00  0.00    +0.144 C 
ATOM     19  C   UNL     1      39.118  -3.331 -27.689  0.00  0.00    +0.033 C 
ATOM     20  C   UNL     1      38.977  -4.233 -28.737  0.00  0.00    +0.032 C 
ATOM     21  H   UNL     1      35.766  -2.601 -25.630  0.00  0.00    +0.148 HD
ATOM     22  H   UNL     1      34.196  -6.283 -29.714  0.00  0.00    +0.144 HD
ATOM     23  H   UNL     1      35.817  -6.033 -30.180  0.00  0.00    +0.144 HD
ENDROOT
BRANCH  16  25
ATOM     24  N   UNL     1      30.904  -7.804 -21.770  0.00  0.00    -0.233 NA
ATOM     25  C   UNL     1      31.298  -5.609 -22.688  0.00  0.00    +0.073 C 
ATOM     26  C   UNL     1      31.901  -5.206 -21.506  0.00  0.00    +0.008 C 
ATOM     27  C   UNL     1      30.820  -6.903 -22.773  0.00  0.00    +0.104 C 
ATOM     28  C   UNL     1      32.007  -6.104 -20.450  0.00  0.00    +0.030 C 
ATOM     29  C   UNL     1      31.499  -7.380 -20.631  0.00  0.00    +0.149 C 
BRANCH  29  31
ATOM     30  N   UNL     1      31.627  -9.158 -18.750  0.00  0.00    -0.189 NA
ATOM     31  C   UNL     1      31.569  -8.358 -19.595  0.00  0.00    +0.120 C 
ENDBRANCH  29  31
ENDBRANCH  16  25
TORSDOF 2
ENDMDL
