MODEL 1
REMARK VINA RESULT:     -10.9      0.000      0.000
REMARK  Name = 9804302
REMARK  7 active torsions:
REMARK  status: ('A' for Active; 'I' for Inactive)
REMARK    1  A    between atoms: C_5  and  O_21
REMARK    2  A    between atoms: C_17  and  O_19
REMARK    3  A    between atoms: C_18  and  O_28
REMARK    4  A    between atoms: O_21  and  S_22
REMARK    5  A    between atoms: S_22  and  N_25
REMARK    6  A    between atoms: O_28  and  S_29
REMARK    7  A    between atoms: S_29  and  N_32
REMARK                            x       y       z     vdW  Elec       q    Type
REMARK                         _______ _______ _______ _____ _____    ______ ____
ROOT
ATOM      1  C   UNL     1      34.626 -20.614 -19.778  0.00  0.00    +0.027 C 
ATOM      2  C   UNL     1      33.569 -20.920 -18.697  0.00  0.00    +0.003 C 
ATOM      3  C   UNL     1      34.004 -22.054 -17.770  0.00  0.00    +0.004 C 
ATOM      4  C   UNL     1      35.310 -21.626 -17.035  0.00  0.00    +0.022 C 
ATOM      5  C   UNL     1      33.877 -19.514 -20.554  0.00  0.00    +0.144 C 
ATOM      6  C   UNL     1      35.906 -20.148 -19.074  0.00  0.00    +0.003 C 
ATOM      7  C   UNL     1      32.276 -21.059 -19.494  0.00  0.00    +0.003 C 
ATOM      8  C   UNL     1      36.402 -21.181 -18.045  0.00  0.00    +0.004 C 
ATOM      9  C   UNL     1      32.429 -20.035 -20.635  0.00  0.00    +0.032 C 
ATOM     10  C   UNL     1      32.939 -22.403 -16.729  0.00  0.00    +0.005 C 
ATOM     11  C   UNL     1      34.959 -21.802 -20.715  0.00  0.00    +0.002 C 
ATOM     12  C   UNL     1      35.751 -22.686 -16.029  0.00  0.00    -0.023 C 
ATOM     13  C   UNL     1      33.373 -23.631 -15.934  0.00  0.00    +0.026 C 
ATOM     14  C   UNL     1      34.816 -23.595 -15.489  0.00  0.00    -0.023 C 
ATOM     15  C   UNL     1      37.072 -22.728 -15.549  0.00  0.00    +0.036 C 
ATOM     16  C   UNL     1      35.230 -24.544 -14.537  0.00  0.00    +0.038 C 
ATOM     17  C   UNL     1      37.468 -23.670 -14.597  0.00  0.00    +0.175 C 
ATOM     18  C   UNL     1      36.548 -24.581 -14.093  0.00  0.00    +0.206 C 
ENDROOT
BRANCH  17  19
ATOM     19  O   UNL     1      38.760 -23.682 -14.165  0.00  0.00    -0.468 OA
ATOM     20  C   UNL     1      39.636 -24.633 -14.768  0.00  0.00    +0.253 C 
ENDBRANCH  17  19
BRANCH   5  21
ATOM     21  O   UNL     1      34.420 -19.274 -21.837  0.00  0.00    -0.232 OA
BRANCH  21  22
ATOM     22  S   UNL     1      35.289 -17.912 -22.117  0.00  0.00    +0.045 S 
ATOM     23  O   UNL     1      36.696 -18.264 -22.151  0.00  0.00    -0.056 OA
ATOM     24  O   UNL     1      34.683 -17.235 -23.249  0.00  0.00    -0.056 OA
BRANCH  22  25
ATOM     25  N   UNL     1      35.013 -16.949 -20.726  0.00  0.00    -0.204 NA
ATOM     26  H   UNL     1      34.037 -16.652 -20.706  0.00  0.00    +0.144 HD
ATOM     27  H   UNL     1      35.618 -16.128 -20.755  0.00  0.00    +0.144 HD
ENDBRANCH  22  25
ENDBRANCH  21  22
ENDBRANCH   5  21
BRANCH  18  28
ATOM     28  O   UNL     1      36.921 -25.507 -13.168  0.00  0.00    -0.346 OA
BRANCH  28  29
ATOM     29  S   UNL     1      36.765 -25.282 -11.551  0.00  0.00    +0.086 S 
ATOM     30  O   UNL     1      37.635 -24.189 -11.156  0.00  0.00    -0.046 OA
ATOM     31  O   UNL     1      36.856 -26.577 -10.898  0.00  0.00    -0.046 OA
BRANCH  29  32
ATOM     32  N   UNL     1      35.147 -24.737 -11.386  0.00  0.00    -0.194 NA
ATOM     33  H   UNL     1      34.530 -25.331 -11.939  0.00  0.00    +0.145 HD
ATOM     34  H   UNL     1      35.077 -23.774 -11.716  0.00  0.00    +0.145 HD
ENDBRANCH  29  32
ENDBRANCH  28  29
ENDBRANCH  18  28
TORSDOF 7
ENDMDL
MODEL 2
REMARK VINA RESULT:      -9.5      4.907      6.540
REMARK  Name = 9804302
REMARK  7 active torsions:
REMARK  status: ('A' for Active; 'I' for Inactive)
REMARK    1  A    between atoms: C_5  and  O_21
REMARK    2  A    between atoms: C_17  and  O_19
REMARK    3  A    between atoms: C_18  and  O_28
REMARK    4  A    between atoms: O_21  and  S_22
REMARK    5  A    between atoms: S_22  and  N_25
REMARK    6  A    between atoms: O_28  and  S_29
REMARK    7  A    between atoms: S_29  and  N_32
REMARK                            x       y       z     vdW  Elec       q    Type
REMARK                         _______ _______ _______ _____ _____    ______ ____
ROOT
ATOM      1  C   UNL     1      30.065 -23.571 -15.179  0.00  0.00    +0.027 C 
ATOM      2  C   UNL     1      30.774 -23.626 -13.810  0.00  0.00    +0.003 C 
ATOM      3  C   UNL     1      32.274 -23.885 -13.948  0.00  0.00    +0.004 C 
ATOM      4  C   UNL     1      32.911 -22.714 -14.755  0.00  0.00    +0.022 C 
ATOM      5  C   UNL     1      28.614 -23.373 -14.699  0.00  0.00    +0.144 C 
ATOM      6  C   UNL     1      30.648 -22.396 -15.972  0.00  0.00    +0.003 C 
ATOM      7  C   UNL     1      29.918 -24.599 -13.005  0.00  0.00    +0.003 C 
ATOM      8  C   UNL     1      32.179 -22.501 -16.108  0.00  0.00    +0.004 C 
ATOM      9  C   UNL     1      28.484 -24.331 -13.499  0.00  0.00    +0.032 C 
ATOM     10  C   UNL     1      32.978 -23.996 -12.595  0.00  0.00    +0.005 C 
ATOM     11  C   UNL     1      30.180 -24.866 -16.022  0.00  0.00    +0.002 C 
ATOM     12  C   UNL     1      34.426 -22.871 -14.856  0.00  0.00    -0.023 C 
ATOM     13  C   UNL     1      34.436 -24.396 -12.800  0.00  0.00    +0.026 C 
ATOM     14  C   UNL     1      35.132 -23.634 -13.901  0.00  0.00    -0.023 C 
ATOM     15  C   UNL     1      35.164 -22.194 -15.843  0.00  0.00    +0.036 C 
ATOM     16  C   UNL     1      36.532 -23.741 -13.986  0.00  0.00    +0.038 C 
ATOM     17  C   UNL     1      36.554 -22.302 -15.912  0.00  0.00    +0.175 C 
ATOM     18  C   UNL     1      37.239 -23.079 -14.985  0.00  0.00    +0.206 C 
ENDROOT
BRANCH  17  19
ATOM     19  O   UNL     1      37.230 -21.636 -16.890  0.00  0.00    -0.468 OA
ATOM     20  C   UNL     1      36.449 -20.927 -17.849  0.00  0.00    +0.253 C 
ENDBRANCH  17  19
BRANCH   5  21
ATOM     21  O   UNL     1      27.657 -23.654 -15.701  0.00  0.00    -0.232 OA
BRANCH  21  22
ATOM     22  S   UNL     1      26.959 -22.427 -16.534  0.00  0.00    +0.045 S 
ATOM     23  O   UNL     1      27.855 -21.286 -16.509  0.00  0.00    -0.056 OA
ATOM     24  O   UNL     1      26.506 -22.965 -17.804  0.00  0.00    -0.056 OA
BRANCH  22  25
ATOM     25  N   UNL     1      25.569 -22.034 -15.610  0.00  0.00    -0.204 NA
ATOM     26  H   UNL     1      25.572 -22.575 -14.745  0.00  0.00    +0.144 HD
ATOM     27  H   UNL     1      24.730 -22.256 -16.147  0.00  0.00    +0.144 HD
ENDBRANCH  22  25
ENDBRANCH  21  22
ENDBRANCH   5  21
BRANCH  18  28
ATOM     28  O   UNL     1      38.594 -23.198 -15.042  0.00  0.00    -0.346 OA
BRANCH  28  29
ATOM     29  S   UNL     1      39.419 -24.454 -14.386  0.00  0.00    +0.086 S 
ATOM     30  O   UNL     1      38.503 -25.224 -13.565  0.00  0.00    -0.046 OA
ATOM     31  O   UNL     1      40.663 -23.945 -13.836  0.00  0.00    -0.046 OA
BRANCH  29  32
ATOM     32  N   UNL     1      39.818 -25.415 -15.751  0.00  0.00    -0.194 NA
ATOM     33  H   UNL     1      39.088 -26.113 -15.900  0.00  0.00    +0.145 HD
ATOM     34  H   UNL     1      40.708 -25.885 -15.588  0.00  0.00    +0.145 HD
ENDBRANCH  29  32
ENDBRANCH  28  29
ENDBRANCH  18  28
TORSDOF 7
ENDMDL
MODEL 3
REMARK VINA RESULT:      -9.4      3.155      4.738
REMARK  Name = 9804302
REMARK  7 active torsions:
REMARK  status: ('A' for Active; 'I' for Inactive)
REMARK    1  A    between atoms: C_5  and  O_21
REMARK    2  A    between atoms: C_17  and  O_19
REMARK    3  A    between atoms: C_18  and  O_28
REMARK    4  A    between atoms: O_21  and  S_22
REMARK    5  A    between atoms: S_22  and  N_25
REMARK    6  A    between atoms: O_28  and  S_29
REMARK    7  A    between atoms: S_29  and  N_32
REMARK                            x       y       z     vdW  Elec       q    Type
REMARK                         _______ _______ _______ _____ _____    ______ ____
ROOT
ATOM      1  C   UNL     1      34.195 -18.564 -21.240  0.00  0.00    +0.027 C 
ATOM      2  C   UNL     1      35.330 -19.533 -20.849  0.00  0.00    +0.003 C 
ATOM      3  C   UNL     1      35.094 -20.177 -19.484  0.00  0.00    +0.004 C 
ATOM      4  C   UNL     1      33.775 -21.007 -19.544  0.00  0.00    +0.022 C 
ATOM      5  C   UNL     1      34.755 -18.054 -22.582  0.00  0.00    +0.144 C 
ATOM      6  C   UNL     1      32.896 -19.370 -21.347  0.00  0.00    +0.003 C 
ATOM      7  C   UNL     1      36.594 -18.710 -21.079  0.00  0.00    +0.003 C 
ATOM      8  C   UNL     1      32.589 -20.139 -20.048  0.00  0.00    +0.004 C 
ATOM      9  C   UNL     1      36.255 -17.838 -22.302  0.00  0.00    +0.032 C 
ATOM     10  C   UNL     1      36.240 -21.098 -19.062  0.00  0.00    +0.005 C 
ATOM     11  C   UNL     1      33.985 -17.382 -20.260  0.00  0.00    +0.002 C 
ATOM     12  C   UNL     1      33.525 -21.745 -18.233  0.00  0.00    -0.023 C 
ATOM     13  C   UNL     1      36.011 -21.593 -17.637  0.00  0.00    +0.026 C 
ATOM     14  C   UNL     1      34.598 -22.050 -17.366  0.00  0.00    -0.023 C 
ATOM     15  C   UNL     1      32.244 -22.218 -17.896  0.00  0.00    +0.036 C 
ATOM     16  C   UNL     1      34.358 -22.762 -16.177  0.00  0.00    +0.038 C 
ATOM     17  C   UNL     1      32.021 -22.931 -16.717  0.00  0.00    +0.175 C 
ATOM     18  C   UNL     1      33.077 -23.200 -15.855  0.00  0.00    +0.206 C 
ENDROOT
BRANCH  17  19
ATOM     19  O   UNL     1      30.762 -23.363 -16.424  0.00  0.00    -0.468 OA
ATOM     20  C   UNL     1      29.757 -22.365 -16.258  0.00  0.00    +0.253 C 
ENDBRANCH  17  19
BRANCH   5  21
ATOM     21  O   UNL     1      34.128 -16.868 -23.027  0.00  0.00    -0.232 OA
BRANCH  21  22
ATOM     22  S   UNL     1      33.645 -16.733 -24.588  0.00  0.00    +0.045 S 
ATOM     23  O   UNL     1      34.808 -16.438 -25.405  0.00  0.00    -0.056 OA
ATOM     24  O   UNL     1      32.820 -17.888 -24.890  0.00  0.00    -0.056 OA
BRANCH  22  25
ATOM     25  N   UNL     1      32.628 -15.353 -24.590  0.00  0.00    -0.204 NA
ATOM     26  H   UNL     1      32.064 -15.344 -23.740  0.00  0.00    +0.144 HD
ATOM     27  H   UNL     1      32.015 -15.383 -25.405  0.00  0.00    +0.144 HD
ENDBRANCH  22  25
ENDBRANCH  21  22
ENDBRANCH   5  21
BRANCH  18  28
ATOM     28  O   UNL     1      32.873 -23.891 -14.699  0.00  0.00    -0.346 OA
BRANCH  28  29
ATOM     29  S   UNL     1      32.203 -23.229 -13.356  0.00  0.00    +0.086 S 
ATOM     30  O   UNL     1      31.276 -24.189 -12.787  0.00  0.00    -0.046 OA
ATOM     31  O   UNL     1      31.772 -21.880 -13.679  0.00  0.00    -0.046 OA
BRANCH  29  32
ATOM     32  N   UNL     1      33.533 -23.098 -12.280  0.00  0.00    -0.194 NA
ATOM     33  H   UNL     1      33.910 -22.151 -12.318  0.00  0.00    +0.145 HD
ATOM     34  H   UNL     1      34.258 -23.762 -12.552  0.00  0.00    +0.145 HD
ENDBRANCH  29  32
ENDBRANCH  28  29
ENDBRANCH  18  28
TORSDOF 7
ENDMDL
MODEL 4
REMARK VINA RESULT:      -9.3      2.372      4.096
REMARK  Name = 9804302
REMARK  7 active torsions:
REMARK  status: ('A' for Active; 'I' for Inactive)
REMARK    1  A    between atoms: C_5  and  O_21
REMARK    2  A    between atoms: C_17  and  O_19
REMARK    3  A    between atoms: C_18  and  O_28
REMARK    4  A    between atoms: O_21  and  S_22
REMARK    5  A    between atoms: S_22  and  N_25
REMARK    6  A    between atoms: O_28  and  S_29
REMARK    7  A    between atoms: S_29  and  N_32
REMARK                            x       y       z     vdW  Elec       q    Type
REMARK                         _______ _______ _______ _____ _____    ______ ____
ROOT
ATOM      1  C   UNL     1      34.051 -19.027 -21.154  0.00  0.00    +0.027 C 
ATOM      2  C   UNL     1      35.276 -19.868 -20.743  0.00  0.00    +0.003 C 
ATOM      3  C   UNL     1      35.184 -20.355 -19.298  0.00  0.00    +0.004 C 
ATOM      4  C   UNL     1      33.926 -21.266 -19.157  0.00  0.00    +0.022 C 
ATOM      5  C   UNL     1      34.475 -18.650 -22.586  0.00  0.00    +0.144 C 
ATOM      6  C   UNL     1      32.807 -19.919 -21.064  0.00  0.00    +0.003 C 
ATOM      7  C   UNL     1      36.459 -19.003 -21.167  0.00  0.00    +0.003 C 
ATOM      8  C   UNL     1      32.649 -20.542 -19.663  0.00  0.00    +0.004 C 
ATOM      9  C   UNL     1      35.973 -18.309 -22.453  0.00  0.00    +0.032 C 
ATOM     10  C   UNL     1      36.420 -21.145 -18.864  0.00  0.00    +0.005 C 
ATOM     11  C   UNL     1      33.827 -17.749 -20.305  0.00  0.00    +0.002 C 
ATOM     12  C   UNL     1      33.824 -21.854 -17.753  0.00  0.00    -0.023 C 
ATOM     13  C   UNL     1      36.328 -21.476 -17.377  0.00  0.00    +0.026 C 
ATOM     14  C   UNL     1      34.974 -21.983 -16.944  0.00  0.00    -0.023 C 
ATOM     15  C   UNL     1      32.607 -22.360 -17.263  0.00  0.00    +0.036 C 
ATOM     16  C   UNL     1      34.870 -22.559 -15.665  0.00  0.00    +0.038 C 
ATOM     17  C   UNL     1      32.519 -22.938 -15.995  0.00  0.00    +0.175 C 
ATOM     18  C   UNL     1      33.650 -23.034 -15.193  0.00  0.00    +0.206 C 
ENDROOT
BRANCH  17  19
ATOM     19  O   UNL     1      31.318 -23.408 -15.555  0.00  0.00    -0.468 OA
ATOM     20  C   UNL     1      30.154 -22.692 -15.961  0.00  0.00    +0.253 C 
ENDBRANCH  17  19
BRANCH   5  21
ATOM     21  O   UNL     1      33.736 -17.568 -23.116  0.00  0.00    -0.232 OA
BRANCH  21  22
ATOM     22  S   UNL     1      33.584 -17.396 -24.739  0.00  0.00    +0.045 S 
ATOM     23  O   UNL     1      34.149 -16.115 -25.120  0.00  0.00    -0.056 OA
ATOM     24  O   UNL     1      34.073 -18.617 -25.354  0.00  0.00    -0.056 OA
BRANCH  22  25
ATOM     25  N   UNL     1      31.890 -17.329 -24.993  0.00  0.00    -0.204 NA
ATOM     26  H   UNL     1      31.562 -16.374 -24.851  0.00  0.00    +0.144 HD
ATOM     27  H   UNL     1      31.422 -17.950 -24.333  0.00  0.00    +0.144 HD
ENDBRANCH  22  25
ENDBRANCH  21  22
ENDBRANCH   5  21
BRANCH  18  28
ATOM     28  O   UNL     1      33.579 -23.590 -13.952  0.00  0.00    -0.346 OA
BRANCH  28  29
ATOM     29  S   UNL     1      34.898 -23.955 -13.049  0.00  0.00    +0.086 S 
ATOM     30  O   UNL     1      35.576 -22.718 -12.709  0.00  0.00    -0.046 OA
ATOM     31  O   UNL     1      35.612 -25.039 -13.701  0.00  0.00    -0.046 OA
BRANCH  29  32
ATOM     32  N   UNL     1      34.220 -24.584 -11.603  0.00  0.00    -0.194 NA
ATOM     33  H   UNL     1      33.737 -25.459 -11.807  0.00  0.00    +0.145 HD
ATOM     34  H   UNL     1      33.557 -23.911 -11.219  0.00  0.00    +0.145 HD
ENDBRANCH  29  32
ENDBRANCH  28  29
ENDBRANCH  18  28
TORSDOF 7
ENDMDL
