MODEL 1
REMARK VINA RESULT:     -10.2      0.000      0.000
REMARK  Name = 162056
REMARK  6 active torsions:
REMARK  status: ('A' for Active; 'I' for Inactive)
REMARK    1  A    between atoms: N_1  and  C_21
REMARK    2  A    between atoms: C_2  and  N_11
REMARK    3  A    between atoms: N_11  and  C_13
REMARK    4  A    between atoms: C_12  and  C_19
REMARK    5  A    between atoms: C_21  and  C_22
REMARK    6  A    between atoms: C_22  and  C_23
REMARK                            x       y       z     vdW  Elec       q    Type
REMARK                         _______ _______ _______ _____ _____    ______ ____
ROOT
ATOM      1  N   UNL     1      34.818 -22.033 -19.038  0.00  0.00    +0.389 N 
ATOM      2  C   UNL     1      33.656 -22.390 -16.372  0.00  0.00    +0.076 C 
ATOM      3  C   UNL     1      35.167 -22.162 -16.573  0.00  0.00    -0.002 C 
ATOM      4  C   UNL     1      33.358 -22.169 -18.908  0.00  0.00    -0.056 C 
ATOM      5  C   UNL     1      33.037 -22.983 -17.644  0.00  0.00    -0.001 C 
ATOM      6  C   UNL     1      35.444 -21.390 -17.878  0.00  0.00    -0.076 C 
ATOM      7  C   UNL     1      35.797 -21.408 -15.396  0.00  0.00    -0.000 C 
ATOM      8  C   UNL     1      32.566 -20.853 -18.933  0.00  0.00    -0.023 C 
ATOM      9  H   UNL     1      35.167 -22.990 -19.074  0.00  0.00    -0.080 HD
ENDROOT
BRANCH   2  11
ATOM     10  O   UNL     1      31.048 -22.908 -15.114  0.00  0.00    -0.275 OA
ATOM     11  N   UNL     1      33.385 -23.265 -15.252  0.00  0.00    -0.260 N 
ATOM     12  C   UNL     1      32.080 -23.451 -14.711  0.00  0.00    +0.229 C 
BRANCH  11  13
ATOM     13  C   UNL     1      34.499 -23.990 -14.649  0.00  0.00    +0.054 C 
ATOM     14  C   UNL     1      34.950 -23.562 -13.435  0.00  0.00    +0.015 C 
ATOM     15  C   UNL     1      35.013 -25.048 -15.338  0.00  0.00    +0.015 C 
ATOM     16  C   UNL     1      36.014 -24.255 -12.859  0.00  0.00    +0.001 C 
ATOM     17  C   UNL     1      36.078 -25.741 -14.762  0.00  0.00    +0.001 C 
ATOM     18  C   UNL     1      36.578 -25.345 -13.522  0.00  0.00    +0.000 C 
ENDBRANCH  11  13
BRANCH  12  19
ATOM     19  C   UNL     1      32.008 -24.379 -13.500  0.00  0.00    +0.086 C 
ATOM     20  C   UNL     1      30.580 -24.674 -13.068  0.00  0.00    +0.010 C 
ENDBRANCH  12  19
ENDBRANCH   2  11
BRANCH   1  21
ATOM     21  C   UNL     1      35.222 -21.380 -20.281  0.00  0.00    -0.073 C 
BRANCH  21  22
ATOM     22  C   UNL     1      35.658 -19.937 -20.026  0.00  0.00    +0.004 C 
BRANCH  22  23
ATOM     23  C   UNL     1      35.171 -19.012 -21.112  0.00  0.00    -0.024 C 
ATOM     24  C   UNL     1      35.516 -17.670 -21.068  0.00  0.00    -0.004 C 
ATOM     25  C   UNL     1      34.386 -19.518 -22.137  0.00  0.00    -0.004 C 
ATOM     26  C   UNL     1      35.065 -16.813 -22.073  0.00  0.00    -0.000 C 
ATOM     27  C   UNL     1      33.935 -18.662 -23.142  0.00  0.00    -0.000 C 
ATOM     28  C   UNL     1      34.275 -17.309 -23.109  0.00  0.00    -0.000 C 
ENDBRANCH  22  23
ENDBRANCH  21  22
ENDBRANCH   1  21
TORSDOF 6
ENDMDL
MODEL 2
REMARK VINA RESULT:     -10.0     11.392     17.383
REMARK  Name = 162056
REMARK  6 active torsions:
REMARK  status: ('A' for Active; 'I' for Inactive)
REMARK    1  A    between atoms: N_1  and  C_21
REMARK    2  A    between atoms: C_2  and  N_11
REMARK    3  A    between atoms: N_11  and  C_13
REMARK    4  A    between atoms: C_12  and  C_19
REMARK    5  A    between atoms: C_21  and  C_22
REMARK    6  A    between atoms: C_22  and  C_23
REMARK                            x       y       z     vdW  Elec       q    Type
REMARK                         _______ _______ _______ _____ _____    ______ ____
ROOT
ATOM      1  N   UNL     1      31.795  -8.977 -21.137  0.00  0.00    +0.389 N 
ATOM      2  C   UNL     1      31.796  -6.374 -22.480  0.00  0.00    +0.076 C 
ATOM      3  C   UNL     1      31.350  -7.659 -23.205  0.00  0.00    -0.002 C 
ATOM      4  C   UNL     1      32.158  -7.777 -20.366  0.00  0.00    -0.056 C 
ATOM      5  C   UNL     1      32.738  -6.720 -21.320  0.00  0.00    -0.001 C 
ATOM      6  C   UNL     1      30.827  -8.708 -22.204  0.00  0.00    -0.076 C 
ATOM      7  C   UNL     1      30.270  -7.381 -24.257  0.00  0.00    -0.000 C 
ATOM      8  C   UNL     1      31.037  -7.183 -19.500  0.00  0.00    -0.023 C 
ATOM      9  H   UNL     1      32.662  -9.271 -21.587  0.00  0.00    -0.080 HD
ENDROOT
BRANCH   2  11
ATOM     10  O   UNL     1      34.369  -6.759 -23.852  0.00  0.00    -0.275 OA
ATOM     11  N   UNL     1      32.455  -5.448 -23.376  0.00  0.00    -0.260 N 
ATOM     12  C   UNL     1      33.708  -5.727 -23.996  0.00  0.00    +0.229 C 
BRANCH  11  13
ATOM     13  C   UNL     1      31.808  -4.170 -23.657  0.00  0.00    +0.054 C 
ATOM     14  C   UNL     1      31.438  -3.918 -24.946  0.00  0.00    +0.015 C 
ATOM     15  C   UNL     1      31.613  -3.315 -22.613  0.00  0.00    +0.015 C 
ATOM     16  C   UNL     1      30.819  -2.698 -25.215  0.00  0.00    +0.001 C 
ATOM     17  C   UNL     1      30.994  -2.094 -22.883  0.00  0.00    +0.001 C 
ATOM     18  C   UNL     1      30.596  -1.786 -24.183  0.00  0.00    +0.000 C 
ENDBRANCH  11  13
BRANCH  12  19
ATOM     19  C   UNL     1      34.261  -4.604 -24.870  0.00  0.00    +0.086 C 
ATOM     20  C   UNL     1      34.776  -5.101 -26.211  0.00  0.00    +0.010 C 
ENDBRANCH  12  19
ENDBRANCH   2  11
BRANCH   1  21
ATOM     21  C   UNL     1      31.351 -10.085 -20.293  0.00  0.00    -0.073 C 
BRANCH  21  22
ATOM     22  C   UNL     1      30.833 -11.246 -21.142  0.00  0.00    +0.004 C 
BRANCH  22  23
ATOM     23  C   UNL     1      31.908 -12.275 -21.387  0.00  0.00    -0.024 C 
ATOM     24  C   UNL     1      32.205 -13.198 -20.396  0.00  0.00    -0.004 C 
ATOM     25  C   UNL     1      32.583 -12.281 -22.599  0.00  0.00    -0.004 C 
ATOM     26  C   UNL     1      33.199 -14.150 -20.622  0.00  0.00    -0.000 C 
ATOM     27  C   UNL     1      33.577 -13.232 -22.825  0.00  0.00    -0.000 C 
ATOM     28  C   UNL     1      33.885 -14.167 -21.836  0.00  0.00    -0.000 C 
ENDBRANCH  22  23
ENDBRANCH  21  22
ENDBRANCH   1  21
TORSDOF 6
ENDMDL
MODEL 3
REMARK VINA RESULT:      -9.9      1.540      2.267
REMARK  Name = 162056
REMARK  6 active torsions:
REMARK  status: ('A' for Active; 'I' for Inactive)
REMARK    1  A    between atoms: N_1  and  C_21
REMARK    2  A    between atoms: C_2  and  N_11
REMARK    3  A    between atoms: N_11  and  C_13
REMARK    4  A    between atoms: C_12  and  C_19
REMARK    5  A    between atoms: C_21  and  C_22
REMARK    6  A    between atoms: C_22  and  C_23
REMARK                            x       y       z     vdW  Elec       q    Type
REMARK                         _______ _______ _______ _____ _____    ______ ____
ROOT
ATOM      1  N   UNL     1      34.193 -22.623 -18.241  0.00  0.00    +0.389 N 
ATOM      2  C   UNL     1      34.365 -22.822 -15.323  0.00  0.00    +0.076 C 
ATOM      3  C   UNL     1      35.537 -22.285 -16.168  0.00  0.00    -0.002 C 
ATOM      4  C   UNL     1      33.012 -23.070 -17.484  0.00  0.00    -0.056 C 
ATOM      5  C   UNL     1      33.471 -23.731 -16.175  0.00  0.00    -0.001 C 
ATOM      6  C   UNL     1      35.035 -21.682 -17.494  0.00  0.00    -0.076 C 
ATOM      7  C   UNL     1      36.359 -21.234 -15.413  0.00  0.00    -0.000 C 
ATOM      8  C   UNL     1      31.951 -21.992 -17.217  0.00  0.00    -0.023 C 
ATOM      9  H   UNL     1      34.746 -23.467 -18.386  0.00  0.00    -0.080 HD
ENDROOT
BRANCH   2  11
ATOM     10  O   UNL     1      33.070 -22.962 -12.685  0.00  0.00    -0.275 OA
ATOM     11  N   UNL     1      34.826 -23.552 -14.161  0.00  0.00    -0.260 N 
ATOM     12  C   UNL     1      34.125 -23.558 -12.920  0.00  0.00    +0.229 C 
BRANCH  11  13
ATOM     13  C   UNL     1      36.065 -24.316 -14.265  0.00  0.00    +0.054 C 
ATOM     14  C   UNL     1      37.216 -23.717 -13.845  0.00  0.00    +0.015 C 
ATOM     15  C   UNL     1      35.989 -25.579 -14.773  0.00  0.00    +0.015 C 
ATOM     16  C   UNL     1      38.400 -24.447 -13.943  0.00  0.00    +0.001 C 
ATOM     17  C   UNL     1      37.174 -26.309 -14.872  0.00  0.00    +0.001 C 
ATOM     18  C   UNL     1      38.379 -25.744 -14.457  0.00  0.00    +0.000 C 
ENDBRANCH  11  13
BRANCH  12  19
ATOM     19  C   UNL     1      34.797 -24.350 -11.801  0.00  0.00    +0.086 C 
ATOM     20  C   UNL     1      35.385 -23.458 -10.720  0.00  0.00    +0.010 C 
ENDBRANCH  12  19
ENDBRANCH   2  11
BRANCH   1  21
ATOM     21  C   UNL     1      33.860 -22.095 -19.562  0.00  0.00    -0.073 C 
BRANCH  21  22
ATOM     22  C   UNL     1      33.519 -20.606 -19.486  0.00  0.00    +0.004 C 
BRANCH  22  23
ATOM     23  C   UNL     1      34.345 -19.800 -20.456  0.00  0.00    -0.024 C 
ATOM     24  C   UNL     1      33.763 -19.339 -21.627  0.00  0.00    -0.004 C 
ATOM     25  C   UNL     1      35.674 -19.533 -20.161  0.00  0.00    -0.004 C 
ATOM     26  C   UNL     1      34.528 -18.593 -22.524  0.00  0.00    -0.000 C 
ATOM     27  C   UNL     1      36.438 -18.787 -21.058  0.00  0.00    -0.000 C 
ATOM     28  C   UNL     1      35.865 -18.317 -22.240  0.00  0.00    -0.000 C 
ENDBRANCH  22  23
ENDBRANCH  21  22
ENDBRANCH   1  21
TORSDOF 6
ENDMDL
MODEL 4
REMARK VINA RESULT:      -9.9     11.513     17.445
REMARK  Name = 162056
REMARK  6 active torsions:
REMARK  status: ('A' for Active; 'I' for Inactive)
REMARK    1  A    between atoms: N_1  and  C_21
REMARK    2  A    between atoms: C_2  and  N_11
REMARK    3  A    between atoms: N_11  and  C_13
REMARK    4  A    between atoms: C_12  and  C_19
REMARK    5  A    between atoms: C_21  and  C_22
REMARK    6  A    between atoms: C_22  and  C_23
REMARK                            x       y       z     vdW  Elec       q    Type
REMARK                         _______ _______ _______ _____ _____    ______ ____
ROOT
ATOM      1  N   UNL     1      31.986  -8.558 -21.717  0.00  0.00    +0.389 N 
ATOM      2  C   UNL     1      31.278  -5.900 -22.726  0.00  0.00    +0.076 C 
ATOM      3  C   UNL     1      30.962  -7.180 -23.525  0.00  0.00    -0.002 C 
ATOM      4  C   UNL     1      32.245  -7.381 -20.871  0.00  0.00    -0.056 C 
ATOM      5  C   UNL     1      32.449  -6.150 -21.767  0.00  0.00    -0.001 C 
ATOM      6  C   UNL     1      30.819  -8.397 -22.590  0.00  0.00    -0.076 C 
ATOM      7  C   UNL     1      29.689  -7.035 -24.366  0.00  0.00    -0.000 C 
ATOM      8  C   UNL     1      31.194  -7.105 -19.784  0.00  0.00    -0.023 C 
ATOM      9  H   UNL     1      32.804  -8.630 -22.322  0.00  0.00    -0.080 HD
ENDROOT
BRANCH   2  11
ATOM     10  O   UNL     1      30.137  -3.191 -22.620  0.00  0.00    -0.275 OA
ATOM     11  N   UNL     1      31.594  -4.785 -23.592  0.00  0.00    -0.260 N 
ATOM     12  C   UNL     1      30.984  -3.503 -23.461  0.00  0.00    +0.229 C 
BRANCH  11  13
ATOM     13  C   UNL     1      32.582  -4.982 -24.649  0.00  0.00    +0.054 C 
ATOM     14  C   UNL     1      33.893  -4.786 -24.333  0.00  0.00    +0.015 C 
ATOM     15  C   UNL     1      32.127  -5.350 -25.880  0.00  0.00    +0.015 C 
ATOM     16  C   UNL     1      34.837  -4.975 -25.342  0.00  0.00    +0.001 C 
ATOM     17  C   UNL     1      33.071  -5.538 -26.890  0.00  0.00    +0.001 C 
ATOM     18  C   UNL     1      34.426  -5.351 -26.621  0.00  0.00    +0.000 C 
ENDBRANCH  11  13
BRANCH  12  19
ATOM     19  C   UNL     1      31.417  -2.472 -24.500  0.00  0.00    +0.086 C 
ATOM     20  C   UNL     1      30.274  -2.026 -25.399  0.00  0.00    +0.010 C 
ENDBRANCH  12  19
ENDBRANCH   2  11
BRANCH   1  21
ATOM     21  C   UNL     1      31.904  -9.803 -20.955  0.00  0.00    -0.073 C 
BRANCH  21  22
ATOM     22  C   UNL     1      31.324 -10.930 -21.809  0.00  0.00    +0.004 C 
BRANCH  22  23
ATOM     23  C   UNL     1      32.203 -12.155 -21.778  0.00  0.00    -0.024 C 
ATOM     24  C   UNL     1      33.003 -12.448 -22.872  0.00  0.00    -0.004 C 
ATOM     25  C   UNL     1      32.196 -12.970 -20.655  0.00  0.00    -0.004 C 
ATOM     26  C   UNL     1      33.815 -13.581 -22.843  0.00  0.00    -0.000 C 
ATOM     27  C   UNL     1      33.009 -14.103 -20.626  0.00  0.00    -0.000 C 
ATOM     28  C   UNL     1      33.819 -14.408 -21.720  0.00  0.00    -0.000 C 
ENDBRANCH  22  23
ENDBRANCH  21  22
ENDBRANCH   1  21
TORSDOF 6
ENDMDL
MODEL 5
REMARK VINA RESULT:      -9.9     10.906     16.664
REMARK  Name = 162056
REMARK  6 active torsions:
REMARK  status: ('A' for Active; 'I' for Inactive)
REMARK    1  A    between atoms: N_1  and  C_21
REMARK    2  A    between atoms: C_2  and  N_11
REMARK    3  A    between atoms: N_11  and  C_13
REMARK    4  A    between atoms: C_12  and  C_19
REMARK    5  A    between atoms: C_21  and  C_22
REMARK    6  A    between atoms: C_22  and  C_23
REMARK                            x       y       z     vdW  Elec       q    Type
REMARK                         _______ _______ _______ _____ _____    ______ ____
ROOT
ATOM      1  N   UNL     1      31.877  -9.594 -21.965  0.00  0.00    +0.389 N 
ATOM      2  C   UNL     1      31.043  -6.786 -21.971  0.00  0.00    +0.076 C 
ATOM      3  C   UNL     1      30.912  -7.672 -23.226  0.00  0.00    -0.002 C 
ATOM      4  C   UNL     1      31.956  -8.823 -20.714  0.00  0.00    -0.056 C 
ATOM      5  C   UNL     1      32.138  -7.334 -21.048  0.00  0.00    -0.001 C 
ATOM      6  C   UNL     1      30.787  -9.160 -22.844  0.00  0.00    -0.076 C 
ATOM      7  C   UNL     1      29.714  -7.270 -24.093  0.00  0.00    -0.000 C 
ATOM      8  C   UNL     1      30.790  -9.032 -19.735  0.00  0.00    -0.023 C 
ATOM      9  H   UNL     1      32.751  -9.393 -22.452  0.00  0.00    -0.080 HD
ENDROOT
BRANCH   2  11
ATOM     10  O   UNL     1      30.056  -4.370 -20.615  0.00  0.00    -0.275 OA
ATOM     11  N   UNL     1      31.342  -5.411 -22.309  0.00  0.00    -0.260 N 
ATOM     12  C   UNL     1      30.812  -4.302 -21.588  0.00  0.00    +0.229 C 
BRANCH  11  13
ATOM     13  C   UNL     1      32.226  -5.148 -23.441  0.00  0.00    +0.054 C 
ATOM     14  C   UNL     1      31.665  -4.651 -24.580  0.00  0.00    +0.015 C 
ATOM     15  C   UNL     1      33.554  -5.415 -23.282  0.00  0.00    +0.015 C 
ATOM     16  C   UNL     1      32.510  -4.399 -25.661  0.00  0.00    +0.001 C 
ATOM     17  C   UNL     1      34.399  -5.163 -24.363  0.00  0.00    +0.001 C 
ATOM     18  C   UNL     1      33.877  -4.655 -25.552  0.00  0.00    +0.000 C 
ENDBRANCH  11  13
BRANCH  12  19
ATOM     19  C   UNL     1      31.208  -2.930 -22.128  0.00  0.00    +0.086 C 
ATOM     20  C   UNL     1      30.023  -1.988 -22.271  0.00  0.00    +0.010 C 
ENDBRANCH  12  19
ENDBRANCH   2  11
BRANCH   1  21
ATOM     21  C   UNL     1      31.831 -11.038 -21.745  0.00  0.00    -0.073 C 
BRANCH  21  22
ATOM     22  C   UNL     1      32.564 -11.786 -22.859  0.00  0.00    +0.004 C 
BRANCH  22  23
ATOM     23  C   UNL     1      33.172 -13.071 -22.355  0.00  0.00    -0.024 C 
ATOM     24  C   UNL     1      33.151 -13.347 -20.997  0.00  0.00    -0.004 C 
ATOM     25  C   UNL     1      33.742 -13.955 -23.259  0.00  0.00    -0.004 C 
ATOM     26  C   UNL     1      33.713 -14.536 -20.531  0.00  0.00    -0.000 C 
ATOM     27  C   UNL     1      34.304 -15.144 -22.793  0.00  0.00    -0.000 C 
ATOM     28  C   UNL     1      34.289 -15.434 -21.428  0.00  0.00    -0.000 C 
ENDBRANCH  22  23
ENDBRANCH  21  22
ENDBRANCH   1  21
TORSDOF 6
ENDMDL
MODEL 6
REMARK VINA RESULT:      -9.8     11.061     17.007
REMARK  Name = 162056
REMARK  6 active torsions:
REMARK  status: ('A' for Active; 'I' for Inactive)
REMARK    1  A    between atoms: N_1  and  C_21
REMARK    2  A    between atoms: C_2  and  N_11
REMARK    3  A    between atoms: N_11  and  C_13
REMARK    4  A    between atoms: C_12  and  C_19
REMARK    5  A    between atoms: C_21  and  C_22
REMARK    6  A    between atoms: C_22  and  C_23
REMARK                            x       y       z     vdW  Elec       q    Type
REMARK                         _______ _______ _______ _____ _____    ______ ____
ROOT
ATOM      1  N   UNL     1      31.184  -9.172 -21.515  0.00  0.00    +0.389 N 
ATOM      2  C   UNL     1      32.078  -6.807 -22.994  0.00  0.00    +0.076 C 
ATOM      3  C   UNL     1      31.641  -6.722 -21.518  0.00  0.00    -0.002 C 
ATOM      4  C   UNL     1      31.661  -9.333 -22.898  0.00  0.00    -0.056 C 
ATOM      5  C   UNL     1      31.431  -8.023 -23.668  0.00  0.00    -0.001 C 
ATOM      6  C   UNL     1      31.839  -8.071 -20.802  0.00  0.00    -0.076 C 
ATOM      7  C   UNL     1      32.397  -5.628 -20.755  0.00  0.00    -0.000 C 
ATOM      8  C   UNL     1      33.114  -9.812 -23.044  0.00  0.00    -0.023 C 
ATOM      9  H   UNL     1      30.199  -8.925 -21.606  0.00  0.00    -0.080 HD
ENDROOT
BRANCH   2  11
ATOM     10  O   UNL     1      29.774  -5.037 -22.529  0.00  0.00    -0.275 OA
ATOM     11  N   UNL     1      31.734  -5.609 -23.730  0.00  0.00    -0.260 N 
ATOM     12  C   UNL     1      30.590  -4.814 -23.427  0.00  0.00    +0.229 C 
BRANCH  11  13
ATOM     13  C   UNL     1      32.597  -5.196 -24.832  0.00  0.00    +0.054 C 
ATOM     14  C   UNL     1      33.730  -4.502 -24.523  0.00  0.00    +0.015 C 
ATOM     15  C   UNL     1      32.215  -5.534 -26.097  0.00  0.00    +0.015 C 
ATOM     16  C   UNL     1      34.555  -4.108 -25.576  0.00  0.00    +0.001 C 
ATOM     17  C   UNL     1      33.041  -5.140 -27.150  0.00  0.00    +0.001 C 
ATOM     18  C   UNL     1      34.211  -4.427 -26.890  0.00  0.00    +0.000 C 
ENDBRANCH  11  13
BRANCH  12  19
ATOM     19  C   UNL     1      30.374  -3.616 -24.348  0.00  0.00    +0.086 C 
ATOM     20  C   UNL     1      30.728  -2.293 -23.688  0.00  0.00    +0.010 C 
ENDBRANCH  12  19
ENDBRANCH   2  11
BRANCH   1  21
ATOM     21  C   UNL     1      31.247 -10.410 -20.741  0.00  0.00    -0.073 C 
BRANCH  21  22
ATOM     22  C   UNL     1      30.833 -11.610 -21.593  0.00  0.00    +0.004 C 
BRANCH  22  23
ATOM     23  C   UNL     1      31.914 -12.661 -21.629  0.00  0.00    -0.024 C 
ATOM     24  C   UNL     1      32.369 -13.212 -20.441  0.00  0.00    -0.004 C 
ATOM     25  C   UNL     1      32.435 -13.060 -22.852  0.00  0.00    -0.004 C 
ATOM     26  C   UNL     1      33.368 -14.184 -20.475  0.00  0.00    -0.000 C 
ATOM     27  C   UNL     1      33.435 -14.032 -22.885  0.00  0.00    -0.000 C 
ATOM     28  C   UNL     1      33.901 -14.594 -21.696  0.00  0.00    -0.000 C 
ENDBRANCH  22  23
ENDBRANCH  21  22
ENDBRANCH   1  21
TORSDOF 6
ENDMDL
MODEL 7
REMARK VINA RESULT:      -9.5      1.913      3.492
REMARK  Name = 162056
REMARK  6 active torsions:
REMARK  status: ('A' for Active; 'I' for Inactive)
REMARK    1  A    between atoms: N_1  and  C_21
REMARK    2  A    between atoms: C_2  and  N_11
REMARK    3  A    between atoms: N_11  and  C_13
REMARK    4  A    between atoms: C_12  and  C_19
REMARK    5  A    between atoms: C_21  and  C_22
REMARK    6  A    between atoms: C_22  and  C_23
REMARK                            x       y       z     vdW  Elec       q    Type
REMARK                         _______ _______ _______ _____ _____    ______ ____
ROOT
ATOM      1  N   UNL     1      33.780 -22.589 -17.452  0.00  0.00    +0.389 N 
ATOM      2  C   UNL     1      34.843 -23.221 -14.796  0.00  0.00    +0.076 C 
ATOM      3  C   UNL     1      35.720 -22.573 -15.885  0.00  0.00    -0.002 C 
ATOM      4  C   UNL     1      32.871 -23.136 -16.430  0.00  0.00    -0.056 C 
ATOM      5  C   UNL     1      33.679 -23.987 -15.438  0.00  0.00    -0.001 C 
ATOM      6  C   UNL     1      34.862 -21.776 -16.887  0.00  0.00    -0.076 C 
ATOM      7  C   UNL     1      36.791 -21.652 -15.291  0.00  0.00    -0.000 C 
ATOM      8  C   UNL     1      32.006 -22.101 -15.694  0.00  0.00    -0.023 C 
ATOM      9  H   UNL     1      34.214 -23.407 -17.880  0.00  0.00    -0.080 HD
ENDROOT
BRANCH   2  11
ATOM     10  O   UNL     1      36.175 -25.716 -15.605  0.00  0.00    -0.275 OA
ATOM     11  N   UNL     1      35.603 -24.119 -13.952  0.00  0.00    -0.260 N 
ATOM     12  C   UNL     1      36.214 -25.311 -14.440  0.00  0.00    +0.229 C 
BRANCH  11  13
ATOM     13  C   UNL     1      35.750 -23.789 -12.538  0.00  0.00    +0.054 C 
ATOM     14  C   UNL     1      34.972 -24.465 -11.646  0.00  0.00    +0.015 C 
ATOM     15  C   UNL     1      36.658 -22.828 -12.203  0.00  0.00    +0.015 C 
ATOM     16  C   UNL     1      35.113 -24.150 -10.294  0.00  0.00    +0.001 C 
ATOM     17  C   UNL     1      36.799 -22.513 -10.852  0.00  0.00    +0.001 C 
ATOM     18  C   UNL     1      36.027 -23.174  -9.897  0.00  0.00    +0.000 C 
ENDBRANCH  11  13
BRANCH  12  19
ATOM     19  C   UNL     1      36.933 -26.148 -13.384  0.00  0.00    +0.086 C 
ATOM     20  C   UNL     1      38.401 -25.782 -13.241  0.00  0.00    +0.010 C 
ENDBRANCH  12  19
ENDBRANCH   2  11
BRANCH   1  21
ATOM     21  C   UNL     1      33.081 -21.868 -18.513  0.00  0.00    -0.073 C 
BRANCH  21  22
ATOM     22  C   UNL     1      33.839 -21.969 -19.836  0.00  0.00    +0.004 C 
BRANCH  22  23
ATOM     23  C   UNL     1      34.444 -20.645 -20.229  0.00  0.00    -0.024 C 
ATOM     24  C   UNL     1      33.655 -19.697 -20.861  0.00  0.00    -0.004 C 
ATOM     25  C   UNL     1      35.781 -20.397 -19.951  0.00  0.00    -0.004 C 
ATOM     26  C   UNL     1      34.214 -18.472 -21.225  0.00  0.00    -0.000 C 
ATOM     27  C   UNL     1      36.340 -19.172 -20.315  0.00  0.00    -0.000 C 
ATOM     28  C   UNL     1      35.556 -18.209 -20.952  0.00  0.00    -0.000 C 
ENDBRANCH  22  23
ENDBRANCH  21  22
ENDBRANCH   1  21
TORSDOF 6
ENDMDL
MODEL 8
REMARK VINA RESULT:      -9.3      1.258      2.688
REMARK  Name = 162056
REMARK  6 active torsions:
REMARK  status: ('A' for Active; 'I' for Inactive)
REMARK    1  A    between atoms: N_1  and  C_21
REMARK    2  A    between atoms: C_2  and  N_11
REMARK    3  A    between atoms: N_11  and  C_13
REMARK    4  A    between atoms: C_12  and  C_19
REMARK    5  A    between atoms: C_21  and  C_22
REMARK    6  A    between atoms: C_22  and  C_23
REMARK                            x       y       z     vdW  Elec       q    Type
REMARK                         _______ _______ _______ _____ _____    ______ ____
ROOT
ATOM      1  N   UNL     1      34.880 -21.872 -19.233  0.00  0.00    +0.389 N 
ATOM      2  C   UNL     1      34.071 -22.354 -16.459  0.00  0.00    +0.076 C 
ATOM      3  C   UNL     1      35.511 -21.943 -16.822  0.00  0.00    -0.002 C 
ATOM      4  C   UNL     1      33.471 -22.186 -18.944  0.00  0.00    -0.056 C 
ATOM      5  C   UNL     1      33.393 -23.026 -17.659  0.00  0.00    -0.001 C 
ATOM      6  C   UNL     1      35.546 -21.151 -18.144  0.00  0.00    -0.076 C 
ATOM      7  C   UNL     1      36.169 -21.110 -15.716  0.00  0.00    -0.000 C 
ATOM      8  C   UNL     1      32.525 -20.977 -18.872  0.00  0.00    -0.023 C 
ATOM      9  H   UNL     1      35.338 -22.779 -19.314  0.00  0.00    -0.080 HD
ENDROOT
BRANCH   2  11
ATOM     10  O   UNL     1      36.268 -24.024 -15.442  0.00  0.00    -0.275 OA
ATOM     11  N   UNL     1      34.034 -23.249 -15.322  0.00  0.00    -0.260 N 
ATOM     12  C   UNL     1      35.158 -24.020 -14.905  0.00  0.00    +0.229 C 
BRANCH  11  13
ATOM     13  C   UNL     1      32.790 -23.366 -14.568  0.00  0.00    +0.054 C 
ATOM     14  C   UNL     1      32.139 -22.215 -14.237  0.00  0.00    +0.015 C 
ATOM     15  C   UNL     1      32.360 -24.620 -14.246  0.00  0.00    +0.015 C 
ATOM     16  C   UNL     1      30.950 -22.327 -13.517  0.00  0.00    +0.001 C 
ATOM     17  C   UNL     1      31.171 -24.732 -13.525  0.00  0.00    +0.001 C 
ATOM     18  C   UNL     1      30.465 -23.585 -13.161  0.00  0.00    +0.000 C 
ENDBRANCH  11  13
BRANCH  12  19
ATOM     19  C   UNL     1      34.905 -24.939 -13.712  0.00  0.00    +0.086 C 
ATOM     20  C   UNL     1      35.670 -24.515 -12.469  0.00  0.00    +0.010 C 
ENDBRANCH  12  19
ENDBRANCH   2  11
BRANCH   1  21
ATOM     21  C   UNL     1      35.062 -21.182 -20.508  0.00  0.00    -0.073 C 
BRANCH  21  22
ATOM     22  C   UNL     1      35.578 -19.760 -20.292  0.00  0.00    +0.004 C 
BRANCH  22  23
ATOM     23  C   UNL     1      35.083 -18.823 -21.364  0.00  0.00    -0.024 C 
ATOM     24  C   UNL     1      35.352 -17.466 -21.261  0.00  0.00    -0.004 C 
ATOM     25  C   UNL     1      34.366 -19.333 -22.437  0.00  0.00    -0.004 C 
ATOM     26  C   UNL     1      34.894 -16.599 -22.253  0.00  0.00    -0.000 C 
ATOM     27  C   UNL     1      33.908 -18.466 -23.429  0.00  0.00    -0.000 C 
ATOM     28  C   UNL     1      34.172 -17.098 -23.337  0.00  0.00    -0.000 C 
ENDBRANCH  22  23
ENDBRANCH  21  22
ENDBRANCH   1  21
TORSDOF 6
ENDMDL
MODEL 9
REMARK VINA RESULT:      -8.7     12.289     18.690
REMARK  Name = 162056
REMARK  6 active torsions:
REMARK  status: ('A' for Active; 'I' for Inactive)
REMARK    1  A    between atoms: N_1  and  C_21
REMARK    2  A    between atoms: C_2  and  N_11
REMARK    3  A    between atoms: N_11  and  C_13
REMARK    4  A    between atoms: C_12  and  C_19
REMARK    5  A    between atoms: C_21  and  C_22
REMARK    6  A    between atoms: C_22  and  C_23
REMARK                            x       y       z     vdW  Elec       q    Type
REMARK                         _______ _______ _______ _____ _____    ______ ____
ROOT
ATOM      1  N   UNL     1      32.018  -7.398 -23.162  0.00  0.00    +0.389 N 
ATOM      2  C   UNL     1      33.285  -5.474 -24.973  0.00  0.00    +0.076 C 
ATOM      3  C   UNL     1      31.760  -5.490 -24.747  0.00  0.00    -0.002 C 
ATOM      4  C   UNL     1      33.486  -7.383 -23.276  0.00  0.00    -0.056 C 
ATOM      5  C   UNL     1      33.881  -6.853 -24.663  0.00  0.00    -0.001 C 
ATOM      6  C   UNL     1      31.410  -6.079 -23.367  0.00  0.00    -0.076 C 
ATOM      7  C   UNL     1      31.144  -4.092 -24.872  0.00  0.00    -0.000 C 
ATOM      8  C   UNL     1      34.226  -6.626 -22.163  0.00  0.00    -0.023 C 
ATOM      9  H   UNL     1      31.703  -7.993 -23.928  0.00  0.00    -0.080 HD
ENDROOT
BRANCH   2  11
ATOM     10  O   UNL     1      32.151  -6.559 -27.461  0.00  0.00    -0.275 OA
ATOM     11  N   UNL     1      33.627  -5.095 -26.327  0.00  0.00    -0.260 N 
ATOM     12  C   UNL     1      33.018  -5.681 -27.475  0.00  0.00    +0.229 C 
BRANCH  11  13
ATOM     13  C   UNL     1      34.642  -4.065 -26.527  0.00  0.00    +0.054 C 
ATOM     14  C   UNL     1      34.221  -2.770 -26.612  0.00  0.00    +0.015 C 
ATOM     15  C   UNL     1      35.942  -4.465 -26.613  0.00  0.00    +0.015 C 
ATOM     16  C   UNL     1      35.191  -1.786 -26.801  0.00  0.00    +0.001 C 
ATOM     17  C   UNL     1      36.912  -3.480 -26.804  0.00  0.00    +0.001 C 
ATOM     18  C   UNL     1      36.536  -2.140 -26.897  0.00  0.00    +0.000 C 
ENDBRANCH  11  13
BRANCH  12  19
ATOM     19  C   UNL     1      33.549  -5.180 -28.816  0.00  0.00    +0.086 C 
ATOM     20  C   UNL     1      32.951  -5.921 -30.000  0.00  0.00    +0.010 C 
ENDBRANCH  12  19
ENDBRANCH   2  11
BRANCH   1  21
ATOM     21  C   UNL     1      31.546  -8.007 -21.921  0.00  0.00    -0.073 C 
BRANCH  21  22
ATOM     22  C   UNL     1      30.668  -9.225 -22.208  0.00  0.00    +0.004 C 
BRANCH  22  23
ATOM     23  C   UNL     1      31.446 -10.510 -22.078  0.00  0.00    -0.024 C 
ATOM     24  C   UNL     1      31.235 -11.325 -20.976  0.00  0.00    -0.004 C 
ATOM     25  C   UNL     1      32.360 -10.855 -23.062  0.00  0.00    -0.004 C 
ATOM     26  C   UNL     1      31.955 -12.514 -20.855  0.00  0.00    -0.000 C 
ATOM     27  C   UNL     1      33.080 -12.044 -22.941  0.00  0.00    -0.000 C 
ATOM     28  C   UNL     1      32.877 -12.874 -21.838  0.00  0.00    -0.000 C 
ENDBRANCH  22  23
ENDBRANCH  21  22
ENDBRANCH   1  21
TORSDOF 6
ENDMDL
