MODEL 1
REMARK VINA RESULT:     -13.4      0.000      0.000
REMARK  Name = 44814409
REMARK  5 active torsions:
REMARK  status: ('A' for Active; 'I' for Inactive)
REMARK    1  A    between atoms: N_2  and  C_22
REMARK    2  A    between atoms: C_3  and  C_7
REMARK    3  A    between atoms: C_9  and  C_14
REMARK    4  A    between atoms: C_21  and  C_26
REMARK    5  A    between atoms: C_29  and  N_33
REMARK                            x       y       z     vdW  Elec       q    Type
REMARK                         _______ _______ _______ _____ _____    ______ ____
ROOT
ATOM      1  O   UNL     1      31.884 -21.268 -19.874  0.00  0.00    -0.267 OA
ATOM      2  N   UNL     1      33.056 -21.566 -17.857  0.00  0.00    -0.278 N 
ATOM      3  C   UNL     1      32.889 -21.143 -19.183  0.00  0.00    +0.275 C 
ATOM      4  H   UNL     1      33.935 -21.382 -17.453  0.00  0.00    +0.155 HD
ENDROOT
BRANCH   3   7
ATOM      5  F   UNL     1      37.159 -18.455 -21.505  0.00  0.00    -0.202 F 
ATOM      6  N   UNL     1      33.771 -19.475 -20.675  0.00  0.00    -0.399 NA
ATOM      7  C   UNL     1      34.059 -20.448 -19.782  0.00  0.00    +0.167 C 
ATOM      8  C   UNL     1      35.347 -20.811 -19.419  0.00  0.00    +0.092 C 
ATOM      9  C   UNL     1      34.825 -18.834 -21.226  0.00  0.00    +0.162 C 
ATOM     10  C   UNL     1      36.405 -20.128 -20.008  0.00  0.00    +0.014 C 
ATOM     11  C   UNL     1      36.148 -19.120 -20.930  0.00  0.00    +0.166 C 
BRANCH   9  14
ATOM     12  F   UNL     1      34.803 -16.120 -20.521  0.00  0.00    -0.204 F 
ATOM     13  F   UNL     1      34.133 -19.421 -23.879  0.00  0.00    -0.204 F 
ATOM     14  C   UNL     1      34.479 -17.800 -22.173  0.00  0.00    +0.087 C 
ATOM     15  C   UNL     1      34.481 -16.463 -21.778  0.00  0.00    +0.145 C 
ATOM     16  C   UNL     1      34.142 -18.140 -23.484  0.00  0.00    +0.145 C 
ATOM     17  C   UNL     1      34.147 -15.464 -22.693  0.00  0.00    +0.030 C 
ATOM     18  C   UNL     1      33.807 -17.142 -24.399  0.00  0.00    +0.030 C 
ATOM     19  C   UNL     1      33.809 -15.804 -24.003  0.00  0.00    +0.005 C 
ENDBRANCH   9  14
ENDBRANCH   3   7
BRANCH   2  22
ATOM     20  N   UNL     1      29.811 -22.574 -16.459  0.00  0.00    -0.241 NA
ATOM     21  C   UNL     1      32.525 -23.102 -16.046  0.00  0.00    -0.006 C 
ATOM     22  C   UNL     1      32.131 -22.214 -17.040  0.00  0.00    +0.066 C 
ATOM     23  C   UNL     1      31.565 -23.726 -15.257  0.00  0.00    +0.018 C 
ATOM     24  C   UNL     1      30.774 -21.987 -17.206  0.00  0.00    +0.113 C 
ATOM     25  C   UNL     1      30.234 -23.431 -15.502  0.00  0.00    +0.099 C 
BRANCH  21  26
ATOM     26  C   UNL     1      33.970 -23.403 -15.804  0.00  0.00    +0.022 C 
ATOM     27  C   UNL     1      35.655 -24.164 -14.059  0.00  0.00    -0.002 C 
ATOM     28  C   UNL     1      34.172 -23.903 -14.361  0.00  0.00    +0.004 C 
ATOM     29  C   UNL     1      36.305 -22.416 -15.779  0.00  0.00    -0.065 C 
ATOM     30  C   UNL     1      34.823 -22.151 -16.078  0.00  0.00    -0.017 C 
ATOM     31  C   UNL     1      36.499 -22.912 -14.341  0.00  0.00    -0.022 C 
ATOM     32  C   UNL     1      35.836 -24.621 -12.612  0.00  0.00    -0.000 C 
BRANCH  29  33
ATOM     33  N   UNL     1      37.078 -21.194 -15.990  0.00  0.00    +0.382 N 
ATOM     34  H   UNL     1      36.929 -20.856 -16.941  0.00  0.00    -0.089 HD
ATOM     35  H   UNL     1      38.070 -21.391 -15.852  0.00  0.00    -0.089 HD
ATOM     36  H   UNL     1      36.778 -20.482 -15.325  0.00  0.00    -0.089 HD
ENDBRANCH  29  33
ENDBRANCH  21  26
ENDBRANCH   2  22
TORSDOF 5
ENDMDL
MODEL 2
REMARK VINA RESULT:     -13.4      0.008      1.464
REMARK  Name = 44814409
REMARK  5 active torsions:
REMARK  status: ('A' for Active; 'I' for Inactive)
REMARK    1  A    between atoms: N_2  and  C_22
REMARK    2  A    between atoms: C_3  and  C_7
REMARK    3  A    between atoms: C_9  and  C_14
REMARK    4  A    between atoms: C_21  and  C_26
REMARK    5  A    between atoms: C_29  and  N_33
REMARK                            x       y       z     vdW  Elec       q    Type
REMARK                         _______ _______ _______ _____ _____    ______ ____
ROOT
ATOM      1  O   UNL     1      31.882 -21.267 -19.875  0.00  0.00    -0.267 OA
ATOM      2  N   UNL     1      33.055 -21.562 -17.858  0.00  0.00    -0.278 N 
ATOM      3  C   UNL     1      32.887 -21.140 -19.184  0.00  0.00    +0.275 C 
ATOM      4  H   UNL     1      33.933 -21.377 -17.454  0.00  0.00    +0.155 HD
ENDROOT
BRANCH   3   7
ATOM      5  F   UNL     1      37.155 -18.451 -21.508  0.00  0.00    -0.202 F 
ATOM      6  N   UNL     1      33.767 -19.473 -20.677  0.00  0.00    -0.399 NA
ATOM      7  C   UNL     1      34.057 -20.445 -19.784  0.00  0.00    +0.167 C 
ATOM      8  C   UNL     1      35.345 -20.806 -19.419  0.00  0.00    +0.092 C 
ATOM      9  C   UNL     1      34.822 -18.832 -21.229  0.00  0.00    +0.162 C 
ATOM     10  C   UNL     1      36.402 -20.123 -20.010  0.00  0.00    +0.014 C 
ATOM     11  C   UNL     1      36.145 -19.116 -20.933  0.00  0.00    +0.166 C 
BRANCH   9  14
ATOM     12  F   UNL     1      34.130 -19.423 -23.882  0.00  0.00    -0.204 F 
ATOM     13  F   UNL     1      34.799 -16.117 -20.529  0.00  0.00    -0.204 F 
ATOM     14  C   UNL     1      34.474 -17.799 -22.178  0.00  0.00    +0.087 C 
ATOM     15  C   UNL     1      34.137 -18.141 -23.487  0.00  0.00    +0.145 C 
ATOM     16  C   UNL     1      34.476 -16.461 -21.784  0.00  0.00    +0.145 C 
ATOM     17  C   UNL     1      33.800 -17.143 -24.403  0.00  0.00    +0.030 C 
ATOM     18  C   UNL     1      34.141 -15.464 -22.699  0.00  0.00    +0.030 C 
ATOM     19  C   UNL     1      33.804 -15.805 -24.009  0.00  0.00    +0.005 C 
ENDBRANCH   9  14
ENDBRANCH   3   7
BRANCH   2  22
ATOM     20  N   UNL     1      29.810 -22.574 -16.460  0.00  0.00    -0.241 NA
ATOM     21  C   UNL     1      32.525 -23.097 -16.044  0.00  0.00    -0.006 C 
ATOM     22  C   UNL     1      32.129 -22.211 -17.040  0.00  0.00    +0.066 C 
ATOM     23  C   UNL     1      31.565 -23.721 -15.256  0.00  0.00    +0.018 C 
ATOM     24  C   UNL     1      30.773 -21.986 -17.207  0.00  0.00    +0.113 C 
ATOM     25  C   UNL     1      30.233 -23.428 -15.502  0.00  0.00    +0.099 C 
BRANCH  21  26
ATOM     26  C   UNL     1      33.970 -23.395 -15.801  0.00  0.00    +0.022 C 
ATOM     27  C   UNL     1      35.655 -24.149 -14.054  0.00  0.00    -0.002 C 
ATOM     28  C   UNL     1      34.172 -23.891 -14.358  0.00  0.00    +0.004 C 
ATOM     29  C   UNL     1      36.304 -22.406 -15.779  0.00  0.00    -0.065 C 
ATOM     30  C   UNL     1      34.822 -22.144 -16.079  0.00  0.00    -0.017 C 
ATOM     31  C   UNL     1      36.498 -22.898 -14.340  0.00  0.00    -0.022 C 
ATOM     32  C   UNL     1      35.836 -24.602 -12.606  0.00  0.00    -0.000 C 
BRANCH  29  33
ATOM     33  N   UNL     1      37.076 -21.184 -15.994  0.00  0.00    +0.382 N 
ATOM     34  H   UNL     1      37.695 -21.308 -16.795  0.00  0.00    -0.089 HD
ATOM     35  H   UNL     1      37.633 -20.982 -15.163  0.00  0.00    -0.089 HD
ATOM     36  H   UNL     1      36.440 -20.407 -16.173  0.00  0.00    -0.089 HD
ENDBRANCH  29  33
ENDBRANCH  21  26
ENDBRANCH   2  22
TORSDOF 5
ENDMDL
MODEL 3
REMARK VINA RESULT:     -11.5      9.229     15.143
REMARK  Name = 44814409
REMARK  5 active torsions:
REMARK  status: ('A' for Active; 'I' for Inactive)
REMARK    1  A    between atoms: N_2  and  C_22
REMARK    2  A    between atoms: C_3  and  C_7
REMARK    3  A    between atoms: C_9  and  C_14
REMARK    4  A    between atoms: C_21  and  C_26
REMARK    5  A    between atoms: C_29  and  N_33
REMARK                            x       y       z     vdW  Elec       q    Type
REMARK                         _______ _______ _______ _____ _____    ______ ____
ROOT
ATOM      1  O   UNL     1      34.944  -8.577 -23.625  0.00  0.00    -0.267 OA
ATOM      2  N   UNL     1      32.944  -7.420 -24.062  0.00  0.00    -0.278 N 
ATOM      3  C   UNL     1      33.722  -8.487 -23.591  0.00  0.00    +0.275 C 
ATOM      4  H   UNL     1      31.970  -7.514 -23.953  0.00  0.00    +0.155 HD
ENDROOT
BRANCH   3   7
ATOM      5  F   UNL     1      30.981 -12.752 -21.323  0.00  0.00    -0.202 F 
ATOM      6  N   UNL     1      33.382 -10.846 -23.275  0.00  0.00    -0.399 NA
ATOM      7  C   UNL     1      32.962  -9.600 -22.964  0.00  0.00    +0.167 C 
ATOM      8  C   UNL     1      31.895  -9.329 -22.121  0.00  0.00    +0.092 C 
ATOM      9  C   UNL     1      32.701 -11.869 -22.711  0.00  0.00    +0.162 C 
ATOM     10  C   UNL     1      31.220 -10.408 -21.561  0.00  0.00    +0.014 C 
ATOM     11  C   UNL     1      31.624 -11.705 -21.856  0.00  0.00    +0.166 C 
BRANCH   9  14
ATOM     12  F   UNL     1      34.047 -13.505 -20.874  0.00  0.00    -0.204 F 
ATOM     13  F   UNL     1      32.341 -12.940 -25.278  0.00  0.00    -0.204 F 
ATOM     14  C   UNL     1      33.180 -13.185 -23.066  0.00  0.00    +0.087 C 
ATOM     15  C   UNL     1      33.844 -13.963 -22.119  0.00  0.00    +0.145 C 
ATOM     16  C   UNL     1      32.977 -13.676 -24.355  0.00  0.00    +0.145 C 
ATOM     17  C   UNL     1      34.306 -15.235 -22.461  0.00  0.00    +0.030 C 
ATOM     18  C   UNL     1      33.439 -14.947 -24.698  0.00  0.00    +0.030 C 
ATOM     19  C   UNL     1      34.104 -15.726 -23.751  0.00  0.00    +0.005 C 
ENDBRANCH   9  14
ENDBRANCH   3   7
BRANCH   2  22
ATOM     20  N   UNL     1      34.915  -5.174 -26.201  0.00  0.00    -0.241 NA
ATOM     21  C   UNL     1      32.787  -5.014 -24.395  0.00  0.00    -0.006 C 
ATOM     22  C   UNL     1      33.380  -6.241 -24.667  0.00  0.00    +0.066 C 
ATOM     23  C   UNL     1      33.256  -3.866 -25.024  0.00  0.00    +0.018 C 
ATOM     24  C   UNL     1      34.431  -6.267 -25.570  0.00  0.00    +0.113 C 
ATOM     25  C   UNL     1      34.312  -3.999 -25.911  0.00  0.00    +0.099 C 
BRANCH  21  26
ATOM     26  C   UNL     1      31.647  -4.900 -23.434  0.00  0.00    +0.022 C 
ATOM     27  C   UNL     1      30.148  -3.263 -22.195  0.00  0.00    -0.002 C 
ATOM     28  C   UNL     1      31.277  -3.420 -23.224  0.00  0.00    +0.004 C 
ATOM     29  C   UNL     1      30.881  -5.417 -21.073  0.00  0.00    -0.065 C 
ATOM     30  C   UNL     1      32.013  -5.572 -22.098  0.00  0.00    -0.017 C 
ATOM     31  C   UNL     1      30.520  -3.941 -20.868  0.00  0.00    -0.022 C 
ATOM     32  C   UNL     1      29.825  -1.786 -21.973  0.00  0.00    -0.000 C 
BRANCH  29  33
ATOM     33  N   UNL     1      31.283  -6.011 -19.799  0.00  0.00    +0.382 N 
ATOM     34  H   UNL     1      32.277  -6.237 -19.827  0.00  0.00    -0.089 HD
ATOM     35  H   UNL     1      30.745  -6.863 -19.637  0.00  0.00    -0.089 HD
ATOM     36  H   UNL     1      31.106  -5.348 -19.044  0.00  0.00    -0.089 HD
ENDBRANCH  29  33
ENDBRANCH  21  26
ENDBRANCH   2  22
TORSDOF 5
ENDMDL
MODEL 4
REMARK VINA RESULT:     -11.5      9.228     15.183
REMARK  Name = 44814409
REMARK  5 active torsions:
REMARK  status: ('A' for Active; 'I' for Inactive)
REMARK    1  A    between atoms: N_2  and  C_22
REMARK    2  A    between atoms: C_3  and  C_7
REMARK    3  A    between atoms: C_9  and  C_14
REMARK    4  A    between atoms: C_21  and  C_26
REMARK    5  A    between atoms: C_29  and  N_33
REMARK                            x       y       z     vdW  Elec       q    Type
REMARK                         _______ _______ _______ _____ _____    ______ ____
ROOT
ATOM      1  O   UNL     1      34.945  -8.580 -23.624  0.00  0.00    -0.267 OA
ATOM      2  N   UNL     1      32.945  -7.420 -24.055  0.00  0.00    -0.278 N 
ATOM      3  C   UNL     1      33.722  -8.488 -23.587  0.00  0.00    +0.275 C 
ATOM      4  H   UNL     1      31.971  -7.513 -23.942  0.00  0.00    +0.155 HD
ENDROOT
BRANCH   3   7
ATOM      5  F   UNL     1      30.985 -12.753 -21.315  0.00  0.00    -0.202 F 
ATOM      6  N   UNL     1      33.384 -10.848 -23.271  0.00  0.00    -0.399 NA
ATOM      7  C   UNL     1      32.963  -9.601 -22.959  0.00  0.00    +0.167 C 
ATOM      8  C   UNL     1      31.898  -9.330 -22.114  0.00  0.00    +0.092 C 
ATOM      9  C   UNL     1      32.703 -11.870 -22.706  0.00  0.00    +0.162 C 
ATOM     10  C   UNL     1      31.223 -10.409 -21.553  0.00  0.00    +0.014 C 
ATOM     11  C   UNL     1      31.627 -11.706 -21.849  0.00  0.00    +0.166 C 
BRANCH   9  14
ATOM     12  F   UNL     1      32.344 -12.938 -25.274  0.00  0.00    -0.204 F 
ATOM     13  F   UNL     1      34.045 -13.509 -20.868  0.00  0.00    -0.204 F 
ATOM     14  C   UNL     1      33.181 -13.186 -23.061  0.00  0.00    +0.087 C 
ATOM     15  C   UNL     1      32.980 -13.676 -24.351  0.00  0.00    +0.145 C 
ATOM     16  C   UNL     1      33.844 -13.966 -22.113  0.00  0.00    +0.145 C 
ATOM     17  C   UNL     1      33.442 -14.947 -24.693  0.00  0.00    +0.030 C 
ATOM     18  C   UNL     1      34.306 -15.237 -22.455  0.00  0.00    +0.030 C 
ATOM     19  C   UNL     1      34.104 -15.727 -23.746  0.00  0.00    +0.005 C 
ENDBRANCH   9  14
ENDBRANCH   3   7
BRANCH   2  22
ATOM     20  N   UNL     1      34.912  -5.173 -26.195  0.00  0.00    -0.241 NA
ATOM     21  C   UNL     1      32.787  -5.013 -24.386  0.00  0.00    -0.006 C 
ATOM     22  C   UNL     1      33.380  -6.240 -24.659  0.00  0.00    +0.066 C 
ATOM     23  C   UNL     1      33.255  -3.865 -25.015  0.00  0.00    +0.018 C 
ATOM     24  C   UNL     1      34.429  -6.267 -25.564  0.00  0.00    +0.113 C 
ATOM     25  C   UNL     1      34.310  -3.998 -25.904  0.00  0.00    +0.099 C 
BRANCH  21  26
ATOM     26  C   UNL     1      31.649  -4.900 -23.423  0.00  0.00    +0.022 C 
ATOM     27  C   UNL     1      30.154  -3.263 -22.179  0.00  0.00    -0.002 C 
ATOM     28  C   UNL     1      31.281  -3.420 -23.210  0.00  0.00    +0.004 C 
ATOM     29  C   UNL     1      30.887  -5.419 -21.061  0.00  0.00    -0.065 C 
ATOM     30  C   UNL     1      32.016  -5.574 -22.088  0.00  0.00    -0.017 C 
ATOM     31  C   UNL     1      30.527  -3.943 -20.853  0.00  0.00    -0.022 C 
ATOM     32  C   UNL     1      29.833  -1.786 -21.955  0.00  0.00    -0.000 C 
BRANCH  29  33
ATOM     33  N   UNL     1      31.290  -6.015 -19.789  0.00  0.00    +0.382 N 
ATOM     34  H   UNL     1      30.892  -5.477 -19.019  0.00  0.00    -0.089 HD
ATOM     35  H   UNL     1      32.308  -6.008 -19.717  0.00  0.00    -0.089 HD
ATOM     36  H   UNL     1      30.953  -6.976 -19.741  0.00  0.00    -0.089 HD
ENDBRANCH  29  33
ENDBRANCH  21  26
ENDBRANCH   2  22
TORSDOF 5
ENDMDL
MODEL 5
REMARK VINA RESULT:     -11.4      4.443      8.736
REMARK  Name = 44814409
REMARK  5 active torsions:
REMARK  status: ('A' for Active; 'I' for Inactive)
REMARK    1  A    between atoms: N_2  and  C_22
REMARK    2  A    between atoms: C_3  and  C_7
REMARK    3  A    between atoms: C_9  and  C_14
REMARK    4  A    between atoms: C_21  and  C_26
REMARK    5  A    between atoms: C_29  and  N_33
REMARK                            x       y       z     vdW  Elec       q    Type
REMARK                         _______ _______ _______ _____ _____    ______ ____
ROOT
ATOM      1  O   UNL     1      37.193 -20.484 -16.479  0.00  0.00    -0.267 OA
ATOM      2  N   UNL     1      35.802 -22.195 -17.297  0.00  0.00    -0.278 N 
ATOM      3  C   UNL     1      36.809 -21.649 -16.489  0.00  0.00    +0.275 C 
ATOM      4  H   UNL     1      35.622 -23.155 -17.172  0.00  0.00    +0.155 HD
ENDROOT
BRANCH   3   7
ATOM      5  F   UNL     1      39.061 -25.156 -12.819  0.00  0.00    -0.202 F 
ATOM      6  N   UNL     1      36.816 -22.741 -14.346  0.00  0.00    -0.399 NA
ATOM      7  C   UNL     1      37.444 -22.596 -15.535  0.00  0.00    +0.167 C 
ATOM      8  C   UNL     1      38.606 -23.265 -15.885  0.00  0.00    +0.092 C 
ATOM      9  C   UNL     1      37.382 -23.600 -13.469  0.00  0.00    +0.162 C 
ATOM     10  C   UNL     1      39.158 -24.140 -14.955  0.00  0.00    +0.014 C 
ATOM     11  C   UNL     1      38.540 -24.316 -13.722  0.00  0.00    +0.166 C 
BRANCH   9  14
ATOM     12  F   UNL     1      35.990 -25.934 -12.777  0.00  0.00    -0.204 F 
ATOM     13  F   UNL     1      37.335 -21.533 -11.575  0.00  0.00    -0.204 F 
ATOM     14  C   UNL     1      36.683 -23.730 -12.212  0.00  0.00    +0.087 C 
ATOM     15  C   UNL     1      36.004 -24.910 -11.910  0.00  0.00    +0.145 C 
ATOM     16  C   UNL     1      36.688 -22.675 -11.299  0.00  0.00    +0.145 C 
ATOM     17  C   UNL     1      35.330 -25.035 -10.695  0.00  0.00    +0.030 C 
ATOM     18  C   UNL     1      36.014 -22.799 -10.084  0.00  0.00    +0.030 C 
ATOM     19  C   UNL     1      35.334 -23.980  -9.783  0.00  0.00    +0.005 C 
ENDBRANCH   9  14
ENDBRANCH   3   7
BRANCH   2  22
ATOM     20  N   UNL     1      34.944 -20.079 -20.175  0.00  0.00    -0.241 NA
ATOM     21  C   UNL     1      33.641 -21.683 -18.292  0.00  0.00    -0.006 C 
ATOM     22  C   UNL     1      35.024 -21.547 -18.255  0.00  0.00    +0.066 C 
ATOM     23  C   UNL     1      32.908 -21.018 -19.269  0.00  0.00    +0.018 C 
ATOM     24  C   UNL     1      35.622 -20.741 -19.211  0.00  0.00    +0.113 C 
ATOM     25  C   UNL     1      33.601 -20.235 -20.178  0.00  0.00    +0.099 C 
BRANCH  21  26
ATOM     26  C   UNL     1      32.920 -22.536 -17.298  0.00  0.00    +0.022 C 
ATOM     27  C   UNL     1      30.684 -22.928 -16.154  0.00  0.00    -0.002 C 
ATOM     28  C   UNL     1      31.441 -22.113 -17.212  0.00  0.00    +0.004 C 
ATOM     29  C   UNL     1      32.845 -23.254 -14.868  0.00  0.00    -0.065 C 
ATOM     30  C   UNL     1      33.602 -22.435 -15.922  0.00  0.00    -0.017 C 
ATOM     31  C   UNL     1      31.375 -22.827 -14.787  0.00  0.00    -0.022 C 
ATOM     32  C   UNL     1      29.230 -22.465 -16.059  0.00  0.00    -0.000 C 
BRANCH  29  33
ATOM     33  N   UNL     1      33.482 -23.090 -13.563  0.00  0.00    +0.382 N 
ATOM     34  H   UNL     1      32.782 -23.189 -12.827  0.00  0.00    -0.089 HD
ATOM     35  H   UNL     1      33.906 -22.164 -13.505  0.00  0.00    -0.089 HD
ATOM     36  H   UNL     1      34.202 -23.802 -13.443  0.00  0.00    -0.089 HD
ENDBRANCH  29  33
ENDBRANCH  21  26
ENDBRANCH   2  22
TORSDOF 5
ENDMDL
MODEL 6
REMARK VINA RESULT:     -10.9      9.010     14.792
REMARK  Name = 44814409
REMARK  5 active torsions:
REMARK  status: ('A' for Active; 'I' for Inactive)
REMARK    1  A    between atoms: N_2  and  C_22
REMARK    2  A    between atoms: C_3  and  C_7
REMARK    3  A    between atoms: C_9  and  C_14
REMARK    4  A    between atoms: C_21  and  C_26
REMARK    5  A    between atoms: C_29  and  N_33
REMARK                            x       y       z     vdW  Elec       q    Type
REMARK                         _______ _______ _______ _____ _____    ______ ____
ROOT
ATOM      1  O   UNL     1      34.922  -8.488 -23.686  0.00  0.00    -0.267 OA
ATOM      2  N   UNL     1      32.959  -7.271 -24.130  0.00  0.00    -0.278 N 
ATOM      3  C   UNL     1      33.703  -8.357 -23.649  0.00  0.00    +0.275 C 
ATOM      4  H   UNL     1      31.983  -7.333 -24.016  0.00  0.00    +0.155 HD
ENDROOT
BRANCH   3   7
ATOM      5  F   UNL     1      30.842 -12.505 -21.314  0.00  0.00    -0.202 F 
ATOM      6  N   UNL     1      33.346 -10.698 -23.231  0.00  0.00    -0.399 NA
ATOM      7  C   UNL     1      32.910  -9.439 -23.007  0.00  0.00    +0.167 C 
ATOM      8  C   UNL     1      31.800  -9.126 -22.237  0.00  0.00    +0.092 C 
ATOM      9  C   UNL     1      32.634 -11.691 -22.652  0.00  0.00    +0.162 C 
ATOM     10  C   UNL     1      31.095 -10.176 -21.659  0.00  0.00    +0.014 C 
ATOM     11  C   UNL     1      31.513 -11.486 -21.865  0.00  0.00    +0.166 C 
BRANCH   9  14
ATOM     12  F   UNL     1      33.974 -13.187 -20.694  0.00  0.00    -0.204 F 
ATOM     13  F   UNL     1      32.315 -12.935 -25.145  0.00  0.00    -0.204 F 
ATOM     14  C   UNL     1      33.130 -13.023 -22.912  0.00  0.00    +0.087 C 
ATOM     15  C   UNL     1      33.790 -13.730 -21.907  0.00  0.00    +0.145 C 
ATOM     16  C   UNL     1      32.947 -13.602 -24.168  0.00  0.00    +0.145 C 
ATOM     17  C   UNL     1      34.268 -15.016 -22.158  0.00  0.00    +0.030 C 
ATOM     18  C   UNL     1      33.426 -14.888 -24.420  0.00  0.00    +0.030 C 
ATOM     19  C   UNL     1      34.087 -15.594 -23.415  0.00  0.00    +0.005 C 
ENDBRANCH   9  14
ENDBRANCH   3   7
BRANCH   2  22
ATOM     20  N   UNL     1      34.518  -5.115 -26.664  0.00  0.00    -0.241 NA
ATOM     21  C   UNL     1      33.313  -4.863 -24.154  0.00  0.00    -0.006 C 
ATOM     22  C   UNL     1      33.431  -6.114 -24.749  0.00  0.00    +0.066 C 
ATOM     23  C   UNL     1      33.798  -3.738 -24.812  0.00  0.00    +0.018 C 
ATOM     24  C   UNL     1      34.035  -6.186 -25.994  0.00  0.00    +0.113 C 
ATOM     25  C   UNL     1      34.386  -3.916 -26.054  0.00  0.00    +0.099 C 
BRANCH  21  26
ATOM     26  C   UNL     1      32.673  -4.700 -22.813  0.00  0.00    +0.022 C 
ATOM     27  C   UNL     1      32.331  -5.792 -20.543  0.00  0.00    -0.002 C 
ATOM     28  C   UNL     1      33.024  -5.897 -21.910  0.00  0.00    +0.004 C 
ATOM     29  C   UNL     1      30.459  -4.449 -21.603  0.00  0.00    -0.065 C 
ATOM     30  C   UNL     1      31.148  -4.557 -22.970  0.00  0.00    -0.017 C 
ATOM     31  C   UNL     1      30.812  -5.643 -20.709  0.00  0.00    -0.022 C 
ATOM     32  C   UNL     1      32.663  -7.009 -19.679  0.00  0.00    -0.000 C 
BRANCH  29  33
ATOM     33  N   UNL     1      29.011  -4.375 -21.783  0.00  0.00    +0.382 N 
ATOM     34  H   UNL     1      28.710  -5.103 -22.431  0.00  0.00    -0.089 HD
ATOM     35  H   UNL     1      28.761  -3.460 -22.161  0.00  0.00    -0.089 HD
ATOM     36  H   UNL     1      28.549  -4.508 -20.884  0.00  0.00    -0.089 HD
ENDBRANCH  29  33
ENDBRANCH  21  26
ENDBRANCH   2  22
TORSDOF 5
ENDMDL
