MODEL 1
REMARK VINA RESULT:     -12.5      0.000      0.000
REMARK  Name = 70798655
REMARK  2 active torsions:
REMARK  status: ('A' for Active; 'I' for Inactive)
REMARK    1  A    between atoms: C_3  and  C_29
REMARK    2  A    between atoms: C_5  and  C_13
REMARK                            x       y       z     vdW  Elec       q    Type
REMARK                         _______ _______ _______ _____ _____    ______ ____
ROOT
ATOM      1  N   UNL     1      33.591 -23.238 -14.922  0.00  0.00    -0.245 N 
ATOM      2  N   UNL     1      32.041 -24.252 -13.670  0.00  0.00    -0.227 NA
ATOM      3  C   UNL     1      34.225 -23.651 -13.778  0.00  0.00    +0.130 C 
ATOM      4  C   UNL     1      32.262 -23.628 -14.808  0.00  0.00    +0.139 C 
ATOM      5  C   UNL     1      33.298 -22.245 -17.056  0.00  0.00    +0.012 C 
ATOM      6  C   UNL     1      34.109 -22.559 -16.022  0.00  0.00    +0.071 C 
ATOM      7  C   UNL     1      33.253 -24.268 -13.027  0.00  0.00    +0.120 C 
ATOM      8  C   UNL     1      31.400 -23.304 -15.893  0.00  0.00    +0.035 C 
ATOM      9  C   UNL     1      31.890 -22.647 -16.962  0.00  0.00    +0.004 C 
ENDROOT
BRANCH   5  13
ATOM     10  O   UNL     1      35.215 -19.514 -21.499  0.00  0.00    -0.414 OA
ATOM     11  N   UNL     1      32.961 -19.541 -21.255  0.00  0.00    -0.356 NA
ATOM     12  N   UNL     1      34.000 -18.414 -23.109  0.00  0.00    -0.302 N 
ATOM     13  C   UNL     1      33.855 -21.532 -18.221  0.00  0.00    -0.014 C 
ATOM     14  C   UNL     1      32.984 -20.904 -19.124  0.00  0.00    +0.089 C 
ATOM     15  C   UNL     1      35.244 -21.493 -18.406  0.00  0.00    -0.001 C 
ATOM     16  C   UNL     1      33.543 -20.234 -20.222  0.00  0.00    +0.152 C 
ATOM     17  C   UNL     1      34.923 -20.221 -20.368  0.00  0.00    +0.175 C 
ATOM     18  C   UNL     1      35.817 -20.829 -19.496  0.00  0.00    +0.040 C 
ATOM     19  C   UNL     1      33.991 -19.143 -21.970  0.00  0.00    +0.341 C 
ATOM     20  H   UNL     1      34.856 -18.187 -23.542  0.00  0.00    +0.148 HD
ATOM     21  H   UNL     1      33.153 -18.111 -23.506  0.00  0.00    +0.148 HD
ENDBRANCH   5  13
BRANCH   3  29
ATOM     22  O   UNL     1      38.354 -26.531 -14.229  0.00  0.00    -0.350 OA
ATOM     23  O   UNL     1      35.914 -22.487 -12.747  0.00  0.00    -0.268 OA
ATOM     24  N   UNL     1      36.568 -24.367 -13.969  0.00  0.00    -0.270 N 
ATOM     25  C   UNL     1      37.991 -24.203 -13.676  0.00  0.00    +0.126 C 
ATOM     26  C   UNL     1      36.261 -25.483 -14.872  0.00  0.00    +0.126 C 
ATOM     27  C   UNL     1      36.951 -26.754 -14.394  0.00  0.00    +0.164 C 
ATOM     28  C   UNL     1      38.600 -25.527 -13.240  0.00  0.00    +0.164 C 
ATOM     29  C   UNL     1      35.644 -23.457 -13.454  0.00  0.00    +0.265 C 
ENDBRANCH   3  29
TORSDOF 2
ENDMDL
MODEL 2
REMARK VINA RESULT:     -11.7      4.392     10.675
REMARK  Name = 70798655
REMARK  2 active torsions:
REMARK  status: ('A' for Active; 'I' for Inactive)
REMARK    1  A    between atoms: C_3  and  C_29
REMARK    2  A    between atoms: C_5  and  C_13
REMARK                            x       y       z     vdW  Elec       q    Type
REMARK                         _______ _______ _______ _____ _____    ______ ____
ROOT
ATOM      1  N   UNL     1      34.079 -16.446 -22.430  0.00  0.00    -0.245 N 
ATOM      2  N   UNL     1      34.272 -15.671 -24.518  0.00  0.00    -0.227 NA
ATOM      3  C   UNL     1      33.858 -15.094 -22.364  0.00  0.00    +0.130 C 
ATOM      4  C   UNL     1      34.326 -16.749 -23.763  0.00  0.00    +0.139 C 
ATOM      5  C   UNL     1      34.320 -18.688 -21.696  0.00  0.00    +0.012 C 
ATOM      6  C   UNL     1      34.074 -17.392 -21.408  0.00  0.00    +0.071 C 
ATOM      7  C   UNL     1      33.983 -14.642 -23.657  0.00  0.00    +0.120 C 
ATOM      8  C   UNL     1      34.585 -18.112 -24.077  0.00  0.00    +0.035 C 
ATOM      9  C   UNL     1      34.582 -19.036 -23.097  0.00  0.00    +0.004 C 
ENDROOT
BRANCH   5  13
ATOM     10  O   UNL     1      34.067 -22.442 -17.607  0.00  0.00    -0.414 OA
ATOM     11  N   UNL     1      32.073 -21.705 -18.393  0.00  0.00    -0.356 NA
ATOM     12  N   UNL     1      32.190 -23.332 -16.624  0.00  0.00    -0.302 N 
ATOM     13  C   UNL     1      34.305 -19.686 -20.609  0.00  0.00    -0.014 C 
ATOM     14  C   UNL     1      33.075 -20.138 -20.108  0.00  0.00    +0.089 C 
ATOM     15  C   UNL     1      35.518 -20.166 -20.096  0.00  0.00    -0.001 C 
ATOM     16  C   UNL     1      33.092 -21.086 -19.075  0.00  0.00    +0.152 C 
ATOM     17  C   UNL     1      34.315 -21.534 -18.596  0.00  0.00    +0.175 C 
ATOM     18  C   UNL     1      35.551 -21.112 -19.066  0.00  0.00    +0.040 C 
ATOM     19  C   UNL     1      32.707 -22.487 -17.547  0.00  0.00    +0.341 C 
ATOM     20  H   UNL     1      32.791 -23.862 -16.052  0.00  0.00    +0.148 HD
ATOM     21  H   UNL     1      31.215 -23.415 -16.525  0.00  0.00    +0.148 HD
ENDBRANCH   5  13
BRANCH   3  29
ATOM     22  O   UNL     1      31.265 -10.850 -21.461  0.00  0.00    -0.350 OA
ATOM     23  O   UNL     1      34.202 -14.612 -20.146  0.00  0.00    -0.268 OA
ATOM     24  N   UNL     1      32.570 -13.336 -21.227  0.00  0.00    -0.270 N 
ATOM     25  C   UNL     1      32.235 -12.552 -20.040  0.00  0.00    +0.126 C 
ATOM     26  C   UNL     1      31.746 -13.035 -22.405  0.00  0.00    +0.126 C 
ATOM     27  C   UNL     1      31.696 -11.531 -22.642  0.00  0.00    +0.164 C 
ATOM     28  C   UNL     1      32.176 -11.070 -20.381  0.00  0.00    +0.164 C 
ATOM     29  C   UNL     1      33.557 -14.321 -21.152  0.00  0.00    +0.265 C 
ENDBRANCH   3  29
TORSDOF 2
ENDMDL
MODEL 3
REMARK VINA RESULT:     -11.6      1.284      1.870
REMARK  Name = 70798655
REMARK  2 active torsions:
REMARK  status: ('A' for Active; 'I' for Inactive)
REMARK    1  A    between atoms: C_3  and  C_29
REMARK    2  A    between atoms: C_5  and  C_13
REMARK                            x       y       z     vdW  Elec       q    Type
REMARK                         _______ _______ _______ _____ _____    ______ ____
ROOT
ATOM      1  N   UNL     1      33.108 -23.484 -15.371  0.00  0.00    -0.245 N 
ATOM      2  N   UNL     1      31.415 -24.176 -14.084  0.00  0.00    -0.227 NA
ATOM      3  C   UNL     1      33.662 -24.248 -14.376  0.00  0.00    +0.130 C 
ATOM      4  C   UNL     1      31.736 -23.472 -15.150  0.00  0.00    +0.139 C 
ATOM      5  C   UNL     1      32.984 -22.117 -17.305  0.00  0.00    +0.012 C 
ATOM      6  C   UNL     1      33.729 -22.823 -16.427  0.00  0.00    +0.071 C 
ATOM      7  C   UNL     1      32.605 -24.659 -13.600  0.00  0.00    +0.120 C 
ATOM      8  C   UNL     1      30.941 -22.733 -16.071  0.00  0.00    +0.035 C 
ATOM      9  C   UNL     1      31.532 -22.089 -17.096  0.00  0.00    +0.004 C 
ENDROOT
BRANCH   5  13
ATOM     10  O   UNL     1      35.312 -19.454 -21.590  0.00  0.00    -0.414 OA
ATOM     11  N   UNL     1      33.051 -19.354 -21.478  0.00  0.00    -0.356 NA
ATOM     12  N   UNL     1      34.260 -18.268 -23.252  0.00  0.00    -0.302 N 
ATOM     13  C   UNL     1      33.649 -21.425 -18.426  0.00  0.00    -0.014 C 
ATOM     14  C   UNL     1      32.870 -20.739 -19.369  0.00  0.00    +0.089 C 
ATOM     15  C   UNL     1      35.046 -21.465 -18.529  0.00  0.00    -0.001 C 
ATOM     16  C   UNL     1      33.530 -20.090 -20.423  0.00  0.00    +0.152 C 
ATOM     17  C   UNL     1      34.914 -20.155 -20.488  0.00  0.00    +0.175 C 
ATOM     18  C   UNL     1      35.719 -20.823 -19.574  0.00  0.00    +0.040 C 
ATOM     19  C   UNL     1      34.142 -19.008 -22.126  0.00  0.00    +0.341 C 
ATOM     20  H   UNL     1      35.151 -18.086 -23.631  0.00  0.00    +0.148 HD
ATOM     21  H   UNL     1      33.456 -17.913 -23.694  0.00  0.00    +0.148 HD
ENDBRANCH   5  13
BRANCH   3  29
ATOM     22  O   UNL     1      36.944 -23.609 -10.584  0.00  0.00    -0.350 OA
ATOM     23  O   UNL     1      35.717 -24.828 -15.222  0.00  0.00    -0.268 OA
ATOM     24  N   UNL     1      35.624 -24.487 -12.913  0.00  0.00    -0.270 N 
ATOM     25  C   UNL     1      37.039 -24.783 -12.698  0.00  0.00    +0.126 C 
ATOM     26  C   UNL     1      34.867 -24.220 -11.683  0.00  0.00    +0.126 C 
ATOM     27  C   UNL     1      35.597 -23.193 -10.828  0.00  0.00    +0.164 C 
ATOM     28  C   UNL     1      37.674 -23.724 -11.809  0.00  0.00    +0.164 C 
ATOM     29  C   UNL     1      35.091 -24.543 -14.202  0.00  0.00    +0.265 C 
ENDBRANCH   3  29
TORSDOF 2
ENDMDL
MODEL 4
REMARK VINA RESULT:     -10.8      2.963      4.786
REMARK  Name = 70798655
REMARK  2 active torsions:
REMARK  status: ('A' for Active; 'I' for Inactive)
REMARK    1  A    between atoms: C_3  and  C_29
REMARK    2  A    between atoms: C_5  and  C_13
REMARK                            x       y       z     vdW  Elec       q    Type
REMARK                         _______ _______ _______ _____ _____    ______ ____
ROOT
ATOM      1  N   UNL     1      34.190 -22.279 -16.747  0.00  0.00    -0.245 N 
ATOM      2  N   UNL     1      35.054 -23.338 -14.978  0.00  0.00    -0.227 NA
ATOM      3  C   UNL     1      33.138 -22.873 -16.097  0.00  0.00    +0.130 C 
ATOM      4  C   UNL     1      35.336 -22.592 -16.026  0.00  0.00    +0.139 C 
ATOM      5  C   UNL     1      35.353 -21.011 -18.379  0.00  0.00    +0.012 C 
ATOM      6  C   UNL     1      34.189 -21.503 -17.903  0.00  0.00    +0.071 C 
ATOM      7  C   UNL     1      33.694 -23.516 -15.017  0.00  0.00    +0.120 C 
ATOM      8  C   UNL     1      36.567 -22.076 -16.517  0.00  0.00    +0.035 C 
ATOM      9  C   UNL     1      36.578 -21.324 -17.635  0.00  0.00    +0.004 C 
ENDROOT
BRANCH   5  13
ATOM     10  O   UNL     1      35.135 -17.954 -23.014  0.00  0.00    -0.414 OA
ATOM     11  N   UNL     1      33.278 -19.168 -22.544  0.00  0.00    -0.356 NA
ATOM     12  N   UNL     1      33.394 -17.775 -24.503  0.00  0.00    -0.302 N 
ATOM     13  C   UNL     1      35.343 -20.183 -19.600  0.00  0.00    -0.014 C 
ATOM     14  C   UNL     1      34.202 -20.175 -20.416  0.00  0.00    +0.089 C 
ATOM     15  C   UNL     1      36.473 -19.419 -19.924  0.00  0.00    -0.001 C 
ATOM     16  C   UNL     1      34.222 -19.378 -21.570  0.00  0.00    +0.152 C 
ATOM     17  C   UNL     1      35.361 -18.638 -21.853  0.00  0.00    +0.175 C 
ATOM     18  C   UNL     1      36.508 -18.619 -21.071  0.00  0.00    +0.040 C 
ATOM     19  C   UNL     1      33.870 -18.324 -23.362  0.00  0.00    +0.341 C 
ATOM     20  H   UNL     1      33.955 -17.152 -25.020  0.00  0.00    +0.148 HD
ATOM     21  H   UNL     1      32.488 -17.998 -24.815  0.00  0.00    +0.148 HD
ENDBRANCH   5  13
BRANCH   3  29
ATOM     22  O   UNL     1      28.844 -24.631 -14.091  0.00  0.00    -0.350 OA
ATOM     23  O   UNL     1      31.500 -22.442 -17.649  0.00  0.00    -0.268 OA
ATOM     24  N   UNL     1      30.758 -23.175 -15.558  0.00  0.00    -0.270 N 
ATOM     25  C   UNL     1      29.342 -23.122 -15.916  0.00  0.00    +0.126 C 
ATOM     26  C   UNL     1      31.017 -23.549 -14.162  0.00  0.00    +0.126 C 
ATOM     27  C   UNL     1      30.233 -24.805 -13.800  0.00  0.00    +0.164 C 
ATOM     28  C   UNL     1      28.638 -24.401 -15.488  0.00  0.00    +0.164 C 
ATOM     29  C   UNL     1      31.726 -22.815 -16.499  0.00  0.00    +0.265 C 
ENDBRANCH   3  29
TORSDOF 2
ENDMDL
MODEL 5
REMARK VINA RESULT:     -10.7      5.598     11.743
REMARK  Name = 70798655
REMARK  2 active torsions:
REMARK  status: ('A' for Active; 'I' for Inactive)
REMARK    1  A    between atoms: C_3  and  C_29
REMARK    2  A    between atoms: C_5  and  C_13
REMARK                            x       y       z     vdW  Elec       q    Type
REMARK                         _______ _______ _______ _____ _____    ______ ____
ROOT
ATOM      1  N   UNL     1      33.507 -14.469 -23.026  0.00  0.00    -0.245 N 
ATOM      2  N   UNL     1      32.982 -13.458 -24.951  0.00  0.00    -0.227 NA
ATOM      3  C   UNL     1      33.109 -13.197 -22.702  0.00  0.00    +0.130 C 
ATOM      4  C   UNL     1      33.412 -14.579 -24.408  0.00  0.00    +0.139 C 
ATOM      5  C   UNL     1      34.286 -16.689 -22.728  0.00  0.00    +0.012 C 
ATOM      6  C   UNL     1      33.935 -15.499 -22.193  0.00  0.00    +0.071 C 
ATOM      7  C   UNL     1      32.793 -12.598 -23.898  0.00  0.00    +0.120 C 
ATOM      8  C   UNL     1      33.777 -15.829 -24.981  0.00  0.00    +0.035 C 
ATOM      9  C   UNL     1      34.192 -16.833 -24.185  0.00  0.00    +0.004 C 
ENDROOT
BRANCH   5  13
ATOM     10  O   UNL     1      35.774 -20.847 -19.357  0.00  0.00    -0.414 OA
ATOM     11  N   UNL     1      33.550 -20.639 -19.743  0.00  0.00    -0.356 NA
ATOM     12  N   UNL     1      34.409 -22.373 -18.314  0.00  0.00    -0.302 N 
ATOM     13  C   UNL     1      34.730 -17.779 -21.838  0.00  0.00    -0.014 C 
ATOM     14  C   UNL     1      33.776 -18.636 -21.272  0.00  0.00    +0.089 C 
ATOM     15  C   UNL     1      36.098 -17.939 -21.575  0.00  0.00    -0.001 C 
ATOM     16  C   UNL     1      34.228 -19.663 -20.431  0.00  0.00    +0.152 C 
ATOM     17  C   UNL     1      35.590 -19.786 -20.197  0.00  0.00    +0.175 C 
ATOM     18  C   UNL     1      36.565 -18.959 -20.739  0.00  0.00    +0.040 C 
ATOM     19  C   UNL     1      34.509 -21.301 -19.134  0.00  0.00    +0.341 C 
ATOM     20  H   UNL     1      35.221 -22.771 -17.923  0.00  0.00    +0.148 HD
ATOM     21  H   UNL     1      33.526 -22.755 -18.108  0.00  0.00    +0.148 HD
ENDBRANCH   5  13
BRANCH   3  29
ATOM     22  O   UNL     1      30.301  -9.590 -20.543  0.00  0.00    -0.350 OA
ATOM     23  O   UNL     1      33.974 -12.908 -20.594  0.00  0.00    -0.268 OA
ATOM     24  N   UNL     1      31.950 -11.823 -21.024  0.00  0.00    -0.270 N 
ATOM     25  C   UNL     1      31.847 -11.243 -19.686  0.00  0.00    +0.126 C 
ATOM     26  C   UNL     1      30.803 -11.542 -21.897  0.00  0.00    +0.126 C 
ATOM     27  C   UNL     1      30.483 -10.053 -21.884  0.00  0.00    +0.164 C 
ATOM     28  C   UNL     1      31.494  -9.766 -19.774  0.00  0.00    +0.164 C 
ATOM     29  C   UNL     1      33.045 -12.625 -21.350  0.00  0.00    +0.265 C 
ENDBRANCH   3  29
TORSDOF 2
ENDMDL
MODEL 6
REMARK VINA RESULT:     -10.4      9.856     15.806
REMARK  Name = 70798655
REMARK  2 active torsions:
REMARK  status: ('A' for Active; 'I' for Inactive)
REMARK    1  A    between atoms: C_3  and  C_29
REMARK    2  A    between atoms: C_5  and  C_13
REMARK                            x       y       z     vdW  Elec       q    Type
REMARK                         _______ _______ _______ _____ _____    ______ ____
ROOT
ATOM      1  N   UNL     1      32.310  -9.046 -22.372  0.00  0.00    -0.245 N 
ATOM      2  N   UNL     1      31.020  -7.667 -21.175  0.00  0.00    -0.227 NA
ATOM      3  C   UNL     1      32.694  -7.770 -22.700  0.00  0.00    +0.130 C 
ATOM      4  C   UNL     1      31.287  -8.930 -21.439  0.00  0.00    +0.139 C 
ATOM      5  C   UNL     1      32.270 -11.417 -22.379  0.00  0.00    +0.012 C 
ATOM      6  C   UNL     1      32.800 -10.263 -22.839  0.00  0.00    +0.071 C 
ATOM      7  C   UNL     1      31.888  -6.945 -21.953  0.00  0.00    +0.120 C 
ATOM      8  C   UNL     1      30.724 -10.140 -20.946  0.00  0.00    +0.035 C 
ATOM      9  C   UNL     1      31.190 -11.323 -21.390  0.00  0.00    +0.004 C 
ENDROOT
BRANCH   5  13
ATOM     10  O   UNL     1      34.321 -16.302 -24.054  0.00  0.00    -0.414 OA
ATOM     11  N   UNL     1      34.554 -15.839 -21.847  0.00  0.00    -0.356 NA
ATOM     12  N   UNL     1      35.371 -17.901 -22.781  0.00  0.00    -0.302 N 
ATOM     13  C   UNL     1      32.800 -12.703 -22.872  0.00  0.00    -0.014 C 
ATOM     14  C   UNL     1      33.418 -13.582 -21.971  0.00  0.00    +0.089 C 
ATOM     15  C   UNL     1      32.675 -13.024 -24.230  0.00  0.00    -0.001 C 
ATOM     16  C   UNL     1      33.912 -14.797 -22.468  0.00  0.00    +0.152 C 
ATOM     17  C   UNL     1      33.768 -15.075 -23.820  0.00  0.00    +0.175 C 
ATOM     18  C   UNL     1      33.161 -14.232 -24.742  0.00  0.00    +0.040 C 
ATOM     19  C   UNL     1      34.767 -16.691 -22.827  0.00  0.00    +0.341 C 
ATOM     20  H   UNL     1      35.463 -18.436 -23.603  0.00  0.00    +0.148 HD
ATOM     21  H   UNL     1      35.718 -18.246 -21.928  0.00  0.00    +0.148 HD
ENDBRANCH   5  13
BRANCH   3  29
ATOM     22  O   UNL     1      32.844  -4.801 -26.788  0.00  0.00    -0.350 OA
ATOM     23  O   UNL     1      34.780  -8.068 -23.613  0.00  0.00    -0.268 OA
ATOM     24  N   UNL     1      33.510  -6.328 -24.516  0.00  0.00    -0.270 N 
ATOM     25  C   UNL     1      34.538  -5.922 -25.473  0.00  0.00    +0.126 C 
ATOM     26  C   UNL     1      32.311  -5.480 -24.518  0.00  0.00    +0.126 C 
ATOM     27  C   UNL     1      31.801  -5.293 -25.941  0.00  0.00    +0.164 C 
ATOM     28  C   UNL     1      33.930  -5.729 -26.854  0.00  0.00    +0.164 C 
ATOM     29  C   UNL     1      33.749  -7.400 -23.653  0.00  0.00    +0.265 C 
ENDBRANCH   3  29
TORSDOF 2
ENDMDL
MODEL 7
REMARK VINA RESULT:     -10.2      3.031      5.349
REMARK  Name = 70798655
REMARK  2 active torsions:
REMARK  status: ('A' for Active; 'I' for Inactive)
REMARK    1  A    between atoms: C_3  and  C_29
REMARK    2  A    between atoms: C_5  and  C_13
REMARK                            x       y       z     vdW  Elec       q    Type
REMARK                         _______ _______ _______ _____ _____    ______ ____
ROOT
ATOM      1  N   UNL     1      32.044 -23.191 -14.694  0.00  0.00    -0.245 N 
ATOM      2  N   UNL     1      32.181 -24.652 -13.007  0.00  0.00    -0.227 NA
ATOM      3  C   UNL     1      30.847 -23.127 -14.025  0.00  0.00    +0.130 C 
ATOM      4  C   UNL     1      32.823 -24.134 -14.034  0.00  0.00    +0.139 C 
ATOM      5  C   UNL     1      33.701 -22.703 -16.319  0.00  0.00    +0.012 C 
ATOM      6  C   UNL     1      32.466 -22.483 -15.816  0.00  0.00    +0.071 C 
ATOM      7  C   UNL     1      30.957 -24.033 -12.996  0.00  0.00    +0.120 C 
ATOM      8  C   UNL     1      34.125 -24.371 -14.554  0.00  0.00    +0.035 C 
ATOM      9  C   UNL     1      34.545 -23.692 -15.640  0.00  0.00    +0.004 C 
ENDROOT
BRANCH   5  13
ATOM     10  O   UNL     1      35.186 -19.826 -20.833  0.00  0.00    -0.414 OA
ATOM     11  N   UNL     1      32.961 -20.170 -20.571  0.00  0.00    -0.356 NA
ATOM     12  N   UNL     1      33.820 -18.947 -22.457  0.00  0.00    -0.302 N 
ATOM     13  C   UNL     1      34.145 -21.944 -17.503  0.00  0.00    -0.014 C 
ATOM     14  C   UNL     1      33.188 -21.468 -18.412  0.00  0.00    +0.089 C 
ATOM     15  C   UNL     1      35.513 -21.712 -17.700  0.00  0.00    -0.001 C 
ATOM     16  C   UNL     1      33.641 -20.749 -19.528  0.00  0.00    +0.152 C 
ATOM     17  C   UNL     1      35.004 -20.542 -19.685  0.00  0.00    +0.175 C 
ATOM     18  C   UNL     1      35.979 -20.996 -18.808  0.00  0.00    +0.040 C 
ATOM     19  C   UNL     1      33.920 -19.644 -21.302  0.00  0.00    +0.341 C 
ATOM     20  H   UNL     1      34.632 -18.609 -22.901  0.00  0.00    +0.148 HD
ATOM     21  H   UNL     1      32.935 -18.777 -22.854  0.00  0.00    +0.148 HD
ENDBRANCH   5  13
BRANCH   3  29
ATOM     22  O   UNL     1      26.901 -23.589 -17.150  0.00  0.00    -0.350 OA
ATOM     23  O   UNL     1      29.778 -21.096 -13.986  0.00  0.00    -0.268 OA
ATOM     24  N   UNL     1      28.644 -22.825 -15.073  0.00  0.00    -0.270 N 
ATOM     25  C   UNL     1      27.488 -22.001 -15.421  0.00  0.00    +0.126 C 
ATOM     26  C   UNL     1      28.522 -24.236 -15.462  0.00  0.00    +0.126 C 
ATOM     27  C   UNL     1      28.094 -24.345 -16.920  0.00  0.00    +0.164 C 
ATOM     28  C   UNL     1      27.115 -22.201 -16.883  0.00  0.00    +0.164 C 
ATOM     29  C   UNL     1      29.708 -22.264 -14.364  0.00  0.00    +0.265 C 
ENDBRANCH   3  29
TORSDOF 2
ENDMDL
MODEL 8
REMARK VINA RESULT:     -10.1      3.119      5.369
REMARK  Name = 70798655
REMARK  2 active torsions:
REMARK  status: ('A' for Active; 'I' for Inactive)
REMARK    1  A    between atoms: C_3  and  C_29
REMARK    2  A    between atoms: C_5  and  C_13
REMARK                            x       y       z     vdW  Elec       q    Type
REMARK                         _______ _______ _______ _____ _____    ______ ____
ROOT
ATOM      1  N   UNL     1      35.195 -22.351 -16.009  0.00  0.00    -0.245 N 
ATOM      2  N   UNL     1      36.861 -21.820 -17.403  0.00  0.00    -0.227 NA
ATOM      3  C   UNL     1      36.353 -22.425 -15.277  0.00  0.00    +0.130 C 
ATOM      4  C   UNL     1      35.558 -21.979 -17.298  0.00  0.00    +0.139 C 
ATOM      5  C   UNL     1      32.879 -22.457 -16.504  0.00  0.00    +0.012 C 
ATOM      6  C   UNL     1      33.883 -22.588 -15.610  0.00  0.00    +0.071 C 
ATOM      7  C   UNL     1      37.359 -22.096 -16.154  0.00  0.00    +0.120 C 
ATOM      8  C   UNL     1      34.508 -21.836 -18.247  0.00  0.00    +0.035 C 
ATOM      9  C   UNL     1      33.233 -22.062 -17.872  0.00  0.00    +0.004 C 
ENDROOT
BRANCH   5  13
ATOM     10  O   UNL     1      27.588 -23.235 -14.997  0.00  0.00    -0.414 OA
ATOM     11  N   UNL     1      27.951 -21.581 -16.504  0.00  0.00    -0.356 NA
ATOM     12  N   UNL     1      25.733 -22.086 -15.718  0.00  0.00    -0.302 N 
ATOM     13  C   UNL     1      31.489 -22.702 -16.073  0.00  0.00    -0.014 C 
ATOM     14  C   UNL     1      30.456 -21.915 -16.603  0.00  0.00    +0.089 C 
ATOM     15  C   UNL     1      31.225 -23.716 -15.142  0.00  0.00    -0.001 C 
ATOM     16  C   UNL     1      29.146 -22.171 -16.174  0.00  0.00    +0.152 C 
ATOM     17  C   UNL     1      28.928 -23.184 -15.251  0.00  0.00    +0.175 C 
ATOM     18  C   UNL     1      29.923 -23.984 -14.704  0.00  0.00    +0.040 C 
ATOM     19  C   UNL     1      27.075 -22.248 -15.784  0.00  0.00    +0.341 C 
ATOM     20  H   UNL     1      25.196 -22.663 -15.127  0.00  0.00    +0.148 HD
ATOM     21  H   UNL     1      25.295 -21.391 -16.259  0.00  0.00    +0.148 HD
ENDBRANCH   5  13
BRANCH   3  29
ATOM     22  O   UNL     1      37.208 -26.751 -12.807  0.00  0.00    -0.350 OA
ATOM     23  O   UNL     1      36.084 -21.936 -13.050  0.00  0.00    -0.268 OA
ATOM     24  N   UNL     1      36.982 -24.038 -13.532  0.00  0.00    -0.270 N 
ATOM     25  C   UNL     1      37.114 -24.429 -12.130  0.00  0.00    +0.126 C 
ATOM     26  C   UNL     1      37.502 -25.024 -14.488  0.00  0.00    +0.126 C 
ATOM     27  C   UNL     1      36.949 -26.408 -14.171  0.00  0.00    +0.164 C 
ATOM     28  C   UNL     1      36.567 -25.833 -11.917  0.00  0.00    +0.164 C 
ATOM     29  C   UNL     1      36.461 -22.784 -13.857  0.00  0.00    +0.265 C 
ENDBRANCH   3  29
TORSDOF 2
ENDMDL
MODEL 9
REMARK VINA RESULT:      -9.9      7.690     12.358
REMARK  Name = 70798655
REMARK  2 active torsions:
REMARK  status: ('A' for Active; 'I' for Inactive)
REMARK    1  A    between atoms: C_3  and  C_29
REMARK    2  A    between atoms: C_5  and  C_13
REMARK                            x       y       z     vdW  Elec       q    Type
REMARK                         _______ _______ _______ _____ _____    ______ ____
ROOT
ATOM      1  N   UNL     1      33.285 -13.984 -23.712  0.00  0.00    -0.245 N 
ATOM      2  N   UNL     1      33.457 -15.016 -25.688  0.00  0.00    -0.227 NA
ATOM      3  C   UNL     1      33.882 -15.195 -23.468  0.00  0.00    +0.130 C 
ATOM      4  C   UNL     1      33.046 -13.923 -25.080  0.00  0.00    +0.139 C 
ATOM      5  C   UNL     1      32.362 -11.843 -23.278  0.00  0.00    +0.012 C 
ATOM      6  C   UNL     1      32.953 -12.968 -22.820  0.00  0.00    +0.071 C 
ATOM      7  C   UNL     1      33.975 -15.808 -24.694  0.00  0.00    +0.120 C 
ATOM      8  C   UNL     1      32.426 -12.741 -25.573  0.00  0.00    +0.035 C 
ATOM      9  C   UNL     1      32.100 -11.751 -24.719  0.00  0.00    +0.004 C 
ENDROOT
BRANCH   5  13
ATOM     10  O   UNL     1      31.136  -7.660 -19.833  0.00  0.00    -0.414 OA
ATOM     11  N   UNL     1      32.002  -7.062 -21.840  0.00  0.00    -0.356 NA
ATOM     12  N   UNL     1      31.400  -5.407 -20.200  0.00  0.00    -0.302 N 
ATOM     13  C   UNL     1      32.020 -10.767 -22.328  0.00  0.00    -0.014 C 
ATOM     14  C   UNL     1      32.240  -9.431 -22.696  0.00  0.00    +0.089 C 
ATOM     15  C   UNL     1      31.482 -11.097 -21.077  0.00  0.00    -0.001 C 
ATOM     16  C   UNL     1      31.905  -8.430 -21.772  0.00  0.00    +0.152 C 
ATOM     17  C   UNL     1      31.375  -8.800 -20.544  0.00  0.00    +0.175 C 
ATOM     18  C   UNL     1      31.143 -10.110 -20.145  0.00  0.00    +0.040 C 
ATOM     19  C   UNL     1      31.536  -6.667 -20.676  0.00  0.00    +0.341 C 
ATOM     20  H   UNL     1      31.032  -5.258 -19.299  0.00  0.00    +0.148 HD
ATOM     21  H   UNL     1      31.670  -4.641 -20.755  0.00  0.00    +0.148 HD
ENDBRANCH   5  13
BRANCH   3  29
ATOM     22  O   UNL     1      34.789 -19.807 -21.610  0.00  0.00    -0.350 OA
ATOM     23  O   UNL     1      34.284 -14.898 -21.226  0.00  0.00    -0.268 OA
ATOM     24  N   UNL     1      34.736 -17.029 -22.071  0.00  0.00    -0.270 N 
ATOM     25  C   UNL     1      35.185 -17.566 -20.788  0.00  0.00    +0.126 C 
ATOM     26  C   UNL     1      34.848 -17.968 -23.194  0.00  0.00    +0.126 C 
ATOM     27  C   UNL     1      34.223 -19.307 -22.824  0.00  0.00    +0.164 C 
ATOM     28  C   UNL     1      34.535 -18.915 -20.521  0.00  0.00    +0.164 C 
ATOM     29  C   UNL     1      34.317 -15.700 -22.159  0.00  0.00    +0.265 C 
ENDBRANCH   3  29
TORSDOF 2
ENDMDL
