MODEL 1
REMARK VINA RESULT:     -10.8      0.000      0.000
REMARK  Name = 5281614
REMARK  5 active torsions:
REMARK  status: ('A' for Active; 'I' for Inactive)
REMARK    1  A    between atoms: C_3  and  C_12
REMARK    2  A    between atoms: C_6  and  O_22
REMARK    3  A    between atoms: C_10  and  O_24
REMARK    4  A    between atoms: C_15  and  O_18
REMARK    5  A    between atoms: C_17  and  O_20
REMARK                            x       y       z     vdW  Elec       q    Type
REMARK                         _______ _______ _______ _____ _____    ______ ____
ROOT
ATOM      1  O   UNL     1      33.387 -13.669 -22.075  0.00  0.00    -0.450 OA
ATOM      2  O   UNL     1      33.168 -15.205 -25.842  0.00  0.00    -0.283 OA
ATOM      3  C   UNL     1      32.813 -12.955 -23.114  0.00  0.00    +0.182 A 
ATOM      4  C   UNL     1      33.828 -15.506 -23.598  0.00  0.00    +0.077 A 
ATOM      5  C   UNL     1      33.875 -14.924 -22.333  0.00  0.00    +0.152 A 
ATOM      6  C   UNL     1      32.714 -13.398 -24.381  0.00  0.00    +0.208 A 
ATOM      7  C   UNL     1      33.232 -14.748 -24.709  0.00  0.00    +0.235 A 
ATOM      8  C   UNL     1      34.340 -16.790 -23.803  0.00  0.00    +0.009 C 
ATOM      9  C   UNL     1      34.436 -15.622 -21.264  0.00  0.00    +0.074 C 
ATOM     10  C   UNL     1      34.950 -16.904 -21.465  0.00  0.00    +0.137 C 
ATOM     11  C   UNL     1      34.901 -17.486 -22.733  0.00  0.00    +0.037 C 
ENDROOT
BRANCH   3  12
ATOM     12  C   UNL     1      32.333 -11.625 -22.701  0.00  0.00    +0.041 C 
ATOM     13  C   UNL     1      32.916 -10.475 -23.234  0.00  0.00    +0.043 C 
ATOM     14  C   UNL     1      31.294 -11.513 -21.776  0.00  0.00    +0.006 C 
ATOM     15  C   UNL     1      32.461  -9.215 -22.843  0.00  0.00    +0.168 C 
ATOM     16  C   UNL     1      30.839 -10.255 -21.385  0.00  0.00    +0.040 C 
ATOM     17  C   UNL     1      31.422  -9.105 -21.919  0.00  0.00    +0.167 C 
BRANCH  15  18
ATOM     18  O   UNL     1      33.039  -8.100 -23.370  0.00  0.00    -0.503 OA
ATOM     19  H   UNL     1      33.776  -8.180 -23.943  0.00  0.00    +0.292 HD
ENDBRANCH  15  18
BRANCH  17  20
ATOM     20  O   UNL     1      30.968  -7.881 -21.530  0.00  0.00    -0.503 OA
ATOM     21  H   UNL     1      31.205  -7.539 -20.691  0.00  0.00    +0.292 HD
ENDBRANCH  17  20
ENDBRANCH   3  12
BRANCH   6  22
ATOM     22  O   UNL     1      32.167 -12.648 -25.399  0.00  0.00    -0.501 OA
ATOM     23  H   UNL     1      32.289 -11.719 -25.415  0.00  0.00    +0.292 HD
ENDBRANCH   6  22
BRANCH  10  24
ATOM     24  O   UNL     1      35.499 -17.587 -20.424  0.00  0.00    -0.505 OA
ATOM     25  H   UNL     1      35.594 -17.171 -19.589  0.00  0.00    +0.292 HD
ENDBRANCH  10  24
TORSDOF 5
ENDMDL
MODEL 2
REMARK VINA RESULT:     -10.7      3.095      8.110
REMARK  Name = 5281614
REMARK  5 active torsions:
REMARK  status: ('A' for Active; 'I' for Inactive)
REMARK    1  A    between atoms: C_3  and  C_12
REMARK    2  A    between atoms: C_6  and  O_22
REMARK    3  A    between atoms: C_10  and  O_24
REMARK    4  A    between atoms: C_15  and  O_18
REMARK    5  A    between atoms: C_17  and  O_20
REMARK                            x       y       z     vdW  Elec       q    Type
REMARK                         _______ _______ _______ _____ _____    ______ ____
ROOT
ATOM      1  O   UNL     1      34.164 -16.939 -20.847  0.00  0.00    -0.450 OA
ATOM      2  O   UNL     1      34.169 -17.081 -24.919  0.00  0.00    -0.283 OA
ATOM      3  C   UNL     1      34.281 -18.139 -21.527  0.00  0.00    +0.182 A 
ATOM      4  C   UNL     1      34.060 -15.762 -22.967  0.00  0.00    +0.077 A 
ATOM      5  C   UNL     1      34.062 -15.781 -21.574  0.00  0.00    +0.152 A 
ATOM      6  C   UNL     1      34.283 -18.260 -22.869  0.00  0.00    +0.208 A 
ATOM      7  C   UNL     1      34.171 -17.035 -23.696  0.00  0.00    +0.235 A 
ATOM      8  C   UNL     1      33.954 -14.551 -23.656  0.00  0.00    +0.009 C 
ATOM      9  C   UNL     1      33.956 -14.587 -20.859  0.00  0.00    +0.074 C 
ATOM     10  C   UNL     1      33.850 -13.376 -21.544  0.00  0.00    +0.137 C 
ATOM     11  C   UNL     1      33.848 -13.359 -22.939  0.00  0.00    +0.037 C 
ENDROOT
BRANCH   3  12
ATOM     12  C   UNL     1      34.381 -19.303 -20.629  0.00  0.00    +0.041 C 
ATOM     13  C   UNL     1      33.225 -19.959 -20.205  0.00  0.00    +0.043 C 
ATOM     14  C   UNL     1      35.631 -19.749 -20.200  0.00  0.00    +0.006 C 
ATOM     15  C   UNL     1      33.318 -21.061 -19.354  0.00  0.00    +0.168 C 
ATOM     16  C   UNL     1      35.726 -20.850 -19.350  0.00  0.00    +0.040 C 
ATOM     17  C   UNL     1      34.569 -21.506 -18.927  0.00  0.00    +0.167 C 
BRANCH  15  18
ATOM     18  O   UNL     1      32.183 -21.692 -18.947  0.00  0.00    -0.503 OA
ATOM     19  H   UNL     1      32.074 -21.926 -18.046  0.00  0.00    +0.292 HD
ENDBRANCH  15  18
BRANCH  17  20
ATOM     20  O   UNL     1      34.674 -22.581 -18.097  0.00  0.00    -0.503 OA
ATOM     21  H   UNL     1      34.993 -22.468 -17.223  0.00  0.00    +0.292 HD
ENDBRANCH  17  20
ENDBRANCH   3  12
BRANCH   6  22
ATOM     22  O   UNL     1      34.368 -19.474 -23.514  0.00  0.00    -0.501 OA
ATOM     23  H   UNL     1      35.194 -19.910 -23.585  0.00  0.00    +0.292 HD
ENDBRANCH   6  22
BRANCH  10  24
ATOM     24  O   UNL     1      33.746 -12.210 -20.850  0.00  0.00    -0.505 OA
ATOM     25  H   UNL     1      32.922 -11.955 -20.484  0.00  0.00    +0.292 HD
ENDBRANCH  10  24
TORSDOF 5
ENDMDL
MODEL 3
REMARK VINA RESULT:     -10.6      6.930     10.957
REMARK  Name = 5281614
REMARK  5 active torsions:
REMARK  status: ('A' for Active; 'I' for Inactive)
REMARK    1  A    between atoms: C_3  and  C_12
REMARK    2  A    between atoms: C_6  and  O_22
REMARK    3  A    between atoms: C_10  and  O_24
REMARK    4  A    between atoms: C_15  and  O_18
REMARK    5  A    between atoms: C_17  and  O_20
REMARK                            x       y       z     vdW  Elec       q    Type
REMARK                         _______ _______ _______ _____ _____    ______ ____
ROOT
ATOM      1  O   UNL     1      35.480 -20.706 -18.814  0.00  0.00    -0.450 OA
ATOM      2  O   UNL     1      31.799 -20.402 -20.535  0.00  0.00    -0.283 OA
ATOM      3  C   UNL     1      34.378 -21.357 -18.284  0.00  0.00    +0.182 A 
ATOM      4  C   UNL     1      34.083 -19.817 -20.589  0.00  0.00    +0.077 A 
ATOM      5  C   UNL     1      35.314 -19.959 -19.951  0.00  0.00    +0.152 A 
ATOM      6  C   UNL     1      33.134 -21.295 -18.796  0.00  0.00    +0.208 A 
ATOM      7  C   UNL     1      32.906 -20.494 -20.023  0.00  0.00    +0.235 A 
ATOM      8  C   UNL     1      33.973 -19.041 -21.746  0.00  0.00    +0.009 C 
ATOM      9  C   UNL     1      36.444 -19.324 -20.467  0.00  0.00    +0.074 C 
ATOM     10  C   UNL     1      36.338 -18.549 -21.622  0.00  0.00    +0.137 C 
ATOM     11  C   UNL     1      35.105 -18.408 -22.259  0.00  0.00    +0.037 C 
ENDROOT
BRANCH   3  12
ATOM     12  C   UNL     1      34.694 -22.122 -17.065  0.00  0.00    +0.041 C 
ATOM     13  C   UNL     1      35.972 -22.053 -16.509  0.00  0.00    +0.043 C 
ATOM     14  C   UNL     1      33.716 -22.916 -16.465  0.00  0.00    +0.006 C 
ATOM     15  C   UNL     1      36.271 -22.777 -15.354  0.00  0.00    +0.168 C 
ATOM     16  C   UNL     1      34.014 -23.640 -15.311  0.00  0.00    +0.040 C 
ATOM     17  C   UNL     1      35.292 -23.570 -14.755  0.00  0.00    +0.167 C 
BRANCH  15  18
ATOM     18  O   UNL     1      37.522 -22.703 -14.821  0.00  0.00    -0.503 OA
ATOM     19  H   UNL     1      37.676 -22.185 -14.056  0.00  0.00    +0.292 HD
ENDBRANCH  15  18
BRANCH  17  20
ATOM     20  O   UNL     1      35.572 -24.281 -13.627  0.00  0.00    -0.503 OA
ATOM     21  H   UNL     1      36.276 -24.899 -13.626  0.00  0.00    +0.292 HD
ENDBRANCH  17  20
ENDBRANCH   3  12
BRANCH   6  22
ATOM     22  O   UNL     1      32.053 -21.928 -18.224  0.00  0.00    -0.501 OA
ATOM     23  H   UNL     1      31.481 -22.448 -18.752  0.00  0.00    +0.292 HD
ENDBRANCH   6  22
BRANCH  10  24
ATOM     24  O   UNL     1      37.439 -17.929 -22.128  0.00  0.00    -0.505 OA
ATOM     25  H   UNL     1      38.291 -18.146 -21.801  0.00  0.00    +0.292 HD
ENDBRANCH  10  24
TORSDOF 5
ENDMDL
MODEL 4
REMARK VINA RESULT:     -10.4      6.365      9.653
REMARK  Name = 5281614
REMARK  5 active torsions:
REMARK  status: ('A' for Active; 'I' for Inactive)
REMARK    1  A    between atoms: C_3  and  C_12
REMARK    2  A    between atoms: C_6  and  O_22
REMARK    3  A    between atoms: C_10  and  O_24
REMARK    4  A    between atoms: C_15  and  O_18
REMARK    5  A    between atoms: C_17  and  O_20
REMARK                            x       y       z     vdW  Elec       q    Type
REMARK                         _______ _______ _______ _____ _____    ______ ____
ROOT
ATOM      1  O   UNL     1      35.624 -20.980 -18.241  0.00  0.00    -0.450 OA
ATOM      2  O   UNL     1      32.203 -23.042 -17.436  0.00  0.00    -0.283 OA
ATOM      3  C   UNL     1      34.503 -20.862 -19.046  0.00  0.00    +0.182 A 
ATOM      4  C   UNL     1      34.420 -22.532 -16.815  0.00  0.00    +0.077 A 
ATOM      5  C   UNL     1      35.560 -21.802 -17.146  0.00  0.00    +0.152 A 
ATOM      6  C   UNL     1      33.344 -21.518 -18.843  0.00  0.00    +0.208 A 
ATOM      7  C   UNL     1      33.230 -22.421 -17.673  0.00  0.00    +0.235 A 
ATOM      8  C   UNL     1      34.412 -23.355 -15.685  0.00  0.00    +0.009 C 
ATOM      9  C   UNL     1      36.701 -21.891 -16.349  0.00  0.00    +0.074 C 
ATOM     10  C   UNL     1      36.697 -22.712 -15.220  0.00  0.00    +0.137 C 
ATOM     11  C   UNL     1      35.555 -23.442 -14.890  0.00  0.00    +0.037 C 
ENDROOT
BRANCH   3  12
ATOM     12  C   UNL     1      34.707 -19.951 -20.186  0.00  0.00    +0.041 C 
ATOM     13  C   UNL     1      35.953 -19.360 -20.393  0.00  0.00    +0.043 C 
ATOM     14  C   UNL     1      33.653 -19.678 -21.059  0.00  0.00    +0.006 C 
ATOM     15  C   UNL     1      36.147 -18.498 -21.473  0.00  0.00    +0.168 C 
ATOM     16  C   UNL     1      33.845 -18.816 -22.138  0.00  0.00    +0.040 C 
ATOM     17  C   UNL     1      35.093 -18.226 -22.346  0.00  0.00    +0.167 C 
BRANCH  15  18
ATOM     18  O   UNL     1      37.368 -17.926 -21.665  0.00  0.00    -0.503 OA
ATOM     19  H   UNL     1      37.554 -17.476 -22.465  0.00  0.00    +0.292 HD
ENDBRANCH  15  18
BRANCH  17  20
ATOM     20  O   UNL     1      35.269 -17.386 -23.404  0.00  0.00    -0.503 OA
ATOM     21  H   UNL     1      36.096 -16.967 -23.536  0.00  0.00    +0.292 HD
ENDBRANCH  17  20
ENDBRANCH   3  12
BRANCH   6  22
ATOM     22  O   UNL     1      32.258 -21.403 -19.683  0.00  0.00    -0.501 OA
ATOM     23  H   UNL     1      32.124 -20.614 -20.170  0.00  0.00    +0.292 HD
ENDBRANCH   6  22
BRANCH  10  24
ATOM     24  O   UNL     1      37.809 -22.801 -14.441  0.00  0.00    -0.505 OA
ATOM     25  H   UNL     1      38.426 -23.493 -14.582  0.00  0.00    +0.292 HD
ENDBRANCH  10  24
TORSDOF 5
ENDMDL
MODEL 5
REMARK VINA RESULT:     -10.2      6.945     11.430
REMARK  Name = 5281614
REMARK  5 active torsions:
REMARK  status: ('A' for Active; 'I' for Inactive)
REMARK    1  A    between atoms: C_3  and  C_12
REMARK    2  A    between atoms: C_6  and  O_22
REMARK    3  A    between atoms: C_10  and  O_24
REMARK    4  A    between atoms: C_15  and  O_18
REMARK    5  A    between atoms: C_17  and  O_20
REMARK                            x       y       z     vdW  Elec       q    Type
REMARK                         _______ _______ _______ _____ _____    ______ ____
ROOT
ATOM      1  O   UNL     1      35.767 -20.772 -18.559  0.00  0.00    -0.450 OA
ATOM      2  O   UNL     1      31.958 -21.072 -19.977  0.00  0.00    -0.283 OA
ATOM      3  C   UNL     1      34.819 -21.557 -17.924  0.00  0.00    +0.182 A 
ATOM      4  C   UNL     1      34.119 -20.161 -20.233  0.00  0.00    +0.077 A 
ATOM      5  C   UNL     1      35.403 -20.099 -19.696  0.00  0.00    +0.152 A 
ATOM      6  C   UNL     1      33.544 -21.696 -18.332  0.00  0.00    +0.208 A 
ATOM      7  C   UNL     1      33.104 -20.983 -19.556  0.00  0.00    +0.235 A 
ATOM      8  C   UNL     1      33.805 -19.453 -21.396  0.00  0.00    +0.009 C 
ATOM      9  C   UNL     1      36.383 -19.325 -20.320  0.00  0.00    +0.074 C 
ATOM     10  C   UNL     1      36.073 -18.617 -21.481  0.00  0.00    +0.137 C 
ATOM     11  C   UNL     1      34.787 -18.681 -22.017  0.00  0.00    +0.037 C 
ENDROOT
BRANCH   3  12
ATOM     12  C   UNL     1      35.339 -22.223 -16.716  0.00  0.00    +0.041 C 
ATOM     13  C   UNL     1      34.513 -23.063 -15.971  0.00  0.00    +0.043 C 
ATOM     14  C   UNL     1      36.660 -22.013 -16.317  0.00  0.00    +0.006 C 
ATOM     15  C   UNL     1      35.005 -23.694 -14.828  0.00  0.00    +0.168 C 
ATOM     16  C   UNL     1      37.153 -22.642 -15.175  0.00  0.00    +0.040 C 
ATOM     17  C   UNL     1      36.325 -23.483 -14.430  0.00  0.00    +0.167 C 
BRANCH  15  18
ATOM     18  O   UNL     1      34.188 -24.511 -14.108  0.00  0.00    -0.503 OA
ATOM     19  H   UNL     1      33.779 -24.195 -13.326  0.00  0.00    +0.292 HD
ENDBRANCH  15  18
BRANCH  17  20
ATOM     20  O   UNL     1      36.818 -24.093 -13.316  0.00  0.00    -0.503 OA
ATOM     21  H   UNL     1      36.292 -24.154 -12.544  0.00  0.00    +0.292 HD
ENDBRANCH  17  20
ENDBRANCH   3  12
BRANCH   6  22
ATOM     22  O   UNL     1      32.616 -22.459 -17.657  0.00  0.00    -0.501 OA
ATOM     23  H   UNL     1      32.455 -22.305 -16.748  0.00  0.00    +0.292 HD
ENDBRANCH   6  22
BRANCH  10  24
ATOM     24  O   UNL     1      37.027 -17.861 -22.091  0.00  0.00    -0.505 OA
ATOM     25  H   UNL     1      36.882 -16.945 -22.226  0.00  0.00    +0.292 HD
ENDBRANCH  10  24
TORSDOF 5
ENDMDL
MODEL 6
REMARK VINA RESULT:     -10.1      8.713     13.561
REMARK  Name = 5281614
REMARK  5 active torsions:
REMARK  status: ('A' for Active; 'I' for Inactive)
REMARK    1  A    between atoms: C_3  and  C_12
REMARK    2  A    between atoms: C_6  and  O_22
REMARK    3  A    between atoms: C_10  and  O_24
REMARK    4  A    between atoms: C_15  and  O_18
REMARK    5  A    between atoms: C_17  and  O_20
REMARK                            x       y       z     vdW  Elec       q    Type
REMARK                         _______ _______ _______ _____ _____    ______ ____
ROOT
ATOM      1  O   UNL     1      35.177 -22.548 -16.564  0.00  0.00    -0.450 OA
ATOM      2  O   UNL     1      31.161 -22.475 -17.253  0.00  0.00    -0.283 OA
ATOM      3  C   UNL     1      34.287 -23.184 -15.715  0.00  0.00    +0.182 A 
ATOM      4  C   UNL     1      33.320 -21.836 -17.956  0.00  0.00    +0.077 A 
ATOM      5  C   UNL     1      34.681 -21.896 -17.663  0.00  0.00    +0.152 A 
ATOM      6  C   UNL     1      32.950 -23.194 -15.878  0.00  0.00    +0.208 A 
ATOM      7  C   UNL     1      32.368 -22.498 -17.051  0.00  0.00    +0.235 A 
ATOM      8  C   UNL     1      32.872 -21.157 -19.092  0.00  0.00    +0.009 C 
ATOM      9  C   UNL     1      35.604 -21.275 -18.506  0.00  0.00    +0.074 C 
ATOM     10  C   UNL     1      35.160 -20.595 -19.640  0.00  0.00    +0.137 C 
ATOM     11  C   UNL     1      33.796 -20.537 -19.932  0.00  0.00    +0.037 C 
ENDROOT
BRANCH   3  12
ATOM     12  C   UNL     1      34.950 -23.843 -14.576  0.00  0.00    +0.041 C 
ATOM     13  C   UNL     1      35.807 -24.921 -14.795  0.00  0.00    +0.043 C 
ATOM     14  C   UNL     1      34.721 -23.388 -13.276  0.00  0.00    +0.006 C 
ATOM     15  C   UNL     1      36.435 -25.545 -13.716  0.00  0.00    +0.168 C 
ATOM     16  C   UNL     1      35.348 -24.011 -12.198  0.00  0.00    +0.040 C 
ATOM     17  C   UNL     1      36.206 -25.090 -12.418  0.00  0.00    +0.167 C 
BRANCH  15  18
ATOM     18  O   UNL     1      37.269 -26.598 -13.942  0.00  0.00    -0.503 OA
ATOM     19  H   UNL     1      37.847 -26.588 -14.680  0.00  0.00    +0.292 HD
ENDBRANCH  15  18
BRANCH  17  20
ATOM     20  O   UNL     1      36.813 -25.690 -11.356  0.00  0.00    -0.503 OA
ATOM     21  H   UNL     1      37.661 -26.075 -11.458  0.00  0.00    +0.292 HD
ENDBRANCH  17  20
ENDBRANCH   3  12
BRANCH   6  22
ATOM     22  O   UNL     1      32.090 -23.809 -14.995  0.00  0.00    -0.501 OA
ATOM     23  H   UNL     1      32.011 -23.490 -14.118  0.00  0.00    +0.292 HD
ENDBRANCH   6  22
BRANCH  10  24
ATOM     24  O   UNL     1      36.058 -19.988 -20.464  0.00  0.00    -0.505 OA
ATOM     25  H   UNL     1      36.256 -19.079 -20.351  0.00  0.00    +0.292 HD
ENDBRANCH  10  24
TORSDOF 5
ENDMDL
MODEL 7
REMARK VINA RESULT:     -10.0      4.412      7.608
REMARK  Name = 5281614
REMARK  5 active torsions:
REMARK  status: ('A' for Active; 'I' for Inactive)
REMARK    1  A    between atoms: C_3  and  C_12
REMARK    2  A    between atoms: C_6  and  O_22
REMARK    3  A    between atoms: C_10  and  O_24
REMARK    4  A    between atoms: C_15  and  O_18
REMARK    5  A    between atoms: C_17  and  O_20
REMARK                            x       y       z     vdW  Elec       q    Type
REMARK                         _______ _______ _______ _____ _____    ______ ____
ROOT
ATOM      1  O   UNL     1      33.174 -19.675 -20.517  0.00  0.00    -0.450 OA
ATOM      2  O   UNL     1      36.738 -21.033 -19.083  0.00  0.00    -0.283 OA
ATOM      3  C   UNL     1      34.377 -19.266 -21.068  0.00  0.00    +0.182 A 
ATOM      4  C   UNL     1      34.384 -21.072 -18.944  0.00  0.00    +0.077 A 
ATOM      5  C   UNL     1      33.199 -20.568 -19.478  0.00  0.00    +0.152 A 
ATOM      6  C   UNL     1      35.589 -19.668 -20.640  0.00  0.00    +0.208 A 
ATOM      7  C   UNL     1      35.666 -20.630 -19.514  0.00  0.00    +0.235 A 
ATOM      8  C   UNL     1      34.349 -21.981 -17.883  0.00  0.00    +0.009 C 
ATOM      9  C   UNL     1      31.971 -20.970 -18.952  0.00  0.00    +0.074 C 
ATOM     10  C   UNL     1      31.932 -21.877 -17.893  0.00  0.00    +0.137 C 
ATOM     11  C   UNL     1      33.120 -22.381 -17.360  0.00  0.00    +0.037 C 
ENDROOT
BRANCH   3  12
ATOM     12  C   UNL     1      34.207 -18.307 -22.174  0.00  0.00    +0.041 C 
ATOM     13  C   UNL     1      34.512 -16.959 -21.983  0.00  0.00    +0.043 C 
ATOM     14  C   UNL     1      33.740 -18.746 -23.413  0.00  0.00    +0.006 C 
ATOM     15  C   UNL     1      34.352 -16.051 -23.030  0.00  0.00    +0.168 C 
ATOM     16  C   UNL     1      33.579 -17.839 -24.460  0.00  0.00    +0.040 C 
ATOM     17  C   UNL     1      33.885 -16.491 -24.269  0.00  0.00    +0.167 C 
BRANCH  15  18
ATOM     18  O   UNL     1      34.652 -14.738 -22.831  0.00  0.00    -0.503 OA
ATOM     19  H   UNL     1      35.532 -14.482 -22.638  0.00  0.00    +0.292 HD
ENDBRANCH  15  18
BRANCH  17  20
ATOM     20  O   UNL     1      33.724 -15.615 -25.299  0.00  0.00    -0.503 OA
ATOM     21  H   UNL     1      33.685 -15.931 -26.180  0.00  0.00    +0.292 HD
ENDBRANCH  17  20
ENDBRANCH   3  12
BRANCH   6  22
ATOM     22  O   UNL     1      36.768 -19.215 -21.188  0.00  0.00    -0.501 OA
ATOM     23  H   UNL     1      37.573 -19.320 -20.721  0.00  0.00    +0.292 HD
ENDBRANCH   6  22
BRANCH  10  24
ATOM     24  O   UNL     1      30.736 -22.271 -17.378  0.00  0.00    -0.505 OA
ATOM     25  H   UNL     1      29.967 -22.254 -17.915  0.00  0.00    +0.292 HD
ENDBRANCH  10  24
TORSDOF 5
ENDMDL
MODEL 8
REMARK VINA RESULT:      -9.8      9.110     13.168
REMARK  Name = 5281614
REMARK  5 active torsions:
REMARK  status: ('A' for Active; 'I' for Inactive)
REMARK    1  A    between atoms: C_3  and  C_12
REMARK    2  A    between atoms: C_6  and  O_22
REMARK    3  A    between atoms: C_10  and  O_24
REMARK    4  A    between atoms: C_15  and  O_18
REMARK    5  A    between atoms: C_17  and  O_20
REMARK                            x       y       z     vdW  Elec       q    Type
REMARK                         _______ _______ _______ _____ _____    ______ ____
ROOT
ATOM      1  O   UNL     1      36.490 -23.485 -15.581  0.00  0.00    -0.450 OA
ATOM      2  O   UNL     1      33.937 -23.603 -12.407  0.00  0.00    -0.283 OA
ATOM      3  C   UNL     1      35.254 -22.862 -15.625  0.00  0.00    +0.182 A 
ATOM      4  C   UNL     1      36.028 -24.213 -13.312  0.00  0.00    +0.077 A 
ATOM      5  C   UNL     1      36.853 -24.139 -14.432  0.00  0.00    +0.152 A 
ATOM      6  C   UNL     1      34.360 -22.868 -14.618  0.00  0.00    +0.208 A 
ATOM      7  C   UNL     1      34.707 -23.566 -13.357  0.00  0.00    +0.235 A 
ATOM      8  C   UNL     1      36.451 -24.894 -12.167  0.00  0.00    +0.009 C 
ATOM      9  C   UNL     1      38.110 -24.746 -14.414  0.00  0.00    +0.074 C 
ATOM     10  C   UNL     1      38.535 -25.427 -13.273  0.00  0.00    +0.137 C 
ATOM     11  C   UNL     1      37.707 -25.500 -12.152  0.00  0.00    +0.037 C 
ENDROOT
BRANCH   3  12
ATOM     12  C   UNL     1      34.989 -22.200 -16.914  0.00  0.00    +0.041 C 
ATOM     13  C   UNL     1      33.727 -22.292 -17.501  0.00  0.00    +0.043 C 
ATOM     14  C   UNL     1      36.001 -21.479 -17.550  0.00  0.00    +0.006 C 
ATOM     15  C   UNL     1      33.476 -21.665 -18.721  0.00  0.00    +0.168 C 
ATOM     16  C   UNL     1      35.751 -20.852 -18.770  0.00  0.00    +0.040 C 
ATOM     17  C   UNL     1      34.488 -20.945 -19.356  0.00  0.00    +0.167 C 
BRANCH  15  18
ATOM     18  O   UNL     1      32.240 -21.763 -19.285  0.00  0.00    -0.503 OA
ATOM     19  H   UNL     1      31.799 -20.993 -19.585  0.00  0.00    +0.292 HD
ENDBRANCH  15  18
BRANCH  17  20
ATOM     20  O   UNL     1      34.256 -20.327 -20.548  0.00  0.00    -0.503 OA
ATOM     21  H   UNL     1      34.679 -19.515 -20.744  0.00  0.00    +0.292 HD
ENDBRANCH  17  20
ENDBRANCH   3  12
BRANCH   6  22
ATOM     22  O   UNL     1      33.123 -22.266 -14.707  0.00  0.00    -0.501 OA
ATOM     23  H   UNL     1      32.482 -22.599 -15.304  0.00  0.00    +0.292 HD
ENDBRANCH   6  22
BRANCH  10  24
ATOM     24  O   UNL     1      39.760 -26.020 -13.253  0.00  0.00    -0.505 OA
ATOM     25  H   UNL     1      39.836 -26.942 -13.408  0.00  0.00    +0.292 HD
ENDBRANCH  10  24
TORSDOF 5
ENDMDL
MODEL 9
REMARK VINA RESULT:      -9.7      1.709      7.185
REMARK  Name = 5281614
REMARK  5 active torsions:
REMARK  status: ('A' for Active; 'I' for Inactive)
REMARK    1  A    between atoms: C_3  and  C_12
REMARK    2  A    between atoms: C_6  and  O_22
REMARK    3  A    between atoms: C_10  and  O_24
REMARK    4  A    between atoms: C_15  and  O_18
REMARK    5  A    between atoms: C_17  and  O_20
REMARK                            x       y       z     vdW  Elec       q    Type
REMARK                         _______ _______ _______ _____ _____    ______ ____
ROOT
ATOM      1  O   UNL     1      33.196 -10.338 -23.177  0.00  0.00    -0.450 OA
ATOM      2  O   UNL     1      30.180  -9.633 -20.529  0.00  0.00    -0.283 OA
ATOM      3  C   UNL     1      32.522 -11.376 -22.556  0.00  0.00    +0.182 A 
ATOM      4  C   UNL     1      31.794  -8.743 -22.001  0.00  0.00    +0.077 A 
ATOM      5  C   UNL     1      32.819  -9.050 -22.894  0.00  0.00    +0.152 A 
ATOM      6  C   UNL     1      31.523 -11.216 -21.668  0.00  0.00    +0.208 A 
ATOM      7  C   UNL     1      31.084  -9.841 -21.328  0.00  0.00    +0.235 A 
ATOM      8  C   UNL     1      31.452  -7.411 -21.751  0.00  0.00    +0.009 C 
ATOM      9  C   UNL     1      33.509  -8.026 -23.543  0.00  0.00    +0.074 C 
ATOM     10  C   UNL     1      33.170  -6.696 -23.296  0.00  0.00    +0.137 C 
ATOM     11  C   UNL     1      32.144  -6.390 -22.401  0.00  0.00    +0.037 C 
ENDROOT
BRANCH   3  12
ATOM     12  C   UNL     1      33.028 -12.704 -22.947  0.00  0.00    +0.041 C 
ATOM     13  C   UNL     1      32.776 -13.199 -24.226  0.00  0.00    +0.043 C 
ATOM     14  C   UNL     1      33.760 -13.468 -22.037  0.00  0.00    +0.006 C 
ATOM     15  C   UNL     1      33.254 -14.456 -24.597  0.00  0.00    +0.168 C 
ATOM     16  C   UNL     1      34.238 -14.725 -22.406  0.00  0.00    +0.040 C 
ATOM     17  C   UNL     1      33.986 -15.219 -23.687  0.00  0.00    +0.167 C 
BRANCH  15  18
ATOM     18  O   UNL     1      33.001 -14.929 -25.848  0.00  0.00    -0.503 OA
ATOM     19  H   UNL     1      32.569 -15.753 -25.960  0.00  0.00    +0.292 HD
ENDBRANCH  15  18
BRANCH  17  20
ATOM     20  O   UNL     1      34.459 -16.447 -24.036  0.00  0.00    -0.503 OA
ATOM     21  H   UNL     1      34.225 -16.822 -24.861  0.00  0.00    +0.292 HD
ENDBRANCH  17  20
ENDBRANCH   3  12
BRANCH   6  22
ATOM     22  O   UNL     1      30.896 -12.271 -21.043  0.00  0.00    -0.501 OA
ATOM     23  H   UNL     1      30.283 -12.799 -21.516  0.00  0.00    +0.292 HD
ENDBRANCH   6  22
BRANCH  10  24
ATOM     24  O   UNL     1      33.842  -5.695 -23.928  0.00  0.00    -0.505 OA
ATOM     25  H   UNL     1      34.535  -5.245 -23.486  0.00  0.00    +0.292 HD
ENDBRANCH  10  24
TORSDOF 5
ENDMDL
