MODEL 1
REMARK VINA RESULT:     -11.3      0.000      0.000
REMARK  Name = 11596613
REMARK  6 active torsions:
REMARK  status: ('A' for Active; 'I' for Inactive)
REMARK    1  A    between atoms: C_4  and  N_21
REMARK    2  A    between atoms: C_5  and  C_12
REMARK    3  A    between atoms: C_18  and  O_19
REMARK    4  A    between atoms: N_21  and  C_23
REMARK    5  A    between atoms: C_23  and  C_27
REMARK    6  A    between atoms: C_23  and  C_30
REMARK                            x       y       z     vdW  Elec       q    Type
REMARK                         _______ _______ _______ _____ _____    ______ ____
ROOT
ATOM      1  N   UNL     1      32.647 -22.913 -15.125  0.00  0.00    -0.152 N 
ATOM      2  N   UNL     1      32.586 -23.190 -13.791  0.00  0.00    -0.179 NA
ATOM      3  N   UNL     1      34.235 -22.958 -16.937  0.00  0.00    -0.393 NA
ATOM      4  C   UNL     1      31.615 -22.442 -15.954  0.00  0.00    +0.126 C 
ATOM      5  C   UNL     1      34.685 -23.606 -14.567  0.00  0.00    +0.128 C 
ATOM      6  C   UNL     1      33.927 -23.161 -15.627  0.00  0.00    +0.192 C 
ATOM      7  C   UNL     1      33.812 -23.602 -13.474  0.00  0.00    +0.067 C 
ATOM      8  C   UNL     1      31.883 -22.231 -17.252  0.00  0.00    +0.059 C 
ATOM      9  C   UNL     1      33.277 -22.522 -17.700  0.00  0.00    +0.113 C 
ATOM     10  C   UNL     1      34.103 -23.990 -12.082  0.00  0.00    +0.050 C 
ATOM     11  C   UNL     1      33.592 -22.289 -19.157  0.00  0.00    +0.067 C 
ENDROOT
BRANCH   5  12
ATOM     12  C   UNL     1      36.066 -23.972 -14.668  0.00  0.00    -0.013 C 
ATOM     13  C   UNL     1      37.045 -23.029 -14.997  0.00  0.00    -0.022 C 
ATOM     14  C   UNL     1      36.437 -25.298 -14.431  0.00  0.00    -0.001 C 
ATOM     15  C   UNL     1      38.384 -23.410 -15.087  0.00  0.00    +0.032 C 
ATOM     16  C   UNL     1      36.691 -21.600 -15.256  0.00  0.00    +0.031 C 
ATOM     17  C   UNL     1      37.777 -25.679 -14.522  0.00  0.00    +0.037 C 
ATOM     18  C   UNL     1      38.749 -24.735 -14.849  0.00  0.00    +0.138 C 
BRANCH  18  19
ATOM     19  O   UNL     1      40.055 -25.107 -14.938  0.00  0.00    -0.471 OA
ATOM     20  C   UNL     1      40.510 -26.105 -14.025  0.00  0.00    +0.252 C 
ENDBRANCH  18  19
ENDBRANCH   5  12
BRANCH   4  21
ATOM     21  N   UNL     1      30.394 -22.228 -15.380  0.00  0.00    -0.313 N 
ATOM     22  H   UNL     1      30.254 -21.408 -14.856  0.00  0.00    +0.148 HD
BRANCH  21  23
ATOM     23  C   UNL     1      29.310 -23.154 -15.517  0.00  0.00    +0.164 C 
BRANCH  23  27
ATOM     24  O   UNL     1      27.032 -22.639 -14.941  0.00  0.00    -0.314 OA
ATOM     25  N   UNL     1      27.696 -21.842 -16.926  0.00  0.00    -0.315 NA
ATOM     26  N   UNL     1      25.928 -21.964 -15.478  0.00  0.00    -0.012 NA
ATOM     27  C   UNL     1      27.985 -22.497 -15.868  0.00  0.00    +0.311 C 
ATOM     28  C   UNL     1      26.399 -21.522 -16.649  0.00  0.00    +0.105 C 
ATOM     29  C   UNL     1      25.569 -20.742 -17.574  0.00  0.00    +0.132 C 
ENDBRANCH  23  27
BRANCH  23  30
ATOM     30  C   UNL     1      29.179 -23.983 -14.223  0.00  0.00    +0.030 C 
ATOM     31  C   UNL     1      29.597 -25.437 -14.410  0.00  0.00    +0.002 C 
ENDBRANCH  23  30
ENDBRANCH  21  23
ENDBRANCH   4  21
TORSDOF 6
ENDMDL
MODEL 2
REMARK VINA RESULT:     -10.3      2.247      8.813
REMARK  Name = 11596613
REMARK  6 active torsions:
REMARK  status: ('A' for Active; 'I' for Inactive)
REMARK    1  A    between atoms: C_4  and  N_21
REMARK    2  A    between atoms: C_5  and  C_12
REMARK    3  A    between atoms: C_18  and  O_19
REMARK    4  A    between atoms: N_21  and  C_23
REMARK    5  A    between atoms: C_23  and  C_27
REMARK    6  A    between atoms: C_23  and  C_30
REMARK                            x       y       z     vdW  Elec       q    Type
REMARK                         _______ _______ _______ _____ _____    ______ ____
ROOT
ATOM      1  N   UNL     1      32.897 -23.644 -13.787  0.00  0.00    -0.152 N 
ATOM      2  N   UNL     1      32.168 -24.084 -12.722  0.00  0.00    -0.179 NA
ATOM      3  N   UNL     1      32.559 -22.794 -16.015  0.00  0.00    -0.393 NA
ATOM      4  C   UNL     1      34.295 -23.547 -13.890  0.00  0.00    +0.126 C 
ATOM      5  C   UNL     1      30.770 -23.483 -14.415  0.00  0.00    +0.128 C 
ATOM      6  C   UNL     1      32.062 -23.268 -14.841  0.00  0.00    +0.192 C 
ATOM      7  C   UNL     1      30.899 -23.983 -13.114  0.00  0.00    +0.067 C 
ATOM      8  C   UNL     1      34.821 -23.084 -15.035  0.00  0.00    +0.059 C 
ATOM      9  C   UNL     1      33.854 -22.707 -16.108  0.00  0.00    +0.113 C 
ATOM     10  C   UNL     1      29.825 -24.384 -12.188  0.00  0.00    +0.050 C 
ATOM     11  C   UNL     1      34.431 -22.184 -17.399  0.00  0.00    +0.067 C 
ENDROOT
BRANCH   5  12
ATOM     12  C   UNL     1      29.609 -23.220 -15.212  0.00  0.00    -0.013 C 
ATOM     13  C   UNL     1      28.878 -24.259 -15.795  0.00  0.00    -0.022 C 
ATOM     14  C   UNL     1      29.205 -21.897 -15.406  0.00  0.00    -0.001 C 
ATOM     15  C   UNL     1      27.750 -23.975 -16.565  0.00  0.00    +0.032 C 
ATOM     16  C   UNL     1      29.275 -25.688 -15.611  0.00  0.00    +0.031 C 
ATOM     17  C   UNL     1      28.076 -21.613 -16.177  0.00  0.00    +0.037 C 
ATOM     18  C   UNL     1      27.349 -22.653 -16.756  0.00  0.00    +0.138 C 
BRANCH  18  19
ATOM     19  O   UNL     1      26.249 -22.376 -17.508  0.00  0.00    -0.471 OA
ATOM     20  C   UNL     1      25.709 -21.060 -17.410  0.00  0.00    +0.252 C 
ENDBRANCH  18  19
ENDBRANCH   5  12
BRANCH   4  21
ATOM     21  N   UNL     1      35.036 -23.935 -12.811  0.00  0.00    -0.313 N 
ATOM     22  H   UNL     1      34.680 -24.634 -12.217  0.00  0.00    +0.148 HD
BRANCH  21  23
ATOM     23  C   UNL     1      36.314 -23.361 -12.512  0.00  0.00    +0.164 C 
BRANCH  23  27
ATOM     24  O   UNL     1      37.718 -25.310 -12.374  0.00  0.00    -0.314 OA
ATOM     25  N   UNL     1      38.252 -23.890 -14.022  0.00  0.00    -0.315 NA
ATOM     26  N   UNL     1      38.821 -25.872 -13.029  0.00  0.00    -0.012 NA
ATOM     27  C   UNL     1      37.487 -24.173 -13.039  0.00  0.00    +0.311 C 
ATOM     28  C   UNL     1      39.078 -24.975 -13.988  0.00  0.00    +0.105 C 
ATOM     29  C   UNL     1      40.177 -25.154 -14.942  0.00  0.00    +0.132 C 
ENDBRANCH  23  27
BRANCH  23  30
ATOM     30  C   UNL     1      36.438 -23.153 -10.989  0.00  0.00    +0.030 C 
ATOM     31  C   UNL     1      35.310 -23.821 -10.210  0.00  0.00    +0.002 C 
ENDBRANCH  23  30
ENDBRANCH  21  23
ENDBRANCH   4  21
TORSDOF 6
ENDMDL
MODEL 3
REMARK VINA RESULT:      -9.4     14.201     17.354
REMARK  Name = 11596613
REMARK  6 active torsions:
REMARK  status: ('A' for Active; 'I' for Inactive)
REMARK    1  A    between atoms: C_4  and  N_21
REMARK    2  A    between atoms: C_5  and  C_12
REMARK    3  A    between atoms: C_18  and  O_19
REMARK    4  A    between atoms: N_21  and  C_23
REMARK    5  A    between atoms: C_23  and  C_27
REMARK    6  A    between atoms: C_23  and  C_30
REMARK                            x       y       z     vdW  Elec       q    Type
REMARK                         _______ _______ _______ _____ _____    ______ ____
ROOT
ATOM      1  N   UNL     1      33.053  -9.930 -23.058  0.00  0.00    -0.152 N 
ATOM      2  N   UNL     1      34.077  -9.496 -23.848  0.00  0.00    -0.179 NA
ATOM      3  N   UNL     1      31.156  -9.048 -21.865  0.00  0.00    -0.393 NA
ATOM      4  C   UNL     1      32.778 -11.247 -22.656  0.00  0.00    +0.126 C 
ATOM      5  C   UNL     1      32.786  -7.729 -23.221  0.00  0.00    +0.128 C 
ATOM      6  C   UNL     1      32.245  -8.864 -22.660  0.00  0.00    +0.192 C 
ATOM      7  C   UNL     1      33.903  -8.178 -23.934  0.00  0.00    +0.067 C 
ATOM      8  C   UNL     1      31.711 -11.467 -21.871  0.00  0.00    +0.059 C 
ATOM      9  C   UNL     1      30.904 -10.269 -21.494  0.00  0.00    +0.113 C 
ATOM     10  C   UNL     1      34.852  -7.377 -24.728  0.00  0.00    +0.050 C 
ATOM     11  C   UNL     1      29.703 -10.501 -20.612  0.00  0.00    +0.067 C 
ENDROOT
BRANCH   5  12
ATOM     12  C   UNL     1      32.244  -6.413 -23.050  0.00  0.00    -0.013 C 
ATOM     13  C   UNL     1      31.408  -5.842 -24.015  0.00  0.00    -0.022 C 
ATOM     14  C   UNL     1      32.561  -5.692 -21.896  0.00  0.00    -0.001 C 
ATOM     15  C   UNL     1      30.893  -4.560 -23.824  0.00  0.00    +0.032 C 
ATOM     16  C   UNL     1      31.043  -6.580 -25.263  0.00  0.00    +0.031 C 
ATOM     17  C   UNL     1      32.046  -4.410 -21.706  0.00  0.00    +0.037 C 
ATOM     18  C   UNL     1      31.211  -3.844 -22.670  0.00  0.00    +0.138 C 
BRANCH  18  19
ATOM     19  O   UNL     1      30.709  -2.593 -22.485  0.00  0.00    -0.471 OA
ATOM     20  C   UNL     1      30.459  -1.814 -23.654  0.00  0.00    +0.252 C 
ENDBRANCH  18  19
ENDBRANCH   5  12
BRANCH   4  21
ATOM     21  N   UNL     1      33.620 -12.230 -23.093  0.00  0.00    -0.313 N 
ATOM     22  H   UNL     1      34.572 -12.019 -23.216  0.00  0.00    +0.148 HD
BRANCH  21  23
ATOM     23  C   UNL     1      33.165 -13.558 -23.380  0.00  0.00    +0.164 C 
BRANCH  23  27
ATOM     24  O   UNL     1      33.681 -14.340 -21.164  0.00  0.00    -0.314 OA
ATOM     25  N   UNL     1      34.322 -15.715 -22.813  0.00  0.00    -0.315 NA
ATOM     26  N   UNL     1      34.286 -15.439 -20.541  0.00  0.00    -0.012 NA
ATOM     27  C   UNL     1      33.764 -14.619 -22.469  0.00  0.00    +0.311 C 
ATOM     28  C   UNL     1      34.638 -16.205 -21.579  0.00  0.00    +0.105 C 
ATOM     29  C   UNL     1      35.319 -17.492 -21.398  0.00  0.00    +0.132 C 
ENDBRANCH  23  27
BRANCH  23  30
ATOM     30  C   UNL     1      33.449 -13.888 -24.858  0.00  0.00    +0.030 C 
ATOM     31  C   UNL     1      32.616 -13.047 -25.820  0.00  0.00    +0.002 C 
ENDBRANCH  23  30
ENDBRANCH  21  23
ENDBRANCH   4  21
TORSDOF 6
ENDMDL
MODEL 4
REMARK VINA RESULT:      -8.7      4.445      8.888
REMARK  Name = 11596613
REMARK  6 active torsions:
REMARK  status: ('A' for Active; 'I' for Inactive)
REMARK    1  A    between atoms: C_4  and  N_21
REMARK    2  A    between atoms: C_5  and  C_12
REMARK    3  A    between atoms: C_18  and  O_19
REMARK    4  A    between atoms: N_21  and  C_23
REMARK    5  A    between atoms: C_23  and  C_27
REMARK    6  A    between atoms: C_23  and  C_30
REMARK                            x       y       z     vdW  Elec       q    Type
REMARK                         _______ _______ _______ _____ _____    ______ ____
ROOT
ATOM      1  N   UNL     1      35.475 -21.842 -17.143  0.00  0.00    -0.152 N 
ATOM      2  N   UNL     1      34.440 -22.623 -17.566  0.00  0.00    -0.179 NA
ATOM      3  N   UNL     1      36.734 -19.918 -17.861  0.00  0.00    -0.393 NA
ATOM      4  C   UNL     1      36.222 -21.972 -15.960  0.00  0.00    +0.126 C 
ATOM      5  C   UNL     1      34.841 -20.983 -19.093  0.00  0.00    +0.128 C 
ATOM      6  C   UNL     1      35.742 -20.827 -18.063  0.00  0.00    +0.192 C 
ATOM      7  C   UNL     1      34.073 -22.096 -18.733  0.00  0.00    +0.067 C 
ATOM      8  C   UNL     1      37.209 -21.093 -15.726  0.00  0.00    +0.059 C 
ATOM      9  C   UNL     1      37.423 -20.042 -16.765  0.00  0.00    +0.113 C 
ATOM     10  C   UNL     1      32.958 -22.706 -19.480  0.00  0.00    +0.050 C 
ATOM     11  C   UNL     1      38.530 -19.047 -16.516  0.00  0.00    +0.067 C 
ENDROOT
BRANCH   5  12
ATOM     12  C   UNL     1      34.784 -20.132 -20.244  0.00  0.00    -0.013 C 
ATOM     13  C   UNL     1      33.562 -19.686 -20.757  0.00  0.00    -0.022 C 
ATOM     14  C   UNL     1      35.975 -19.744 -20.862  0.00  0.00    -0.001 C 
ATOM     15  C   UNL     1      33.534 -18.857 -21.879  0.00  0.00    +0.032 C 
ATOM     16  C   UNL     1      32.265 -20.076 -20.126  0.00  0.00    +0.031 C 
ATOM     17  C   UNL     1      35.947 -18.916 -21.985  0.00  0.00    +0.037 C 
ATOM     18  C   UNL     1      34.726 -18.472 -22.492  0.00  0.00    +0.138 C 
BRANCH  18  19
ATOM     19  O   UNL     1      34.698 -17.665 -23.588  0.00  0.00    -0.471 OA
ATOM     20  C   UNL     1      34.242 -16.326 -23.396  0.00  0.00    +0.252 C 
ENDBRANCH  18  19
ENDBRANCH   5  12
BRANCH   4  21
ATOM     21  N   UNL     1      35.892 -22.993 -15.115  0.00  0.00    -0.313 N 
ATOM     22  H   UNL     1      35.142 -23.583 -15.353  0.00  0.00    +0.148 HD
BRANCH  21  23
ATOM     23  C   UNL     1      36.601 -23.237 -13.894  0.00  0.00    +0.164 C 
BRANCH  23  27
ATOM     24  O   UNL     1      37.041 -25.578 -14.231  0.00  0.00    -0.314 OA
ATOM     25  N   UNL     1      38.862 -24.331 -13.847  0.00  0.00    -0.315 NA
ATOM     26  N   UNL     1      38.129 -26.459 -14.266  0.00  0.00    -0.012 NA
ATOM     27  C   UNL     1      37.593 -24.386 -13.982  0.00  0.00    +0.311 C 
ATOM     28  C   UNL     1      39.167 -25.649 -14.030  0.00  0.00    +0.105 C 
ATOM     29  C   UNL     1      40.545 -26.149 -13.976  0.00  0.00    +0.132 C 
ENDBRANCH  23  27
BRANCH  23  30
ATOM     30  C   UNL     1      35.591 -23.478 -12.755  0.00  0.00    +0.030 C 
ATOM     31  C   UNL     1      36.097 -22.985 -11.404  0.00  0.00    +0.002 C 
ENDBRANCH  23  30
ENDBRANCH  21  23
ENDBRANCH   4  21
TORSDOF 6
ENDMDL
MODEL 5
REMARK VINA RESULT:      -8.6     14.239     17.254
REMARK  Name = 11596613
REMARK  6 active torsions:
REMARK  status: ('A' for Active; 'I' for Inactive)
REMARK    1  A    between atoms: C_4  and  N_21
REMARK    2  A    between atoms: C_5  and  C_12
REMARK    3  A    between atoms: C_18  and  O_19
REMARK    4  A    between atoms: N_21  and  C_23
REMARK    5  A    between atoms: C_23  and  C_27
REMARK    6  A    between atoms: C_23  and  C_30
REMARK                            x       y       z     vdW  Elec       q    Type
REMARK                         _______ _______ _______ _____ _____    ______ ____
ROOT
ATOM      1  N   UNL     1      31.702  -9.936 -22.250  0.00  0.00    -0.152 N 
ATOM      2  N   UNL     1      31.841  -9.817 -23.602  0.00  0.00    -0.179 NA
ATOM      3  N   UNL     1      31.344  -8.548 -20.314  0.00  0.00    -0.393 NA
ATOM      4  C   UNL     1      31.734 -11.113 -21.484  0.00  0.00    +0.126 C 
ATOM      5  C   UNL     1      31.529  -7.761 -22.677  0.00  0.00    +0.128 C 
ATOM      6  C   UNL     1      31.508  -8.687 -21.658  0.00  0.00    +0.192 C 
ATOM      7  C   UNL     1      31.736  -8.511 -23.840  0.00  0.00    +0.067 C 
ATOM      8  C   UNL     1      31.576 -11.014 -20.154  0.00  0.00    +0.059 C 
ATOM      9  C   UNL     1      31.375  -9.639 -19.608  0.00  0.00    +0.113 C 
ATOM     10  C   UNL     1      31.841  -8.021 -25.226  0.00  0.00    +0.050 C 
ATOM     11  C   UNL     1      31.196  -9.514 -18.115  0.00  0.00    +0.067 C 
ENDROOT
BRANCH   5  12
ATOM     12  C   UNL     1      31.363  -6.351 -22.483  0.00  0.00    -0.013 C 
ATOM     13  C   UNL     1      32.460  -5.484 -22.490  0.00  0.00    -0.022 C 
ATOM     14  C   UNL     1      30.079  -5.839 -22.283  0.00  0.00    -0.001 C 
ATOM     15  C   UNL     1      32.271  -4.115 -22.300  0.00  0.00    +0.032 C 
ATOM     16  C   UNL     1      33.850  -5.990 -22.701  0.00  0.00    +0.031 C 
ATOM     17  C   UNL     1      29.891  -4.469 -22.093  0.00  0.00    +0.037 C 
ATOM     18  C   UNL     1      30.987  -3.608 -22.102  0.00  0.00    +0.138 C 
BRANCH  18  19
ATOM     19  O   UNL     1      30.804  -2.272 -21.915  0.00  0.00    -0.471 OA
ATOM     20  C   UNL     1      29.464  -1.786 -21.976  0.00  0.00    +0.252 C 
ENDBRANCH  18  19
ENDBRANCH   5  12
BRANCH   4  21
ATOM     21  N   UNL     1      31.927 -12.292 -22.145  0.00  0.00    -0.313 N 
ATOM     22  H   UNL     1      31.143 -12.775 -22.491  0.00  0.00    +0.148 HD
BRANCH  21  23
ATOM     23  C   UNL     1      33.230 -12.850 -22.353  0.00  0.00    +0.164 C 
BRANCH  23  27
ATOM     24  O   UNL     1      32.874 -13.573 -24.620  0.00  0.00    -0.314 OA
ATOM     25  N   UNL     1      33.610 -15.172 -23.235  0.00  0.00    -0.315 NA
ATOM     26  N   UNL     1      32.985 -14.736 -25.393  0.00  0.00    -0.012 NA
ATOM     27  C   UNL     1      33.262 -13.954 -23.398  0.00  0.00    +0.311 C 
ATOM     28  C   UNL     1      33.424 -15.635 -24.505  0.00  0.00    +0.105 C 
ATOM     29  C   UNL     1      33.690 -17.028 -24.879  0.00  0.00    +0.132 C 
ENDBRANCH  23  27
BRANCH  23  30
ATOM     30  C   UNL     1      33.789 -13.358 -21.010  0.00  0.00    +0.030 C 
ATOM     31  C   UNL     1      32.813 -14.266 -20.270  0.00  0.00    +0.002 C 
ENDBRANCH  23  30
ENDBRANCH  21  23
ENDBRANCH   4  21
TORSDOF 6
ENDMDL
MODEL 6
REMARK VINA RESULT:      -8.6     10.582     14.018
REMARK  Name = 11596613
REMARK  6 active torsions:
REMARK  status: ('A' for Active; 'I' for Inactive)
REMARK    1  A    between atoms: C_4  and  N_21
REMARK    2  A    between atoms: C_5  and  C_12
REMARK    3  A    between atoms: C_18  and  O_19
REMARK    4  A    between atoms: N_21  and  C_23
REMARK    5  A    between atoms: C_23  and  C_27
REMARK    6  A    between atoms: C_23  and  C_30
REMARK                            x       y       z     vdW  Elec       q    Type
REMARK                         _______ _______ _______ _____ _____    ______ ____
ROOT
ATOM      1  N   UNL     1      33.633 -14.305 -23.199  0.00  0.00    -0.152 N 
ATOM      2  N   UNL     1      33.851 -14.481 -21.864  0.00  0.00    -0.179 NA
ATOM      3  N   UNL     1      32.704 -12.671 -24.707  0.00  0.00    -0.393 NA
ATOM      4  C   UNL     1      33.951 -15.187 -24.245  0.00  0.00    +0.126 C 
ATOM      5  C   UNL     1      32.853 -12.466 -22.223  0.00  0.00    +0.128 C 
ATOM      6  C   UNL     1      33.022 -13.074 -23.446  0.00  0.00    +0.192 C 
ATOM      7  C   UNL     1      33.378 -13.373 -21.295  0.00  0.00    +0.067 C 
ATOM      8  C   UNL     1      33.652 -14.823 -25.503  0.00  0.00    +0.059 C 
ATOM      9  C   UNL     1      32.999 -13.491 -25.672  0.00  0.00    +0.113 C 
ATOM     10  C   UNL     1      33.454 -13.227 -19.830  0.00  0.00    +0.050 C 
ATOM     11  C   UNL     1      32.657 -13.070 -27.080  0.00  0.00    +0.067 C 
ENDROOT
BRANCH   5  12
ATOM     12  C   UNL     1      32.256 -11.176 -22.044  0.00  0.00    -0.013 C 
ATOM     13  C   UNL     1      32.766 -10.045 -22.688  0.00  0.00    -0.022 C 
ATOM     14  C   UNL     1      31.143 -11.052 -21.208  0.00  0.00    -0.001 C 
ATOM     15  C   UNL     1      32.165  -8.800 -22.498  0.00  0.00    +0.032 C 
ATOM     16  C   UNL     1      33.953 -10.133 -23.591  0.00  0.00    +0.031 C 
ATOM     17  C   UNL     1      30.543  -9.807 -21.017  0.00  0.00    +0.037 C 
ATOM     18  C   UNL     1      31.054  -8.681 -21.663  0.00  0.00    +0.138 C 
BRANCH  18  19
ATOM     19  O   UNL     1      30.469  -7.467 -21.477  0.00  0.00    -0.471 OA
ATOM     20  C   UNL     1      30.844  -6.421 -22.372  0.00  0.00    +0.252 C 
ENDBRANCH  18  19
ENDBRANCH   5  12
BRANCH   4  21
ATOM     21  N   UNL     1      34.550 -16.369 -23.914  0.00  0.00    -0.313 N 
ATOM     22  H   UNL     1      35.514 -16.475 -24.078  0.00  0.00    +0.148 HD
BRANCH  21  23
ATOM     23  C   UNL     1      33.824 -17.460 -23.336  0.00  0.00    +0.164 C 
BRANCH  23  27
ATOM     24  O   UNL     1      35.567 -17.428 -21.678  0.00  0.00    -0.314 OA
ATOM     25  N   UNL     1      34.297 -19.273 -21.662  0.00  0.00    -0.315 NA
ATOM     26  N   UNL     1      36.069 -18.236 -20.650  0.00  0.00    -0.012 NA
ATOM     27  C   UNL     1      34.550 -18.135 -22.183  0.00  0.00    +0.311 C 
ATOM     28  C   UNL     1      35.268 -19.306 -20.704  0.00  0.00    +0.105 C 
ATOM     29  C   UNL     1      35.427 -20.441 -19.788  0.00  0.00    +0.132 C 
ENDBRANCH  23  27
BRANCH  23  30
ATOM     30  C   UNL     1      33.480 -18.485 -24.435  0.00  0.00    +0.030 C 
ATOM     31  C   UNL     1      32.088 -18.276 -25.021  0.00  0.00    +0.002 C 
ENDBRANCH  23  30
ENDBRANCH  21  23
ENDBRANCH   4  21
TORSDOF 6
ENDMDL
MODEL 7
REMARK VINA RESULT:      -8.5      3.636      6.376
REMARK  Name = 11596613
REMARK  6 active torsions:
REMARK  status: ('A' for Active; 'I' for Inactive)
REMARK    1  A    between atoms: C_4  and  N_21
REMARK    2  A    between atoms: C_5  and  C_12
REMARK    3  A    between atoms: C_18  and  O_19
REMARK    4  A    between atoms: N_21  and  C_23
REMARK    5  A    between atoms: C_23  and  C_27
REMARK    6  A    between atoms: C_23  and  C_30
REMARK                            x       y       z     vdW  Elec       q    Type
REMARK                         _______ _______ _______ _____ _____    ______ ____
ROOT
ATOM      1  N   UNL     1      35.144 -22.104 -17.271  0.00  0.00    -0.152 N 
ATOM      2  N   UNL     1      36.497 -21.927 -17.254  0.00  0.00    -0.179 NA
ATOM      3  N   UNL     1      33.386 -22.941 -15.853  0.00  0.00    -0.393 NA
ATOM      4  C   UNL     1      34.249 -21.787 -18.306  0.00  0.00    +0.126 C 
ATOM      5  C   UNL     1      35.817 -22.850 -15.287  0.00  0.00    +0.128 C 
ATOM      6  C   UNL     1      34.701 -22.669 -16.074  0.00  0.00    +0.192 C 
ATOM      7  C   UNL     1      36.883 -22.379 -16.062  0.00  0.00    +0.067 C 
ATOM      8  C   UNL     1      32.943 -22.041 -18.124  0.00  0.00    +0.059 C 
ATOM      9  C   UNL     1      32.561 -22.647 -16.814  0.00  0.00    +0.113 C 
ATOM     10  C   UNL     1      38.312 -22.336 -15.705  0.00  0.00    +0.050 C 
ATOM     11  C   UNL     1      31.097 -22.938 -16.595  0.00  0.00    +0.067 C 
ENDROOT
BRANCH   5  12
ATOM     12  C   UNL     1      35.787 -23.410 -13.969  0.00  0.00    -0.013 C 
ATOM     13  C   UNL     1      36.116 -24.750 -13.742  0.00  0.00    -0.022 C 
ATOM     14  C   UNL     1      35.421 -22.597 -12.894  0.00  0.00    -0.001 C 
ATOM     15  C   UNL     1      36.080 -25.271 -12.448  0.00  0.00    +0.032 C 
ATOM     16  C   UNL     1      36.514 -25.654 -14.864  0.00  0.00    +0.031 C 
ATOM     17  C   UNL     1      35.384 -23.118 -11.600  0.00  0.00    +0.037 C 
ATOM     18  C   UNL     1      35.715 -24.455 -11.378  0.00  0.00    +0.138 C 
BRANCH  18  19
ATOM     19  O   UNL     1      35.678 -24.963 -10.116  0.00  0.00    -0.471 OA
ATOM     20  C   UNL     1      35.094 -24.147  -9.103  0.00  0.00    +0.252 C 
ENDBRANCH  18  19
ENDBRANCH   5  12
BRANCH   4  21
ATOM     21  N   UNL     1      34.768 -21.235 -19.443  0.00  0.00    -0.313 N 
ATOM     22  H   UNL     1      35.733 -21.323 -19.615  0.00  0.00    +0.148 HD
BRANCH  21  23
ATOM     23  C   UNL     1      33.958 -20.534 -20.394  0.00  0.00    +0.164 C 
BRANCH  23  27
ATOM     24  O   UNL     1      35.796 -18.982 -20.392  0.00  0.00    -0.314 OA
ATOM     25  N   UNL     1      34.113 -18.434 -21.765  0.00  0.00    -0.315 NA
ATOM     26  N   UNL     1      36.172 -17.781 -21.008  0.00  0.00    -0.012 NA
ATOM     27  C   UNL     1      34.594 -19.253 -20.911  0.00  0.00    +0.311 C 
ATOM     28  C   UNL     1      35.128 -17.522 -21.802  0.00  0.00    +0.105 C 
ATOM     29  C   UNL     1      35.081 -16.333 -22.660  0.00  0.00    +0.132 C 
ENDBRANCH  23  27
BRANCH  23  30
ATOM     30  C   UNL     1      32.578 -20.242 -19.773  0.00  0.00    +0.030 C 
ATOM     31  C   UNL     1      31.488 -20.053 -20.822  0.00  0.00    +0.002 C 
ENDBRANCH  23  30
ENDBRANCH  21  23
ENDBRANCH   4  21
TORSDOF 6
ENDMDL
MODEL 8
REMARK VINA RESULT:      -8.4      2.176      8.279
REMARK  Name = 11596613
REMARK  6 active torsions:
REMARK  status: ('A' for Active; 'I' for Inactive)
REMARK    1  A    between atoms: C_4  and  N_21
REMARK    2  A    between atoms: C_5  and  C_12
REMARK    3  A    between atoms: C_18  and  O_19
REMARK    4  A    between atoms: N_21  and  C_23
REMARK    5  A    between atoms: C_23  and  C_27
REMARK    6  A    between atoms: C_23  and  C_30
REMARK                            x       y       z     vdW  Elec       q    Type
REMARK                         _______ _______ _______ _____ _____    ______ ____
ROOT
ATOM      1  N   UNL     1      33.563 -23.136 -15.218  0.00  0.00    -0.152 N 
ATOM      2  N   UNL     1      33.296 -23.619 -13.971  0.00  0.00    -0.179 NA
ATOM      3  N   UNL     1      32.391 -22.319 -17.159  0.00  0.00    -0.393 NA
ATOM      4  C   UNL     1      34.820 -22.948 -15.816  0.00  0.00    +0.126 C 
ATOM      5  C   UNL     1      31.347 -23.119 -15.036  0.00  0.00    +0.128 C 
ATOM      6  C   UNL     1      32.382 -22.821 -15.894  0.00  0.00    +0.192 C 
ATOM      7  C   UNL     1      31.967 -23.603 -13.879  0.00  0.00    +0.067 C 
ATOM      8  C   UNL     1      34.868 -22.455 -17.064  0.00  0.00    +0.059 C 
ATOM      9  C   UNL     1      33.557 -22.148 -17.709  0.00  0.00    +0.113 C 
ATOM     10  C   UNL     1      31.326 -24.070 -12.636  0.00  0.00    +0.050 C 
ATOM     11  C   UNL     1      33.596 -21.594 -19.111  0.00  0.00    +0.067 C 
ENDROOT
BRANCH   5  12
ATOM     12  C   UNL     1      29.962 -22.936 -15.356  0.00  0.00    -0.013 C 
ATOM     13  C   UNL     1      29.139 -24.023 -15.665  0.00  0.00    -0.022 C 
ATOM     14  C   UNL     1      29.431 -21.644 -15.357  0.00  0.00    -0.001 C 
ATOM     15  C   UNL     1      27.794 -23.818 -15.971  0.00  0.00    +0.032 C 
ATOM     16  C   UNL     1      29.667 -25.421 -15.673  0.00  0.00    +0.031 C 
ATOM     17  C   UNL     1      28.085 -21.439 -15.665  0.00  0.00    +0.037 C 
ATOM     18  C   UNL     1      27.267 -22.527 -15.971  0.00  0.00    +0.138 C 
BRANCH  18  19
ATOM     19  O   UNL     1      25.955 -22.326 -16.271  0.00  0.00    -0.471 OA
ATOM     20  C   UNL     1      25.635 -21.179 -17.056  0.00  0.00    +0.252 C 
ENDBRANCH  18  19
ENDBRANCH   5  12
BRANCH   4  21
ATOM     21  N   UNL     1      35.923 -23.281 -15.083  0.00  0.00    -0.313 N 
ATOM     22  H   UNL     1      36.614 -22.599 -14.928  0.00  0.00    +0.148 HD
BRANCH  21  23
ATOM     23  C   UNL     1      36.111 -24.591 -14.532  0.00  0.00    +0.164 C 
BRANCH  23  27
ATOM     24  O   UNL     1      36.415 -25.799 -12.475  0.00  0.00    -0.314 OA
ATOM     25  N   UNL     1      35.733 -23.681 -12.221  0.00  0.00    -0.315 NA
ATOM     26  N   UNL     1      36.296 -25.592 -11.095  0.00  0.00    -0.012 NA
ATOM     27  C   UNL     1      36.064 -24.627 -13.013  0.00  0.00    +0.311 C 
ATOM     28  C   UNL     1      35.889 -24.320 -11.026  0.00  0.00    +0.105 C 
ATOM     29  C   UNL     1      35.630 -23.657  -9.743  0.00  0.00    +0.132 C 
ENDBRANCH  23  27
BRANCH  23  30
ATOM     30  C   UNL     1      37.440 -25.177 -15.049  0.00  0.00    +0.030 C 
ATOM     31  C   UNL     1      38.650 -24.342 -14.643  0.00  0.00    +0.002 C 
ENDBRANCH  23  30
ENDBRANCH  21  23
ENDBRANCH   4  21
TORSDOF 6
ENDMDL
