MODEL 1
REMARK VINA RESULT:     -11.5      0.000      0.000
REMARK  Name = 11493841
REMARK  4 active torsions:
REMARK  status: ('A' for Active; 'I' for Inactive)
REMARK    1  A    between atoms: N_1  and  C_18
REMARK    2  A    between atoms: N_4  and  C_11
REMARK    3  A    between atoms: C_8  and  C_30
REMARK    4  A    between atoms: C_19  and  N_24
REMARK                            x       y       z     vdW  Elec       q    Type
REMARK                         _______ _______ _______ _____ _____    ______ ____
ROOT
ATOM      1  N   UNL     1      36.392 -23.010 -15.155  0.00  0.00    -0.272 N 
ATOM      2  N   UNL     1      34.303 -22.813 -16.205  0.00  0.00    -0.322 NA
ATOM      3  N   UNL     1      36.275 -21.826 -17.177  0.00  0.00    -0.170 NA
ATOM      4  N   UNL     1      32.203 -22.601 -17.284  0.00  0.00    -0.287 N 
ATOM      5  C   UNL     1      35.647 -22.543 -16.192  0.00  0.00    +0.146 C 
ATOM      6  C   UNL     1      33.595 -22.336 -17.250  0.00  0.00    +0.202 C 
ATOM      7  C   UNL     1      35.507 -21.380 -18.192  0.00  0.00    +0.120 C 
ATOM      8  C   UNL     1      34.148 -21.606 -18.282  0.00  0.00    +0.118 C 
ATOM      9  H   UNL     1      37.357 -22.814 -15.152  0.00  0.00    +0.159 HD
ATOM     10  H   UNL     1      31.833 -22.666 -18.194  0.00  0.00    +0.155 HD
ENDROOT
BRANCH   4  11
ATOM     11  C   UNL     1      31.249 -22.788 -16.271  0.00  0.00    +0.050 C 
ATOM     12  C   UNL     1      29.920 -22.404 -16.476  0.00  0.00    +0.010 C 
ATOM     13  C   UNL     1      31.621 -23.359 -15.051  0.00  0.00    +0.015 C 
ATOM     14  C   UNL     1      28.973 -22.590 -15.470  0.00  0.00    -0.021 C 
ATOM     15  C   UNL     1      30.674 -23.546 -14.045  0.00  0.00    +0.001 C 
ATOM     16  C   UNL     1      29.350 -23.161 -14.254  0.00  0.00    -0.004 C 
ATOM     17  C   UNL     1      27.557 -22.178 -15.692  0.00  0.00    +0.031 C 
ENDBRANCH   4  11
BRANCH   1  18
ATOM     18  C   UNL     1      35.848 -23.780 -14.050  0.00  0.00    +0.060 C 
ATOM     19  C   UNL     1      36.705 -25.026 -13.753  0.00  0.00    -0.047 C 
ATOM     20  C   UNL     1      35.732 -22.880 -12.815  0.00  0.00    +0.018 C 
ATOM     21  C   UNL     1      38.067 -24.672 -13.143  0.00  0.00    -0.020 C 
ATOM     22  C   UNL     1      37.090 -22.537 -12.203  0.00  0.00    +0.002 C 
ATOM     23  C   UNL     1      37.911 -23.788 -11.907  0.00  0.00    -0.002 C 
BRANCH  19  24
ATOM     24  N   UNL     1      36.891 -25.844 -14.952  0.00  0.00    +0.383 N 
ATOM     25  H   UNL     1      37.341 -25.286 -15.679  0.00  0.00    -0.089 HD
ATOM     26  H   UNL     1      35.984 -26.169 -15.287  0.00  0.00    -0.089 HD
ATOM     27  H   UNL     1      37.478 -26.648 -14.728  0.00  0.00    -0.089 HD
ENDBRANCH  19  24
ENDBRANCH   1  18
BRANCH   8  30
ATOM     28  O   UNL     1      32.270 -21.553 -19.703  0.00  0.00    -0.270 OA
ATOM     29  N   UNL     1      33.941 -20.043 -20.140  0.00  0.00    -0.325 N 
ATOM     30  C   UNL     1      33.386 -21.090 -19.408  0.00  0.00    +0.248 C 
ATOM     31  H   UNL     1      33.454 -19.669 -20.909  0.00  0.00    +0.145 HD
ATOM     32  H   UNL     1      34.819 -19.678 -19.888  0.00  0.00    +0.145 HD
ENDBRANCH   8  30
TORSDOF 4
ENDMDL
MODEL 2
REMARK VINA RESULT:     -11.1      2.196      4.839
REMARK  Name = 11493841
REMARK  4 active torsions:
REMARK  status: ('A' for Active; 'I' for Inactive)
REMARK    1  A    between atoms: N_1  and  C_18
REMARK    2  A    between atoms: N_4  and  C_11
REMARK    3  A    between atoms: C_8  and  C_30
REMARK    4  A    between atoms: C_19  and  N_24
REMARK                            x       y       z     vdW  Elec       q    Type
REMARK                         _______ _______ _______ _____ _____    ______ ____
ROOT
ATOM      1  N   UNL     1      33.679 -24.292 -13.551  0.00  0.00    -0.272 N 
ATOM      2  N   UNL     1      32.597 -23.128 -15.277  0.00  0.00    -0.322 NA
ATOM      3  N   UNL     1      31.367 -24.596 -13.814  0.00  0.00    -0.170 NA
ATOM      4  N   UNL     1      31.484 -21.963 -17.016  0.00  0.00    -0.287 N 
ATOM      5  C   UNL     1      32.533 -24.002 -14.224  0.00  0.00    +0.146 C 
ATOM      6  C   UNL     1      31.441 -22.862 -15.921  0.00  0.00    +0.202 C 
ATOM      7  C   UNL     1      30.250 -24.285 -14.503  0.00  0.00    +0.120 C 
ATOM      8  C   UNL     1      30.226 -23.417 -15.575  0.00  0.00    +0.118 C 
ATOM      9  H   UNL     1      33.626 -24.919 -12.794  0.00  0.00    +0.159 HD
ATOM     10  H   UNL     1      30.650 -21.455 -17.145  0.00  0.00    +0.155 HD
ENDROOT
BRANCH   4  11
ATOM     11  C   UNL     1      32.484 -21.656 -17.952  0.00  0.00    +0.050 C 
ATOM     12  C   UNL     1      32.207 -20.803 -19.024  0.00  0.00    +0.010 C 
ATOM     13  C   UNL     1      33.764 -22.201 -17.817  0.00  0.00    +0.015 C 
ATOM     14  C   UNL     1      33.201 -20.498 -19.954  0.00  0.00    -0.021 C 
ATOM     15  C   UNL     1      34.758 -21.895 -18.746  0.00  0.00    +0.001 C 
ATOM     16  C   UNL     1      34.477 -21.045 -19.815  0.00  0.00    -0.004 C 
ATOM     17  C   UNL     1      32.900 -19.589 -21.097  0.00  0.00    +0.031 C 
ENDBRANCH   4  11
BRANCH   1  18
ATOM     18  C   UNL     1      34.977 -23.732 -13.884  0.00  0.00    +0.060 C 
ATOM     19  C   UNL     1      35.889 -23.644 -12.645  0.00  0.00    -0.047 C 
ATOM     20  C   UNL     1      35.623 -24.573 -14.990  0.00  0.00    +0.018 C 
ATOM     21  C   UNL     1      36.350 -25.023 -12.154  0.00  0.00    -0.020 C 
ATOM     22  C   UNL     1      36.089 -25.943 -14.495  0.00  0.00    +0.002 C 
ATOM     23  C   UNL     1      37.001 -25.825 -13.278  0.00  0.00    -0.002 C 
BRANCH  19  24
ATOM     24  N   UNL     1      35.241 -22.914 -11.555  0.00  0.00    +0.383 N 
ATOM     25  H   UNL     1      35.301 -21.911 -11.733  0.00  0.00    -0.089 HD
ATOM     26  H   UNL     1      35.710 -23.131 -10.675  0.00  0.00    -0.089 HD
ATOM     27  H   UNL     1      34.261 -23.192 -11.495  0.00  0.00    -0.089 HD
ENDBRANCH  19  24
ENDBRANCH   1  18
BRANCH   8  30
ATOM     28  O   UNL     1      28.766 -22.023 -16.790  0.00  0.00    -0.270 OA
ATOM     29  N   UNL     1      28.035 -24.152 -16.346  0.00  0.00    -0.325 N 
ATOM     30  C   UNL     1      28.980 -23.132 -16.268  0.00  0.00    +0.248 C 
ATOM     31  H   UNL     1      27.180 -23.995 -16.807  0.00  0.00    +0.145 HD
ATOM     32  H   UNL     1      28.222 -25.028 -15.940  0.00  0.00    +0.145 HD
ENDBRANCH   8  30
TORSDOF 4
ENDMDL
MODEL 3
REMARK VINA RESULT:      -9.6      1.849      6.123
REMARK  Name = 11493841
REMARK  4 active torsions:
REMARK  status: ('A' for Active; 'I' for Inactive)
REMARK    1  A    between atoms: N_1  and  C_18
REMARK    2  A    between atoms: N_4  and  C_11
REMARK    3  A    between atoms: C_8  and  C_30
REMARK    4  A    between atoms: C_19  and  N_24
REMARK                            x       y       z     vdW  Elec       q    Type
REMARK                         _______ _______ _______ _____ _____    ______ ____
ROOT
ATOM      1  N   UNL     1      31.070 -23.232 -16.481  0.00  0.00    -0.272 N 
ATOM      2  N   UNL     1      33.306 -22.871 -15.869  0.00  0.00    -0.322 NA
ATOM      3  N   UNL     1      32.495 -22.212 -18.041  0.00  0.00    -0.170 NA
ATOM      4  N   UNL     1      35.569 -22.496 -15.273  0.00  0.00    -0.287 N 
ATOM      5  C   UNL     1      32.306 -22.767 -16.801  0.00  0.00    +0.146 C 
ATOM      6  C   UNL     1      34.520 -22.397 -16.220  0.00  0.00    +0.202 C 
ATOM      7  C   UNL     1      33.733 -21.758 -18.324  0.00  0.00    +0.120 C 
ATOM      8  C   UNL     1      34.795 -21.825 -17.445  0.00  0.00    +0.118 C 
ATOM      9  H   UNL     1      30.356 -23.153 -17.154  0.00  0.00    +0.159 HD
ATOM     10  H   UNL     1      36.242 -21.781 -15.349  0.00  0.00    +0.155 HD
ENDROOT
BRANCH   4  11
ATOM     11  C   UNL     1      35.836 -23.418 -14.248  0.00  0.00    +0.050 C 
ATOM     12  C   UNL     1      35.595 -23.076 -12.914  0.00  0.00    +0.010 C 
ATOM     13  C   UNL     1      36.345 -24.683 -14.554  0.00  0.00    +0.015 C 
ATOM     14  C   UNL     1      35.859 -23.992 -11.896  0.00  0.00    -0.021 C 
ATOM     15  C   UNL     1      36.609 -25.599 -13.536  0.00  0.00    +0.001 C 
ATOM     16  C   UNL     1      36.367 -25.253 -12.207  0.00  0.00    -0.004 C 
ATOM     17  C   UNL     1      35.601 -23.623 -10.474  0.00  0.00    +0.031 C 
ENDBRANCH   4  11
BRANCH   1  18
ATOM     18  C   UNL     1      30.740 -23.842 -15.205  0.00  0.00    +0.060 C 
ATOM     19  C   UNL     1      30.327 -22.785 -14.163  0.00  0.00    -0.047 C 
ATOM     20  C   UNL     1      29.632 -24.880 -15.411  0.00  0.00    +0.018 C 
ATOM     21  C   UNL     1      28.965 -22.150 -14.477  0.00  0.00    -0.020 C 
ATOM     22  C   UNL     1      28.274 -24.245 -15.714  0.00  0.00    +0.002 C 
ATOM     23  C   UNL     1      27.884 -23.213 -14.660  0.00  0.00    -0.002 C 
BRANCH  19  24
ATOM     24  N   UNL     1      31.345 -21.742 -14.026  0.00  0.00    +0.383 N 
ATOM     25  H   UNL     1      32.236 -22.089 -14.383  0.00  0.00    -0.089 HD
ATOM     26  H   UNL     1      31.447 -21.494 -13.042  0.00  0.00    -0.089 HD
ATOM     27  H   UNL     1      31.062 -20.919 -14.558  0.00  0.00    -0.089 HD
ENDBRANCH  19  24
ENDBRANCH   1  18
BRANCH   8  30
ATOM     28  O   UNL     1      37.117 -21.564 -17.151  0.00  0.00    -0.270 OA
ATOM     29  N   UNL     1      36.187 -20.549 -18.985  0.00  0.00    -0.325 N 
ATOM     30  C   UNL     1      36.102 -21.314 -17.826  0.00  0.00    +0.248 C 
ATOM     31  H   UNL     1      37.055 -20.186 -19.273  0.00  0.00    +0.145 HD
ATOM     32  H   UNL     1      35.378 -20.370 -19.516  0.00  0.00    +0.145 HD
ENDBRANCH   8  30
TORSDOF 4
ENDMDL
MODEL 4
REMARK VINA RESULT:      -9.4      1.815      6.185
REMARK  Name = 11493841
REMARK  4 active torsions:
REMARK  status: ('A' for Active; 'I' for Inactive)
REMARK    1  A    between atoms: N_1  and  C_18
REMARK    2  A    between atoms: N_4  and  C_11
REMARK    3  A    between atoms: C_8  and  C_30
REMARK    4  A    between atoms: C_19  and  N_24
REMARK                            x       y       z     vdW  Elec       q    Type
REMARK                         _______ _______ _______ _____ _____    ______ ____
ROOT
ATOM      1  N   UNL     1      30.980 -23.182 -16.590  0.00  0.00    -0.272 N 
ATOM      2  N   UNL     1      33.220 -22.788 -16.012  0.00  0.00    -0.322 NA
ATOM      3  N   UNL     1      32.378 -22.181 -18.188  0.00  0.00    -0.170 NA
ATOM      4  N   UNL     1      35.487 -22.381 -15.451  0.00  0.00    -0.287 N 
ATOM      5  C   UNL     1      32.209 -22.712 -16.935  0.00  0.00    +0.146 C 
ATOM      6  C   UNL     1      34.425 -22.311 -16.387  0.00  0.00    +0.202 C 
ATOM      7  C   UNL     1      33.608 -21.723 -18.495  0.00  0.00    +0.120 C 
ATOM      8  C   UNL     1      34.681 -21.762 -17.628  0.00  0.00    +0.118 C 
ATOM      9  H   UNL     1      30.258 -23.123 -17.256  0.00  0.00    +0.159 HD
ATOM     10  H   UNL     1      36.152 -21.662 -15.550  0.00  0.00    +0.155 HD
ENDROOT
BRANCH   4  11
ATOM     11  C   UNL     1      35.774 -23.279 -14.410  0.00  0.00    +0.050 C 
ATOM     12  C   UNL     1      36.229 -24.569 -14.699  0.00  0.00    +0.010 C 
ATOM     13  C   UNL     1      35.608 -22.888 -13.078  0.00  0.00    +0.015 C 
ATOM     14  C   UNL     1      36.515 -25.460 -13.664  0.00  0.00    -0.021 C 
ATOM     15  C   UNL     1      35.894 -23.779 -12.044  0.00  0.00    +0.001 C 
ATOM     16  C   UNL     1      36.347 -25.065 -12.337  0.00  0.00    -0.004 C 
ATOM     17  C   UNL     1      36.999 -26.835 -13.977  0.00  0.00    +0.031 C 
ENDBRANCH   4  11
BRANCH   1  18
ATOM     18  C   UNL     1      30.671 -23.768 -15.297  0.00  0.00    +0.060 C 
ATOM     19  C   UNL     1      30.273 -22.691 -14.269  0.00  0.00    -0.047 C 
ATOM     20  C   UNL     1      29.560 -24.809 -15.467  0.00  0.00    +0.018 C 
ATOM     21  C   UNL     1      28.907 -22.062 -14.574  0.00  0.00    -0.020 C 
ATOM     22  C   UNL     1      28.197 -24.180 -15.760  0.00  0.00    +0.002 C 
ATOM     23  C   UNL     1      27.824 -23.128 -14.719  0.00  0.00    -0.002 C 
BRANCH  19  24
ATOM     24  N   UNL     1      31.293 -21.646 -14.168  0.00  0.00    +0.383 N 
ATOM     25  H   UNL     1      31.092 -21.051 -13.364  0.00  0.00    -0.089 HD
ATOM     26  H   UNL     1      31.287 -21.082 -15.018  0.00  0.00    -0.089 HD
ATOM     27  H   UNL     1      32.211 -22.076 -14.053  0.00  0.00    -0.089 HD
ENDBRANCH  19  24
ENDBRANCH   1  18
BRANCH   8  30
ATOM     28  O   UNL     1      37.008 -21.495 -17.379  0.00  0.00    -0.270 OA
ATOM     29  N   UNL     1      36.038 -20.483 -19.195  0.00  0.00    -0.325 N 
ATOM     30  C   UNL     1      35.979 -21.249 -18.034  0.00  0.00    +0.248 C 
ATOM     31  H   UNL     1      36.900 -20.119 -19.500  0.00  0.00    +0.145 HD
ATOM     32  H   UNL     1      35.219 -20.307 -19.711  0.00  0.00    +0.145 HD
ENDBRANCH   8  30
TORSDOF 4
ENDMDL
