MODEL 1
REMARK VINA RESULT:     -12.7      0.000      0.000
REMARK  Name = 118161062
REMARK  4 active torsions:
REMARK  status: ('A' for Active; 'I' for Inactive)
REMARK    1  A    between atoms: N_1  and  C_26
REMARK    2  A    between atoms: C_7  and  C_15
REMARK    3  A    between atoms: C_21  and  N_28
REMARK    4  A    between atoms: N_27  and  C_35
REMARK                            x       y       z     vdW  Elec       q    Type
REMARK                         _______ _______ _______ _____ _____    ______ ____
ROOT
ATOM      1  N   UNL     1      35.644 -22.816 -16.029  0.00  0.00    -0.286 N 
ATOM      2  N   UNL     1      34.220 -23.677 -12.724  0.00  0.00    -0.260 N 
ATOM      3  N   UNL     1      33.449 -23.231 -15.344  0.00  0.00    -0.384 NA
ATOM      4  N   UNL     1      36.369 -23.317 -13.200  0.00  0.00    -0.224 NA
ATOM      5  C   UNL     1      34.731 -23.133 -15.051  0.00  0.00    +0.216 C 
ATOM      6  C   UNL     1      35.150 -23.367 -13.682  0.00  0.00    +0.180 C 
ATOM      7  C   UNL     1      32.533 -23.555 -14.345  0.00  0.00    +0.162 C 
ATOM      8  C   UNL     1      32.886 -23.770 -13.058  0.00  0.00    +0.159 C 
ATOM      9  C   UNL     1      34.893 -23.834 -11.545  0.00  0.00    +0.088 C 
ATOM     10  C   UNL     1      36.216 -23.608 -11.864  0.00  0.00    +0.117 C 
ATOM     11  H   UNL     1      36.550 -23.182 -15.913  0.00  0.00    +0.155 HD
ENDROOT
BRANCH   7  15
ATOM     12  N   UNL     1      30.358 -24.569 -14.119  0.00  0.00    -0.386 NA
ATOM     13  N   UNL     1      29.288 -22.850 -16.061  0.00  0.00    -0.257 NA
ATOM     14  N   UNL     1      28.206 -25.579 -13.891  0.00  0.00    -0.335 N 
ATOM     15  C   UNL     1      31.107 -23.635 -14.737  0.00  0.00    +0.178 C 
ATOM     16  C   UNL     1      30.582 -22.790 -15.690  0.00  0.00    +0.128 C 
ATOM     17  C   UNL     1      29.063 -24.628 -14.489  0.00  0.00    +0.179 C 
ATOM     18  C   UNL     1      28.537 -23.784 -15.443  0.00  0.00    +0.199 C 
ATOM     19  H   UNL     1      28.555 -26.195 -13.207  0.00  0.00    +0.144 HD
ATOM     20  H   UNL     1      27.260 -25.626 -14.159  0.00  0.00    +0.144 HD
ENDBRANCH   7  15
BRANCH   1  26
ATOM     21  C   UNL     1      35.022 -20.472 -19.459  0.00  0.00    +0.048 C 
ATOM     22  C   UNL     1      34.020 -21.332 -19.011  0.00  0.00    +0.016 C 
ATOM     23  C   UNL     1      36.231 -20.390 -18.768  0.00  0.00    +0.016 C 
ATOM     24  C   UNL     1      34.225 -22.110 -17.872  0.00  0.00    +0.016 C 
ATOM     25  C   UNL     1      36.437 -21.168 -17.628  0.00  0.00    +0.016 C 
ATOM     26  C   UNL     1      35.435 -22.028 -17.180  0.00  0.00    +0.050 C 
BRANCH  21  28
ATOM     27  N   UNL     1      34.348 -17.898 -22.771  0.00  0.00    +0.394 N 
ATOM     28  N   UNL     1      34.815 -19.692 -20.602  0.00  0.00    -0.312 N 
ATOM     29  C   UNL     1      35.720 -18.224 -22.363  0.00  0.00    -0.055 C 
ATOM     30  C   UNL     1      33.478 -19.063 -22.573  0.00  0.00    -0.055 C 
ATOM     31  C   UNL     1      35.770 -18.612 -20.884  0.00  0.00    +0.068 C 
ATOM     32  C   UNL     1      33.452 -19.481 -21.102  0.00  0.00    +0.068 C 
ATOM     33  H   UNL     1      34.005 -17.123 -22.204  0.00  0.00    -0.079 HD
BRANCH  27  35
ATOM     34  O   UNL     1      32.703 -16.503 -25.112  0.00  0.00    -0.358 OA
ATOM     35  C   UNL     1      34.339 -17.519 -24.194  0.00  0.00    +0.002 C 
ATOM     36  C   UNL     1      32.988 -17.892 -24.804  0.00  0.00    +0.124 C 
ATOM     37  C   UNL     1      33.843 -16.078 -24.322  0.00  0.00    +0.124 C 
ENDBRANCH  27  35
ENDBRANCH  21  28
ENDBRANCH   1  26
TORSDOF 4
ENDMDL
MODEL 2
REMARK VINA RESULT:     -11.6      1.225      1.817
REMARK  Name = 118161062
REMARK  4 active torsions:
REMARK  status: ('A' for Active; 'I' for Inactive)
REMARK    1  A    between atoms: N_1  and  C_26
REMARK    2  A    between atoms: C_7  and  C_15
REMARK    3  A    between atoms: C_21  and  N_28
REMARK    4  A    between atoms: N_27  and  C_35
REMARK                            x       y       z     vdW  Elec       q    Type
REMARK                         _______ _______ _______ _____ _____    ______ ____
ROOT
ATOM      1  N   UNL     1      35.653 -22.257 -17.179  0.00  0.00    -0.286 N 
ATOM      2  N   UNL     1      34.459 -23.360 -13.854  0.00  0.00    -0.260 N 
ATOM      3  N   UNL     1      33.504 -22.670 -16.360  0.00  0.00    -0.384 NA
ATOM      4  N   UNL     1      36.575 -23.016 -14.467  0.00  0.00    -0.224 NA
ATOM      5  C   UNL     1      34.807 -22.632 -16.162  0.00  0.00    +0.216 C 
ATOM      6  C   UNL     1      35.321 -22.993 -14.854  0.00  0.00    +0.180 C 
ATOM      7  C   UNL     1      32.657 -23.055 -15.321  0.00  0.00    +0.162 C 
ATOM      8  C   UNL     1      33.100 -23.389 -14.088  0.00  0.00    +0.159 C 
ATOM      9  C   UNL     1      35.214 -23.635 -12.749  0.00  0.00    +0.088 C 
ATOM     10  C   UNL     1      36.515 -23.417 -13.153  0.00  0.00    +0.117 C 
ATOM     11  H   UNL     1      36.552 -22.655 -17.165  0.00  0.00    +0.155 HD
ENDROOT
BRANCH   7  15
ATOM     12  N   UNL     1      30.453 -23.944 -14.913  0.00  0.00    -0.386 NA
ATOM     13  N   UNL     1      29.334 -22.205 -16.807  0.00  0.00    -0.257 NA
ATOM     14  N   UNL     1      28.274 -24.830 -14.504  0.00  0.00    -0.335 N 
ATOM     15  C   UNL     1      31.203 -23.064 -15.604  0.00  0.00    +0.178 C 
ATOM     16  C   UNL     1      30.654 -22.209 -16.535  0.00  0.00    +0.128 C 
ATOM     17  C   UNL     1      29.133 -23.939 -15.184  0.00  0.00    +0.179 C 
ATOM     18  C   UNL     1      28.583 -23.084 -16.115  0.00  0.00    +0.199 C 
ATOM     19  H   UNL     1      28.641 -25.452 -13.833  0.00  0.00    +0.144 HD
ATOM     20  H   UNL     1      27.309 -24.830 -14.699  0.00  0.00    +0.144 HD
ENDBRANCH   7  15
BRANCH   1  26
ATOM     21  C   UNL     1      34.845 -19.606 -20.336  0.00  0.00    +0.048 C 
ATOM     22  C   UNL     1      36.104 -19.613 -19.736  0.00  0.00    +0.016 C 
ATOM     23  C   UNL     1      33.853 -20.478 -19.886  0.00  0.00    +0.016 C 
ATOM     24  C   UNL     1      36.373 -20.494 -18.689  0.00  0.00    +0.016 C 
ATOM     25  C   UNL     1      34.123 -21.359 -18.839  0.00  0.00    +0.016 C 
ATOM     26  C   UNL     1      35.382 -21.368 -18.240  0.00  0.00    +0.050 C 
BRANCH  21  28
ATOM     27  N   UNL     1      34.249 -17.004 -23.641  0.00  0.00    +0.394 N 
ATOM     28  N   UNL     1      34.575 -18.722 -21.386  0.00  0.00    -0.312 N 
ATOM     29  C   UNL     1      33.517 -18.275 -23.567  0.00  0.00    -0.055 C 
ATOM     30  C   UNL     1      34.405 -16.439 -22.297  0.00  0.00    -0.055 C 
ATOM     31  C   UNL     1      34.273 -19.289 -22.706  0.00  0.00    +0.068 C 
ATOM     32  C   UNL     1      35.191 -17.391 -21.392  0.00  0.00    +0.068 C 
ATOM     33  H   UNL     1      35.170 -17.172 -24.045  0.00  0.00    -0.079 HD
BRANCH  27  35
ATOM     34  O   UNL     1      33.760 -13.943 -24.365  0.00  0.00    -0.358 OA
ATOM     35  C   UNL     1      33.498 -16.058 -24.484  0.00  0.00    +0.002 C 
ATOM     36  C   UNL     1      32.983 -14.911 -23.614  0.00  0.00    +0.124 C 
ATOM     37  C   UNL     1      34.466 -15.014 -25.042  0.00  0.00    +0.124 C 
ENDBRANCH  27  35
ENDBRANCH  21  28
ENDBRANCH   1  26
TORSDOF 4
ENDMDL
MODEL 3
REMARK VINA RESULT:     -10.3      9.465     16.812
REMARK  Name = 118161062
REMARK  4 active torsions:
REMARK  status: ('A' for Active; 'I' for Inactive)
REMARK    1  A    between atoms: N_1  and  C_26
REMARK    2  A    between atoms: C_7  and  C_15
REMARK    3  A    between atoms: C_21  and  N_28
REMARK    4  A    between atoms: N_27  and  C_35
REMARK                            x       y       z     vdW  Elec       q    Type
REMARK                         _______ _______ _______ _____ _____    ______ ____
ROOT
ATOM      1  N   UNL     1      30.413  -7.517 -22.567  0.00  0.00    -0.286 N 
ATOM      2  N   UNL     1      31.089  -3.917 -23.101  0.00  0.00    -0.260 N 
ATOM      3  N   UNL     1      31.728  -6.401 -24.143  0.00  0.00    -0.384 NA
ATOM      4  N   UNL     1      29.786  -4.813 -21.528  0.00  0.00    -0.224 NA
ATOM      5  C   UNL     1      30.917  -6.356 -23.105  0.00  0.00    +0.216 C 
ATOM      6  C   UNL     1      30.571  -5.060 -22.550  0.00  0.00    +0.180 C 
ATOM      7  C   UNL     1      32.230  -5.217 -24.682  0.00  0.00    +0.162 C 
ATOM      8  C   UNL     1      31.938  -3.994 -24.185  0.00  0.00    +0.159 C 
ATOM      9  C   UNL     1      30.602  -2.865 -22.378  0.00  0.00    +0.088 C 
ATOM     10  C   UNL     1      29.801  -3.443 -21.415  0.00  0.00    +0.117 C 
ATOM     11  H   UNL     1      29.526  -7.452 -22.146  0.00  0.00    +0.155 HD
ENDROOT
BRANCH   7  15
ATOM     12  N   UNL     1      32.583  -5.548 -27.043  0.00  0.00    -0.386 NA
ATOM     13  N   UNL     1      35.362  -5.347 -26.719  0.00  0.00    -0.257 NA
ATOM     14  N   UNL     1      32.925  -5.879 -29.383  0.00  0.00    -0.335 N 
ATOM     15  C   UNL     1      33.147  -5.337 -25.838  0.00  0.00    +0.178 C 
ATOM     16  C   UNL     1      34.512  -5.238 -25.678  0.00  0.00    +0.128 C 
ATOM     17  C   UNL     1      33.433  -5.657 -28.084  0.00  0.00    +0.179 C 
ATOM     18  C   UNL     1      34.798  -5.557 -27.925  0.00  0.00    +0.199 C 
ATOM     19  H   UNL     1      31.953  -5.953 -29.526  0.00  0.00    +0.144 HD
ATOM     20  H   UNL     1      33.542  -5.958 -30.146  0.00  0.00    +0.144 HD
ENDBRANCH   7  15
BRANCH   1  26
ATOM     21  C   UNL     1      32.215 -11.311 -22.512  0.00  0.00    +0.048 C 
ATOM     22  C   UNL     1      32.730 -10.306 -23.331  0.00  0.00    +0.016 C 
ATOM     23  C   UNL     1      31.102 -11.055 -21.711  0.00  0.00    +0.016 C 
ATOM     24  C   UNL     1      32.133  -9.046 -23.349  0.00  0.00    +0.016 C 
ATOM     25  C   UNL     1      30.504  -9.795 -21.729  0.00  0.00    +0.016 C 
ATOM     26  C   UNL     1      31.019  -8.790 -22.548  0.00  0.00    +0.050 C 
BRANCH  21  28
ATOM     27  N   UNL     1      33.797 -15.253 -22.509  0.00  0.00    +0.394 N 
ATOM     28  N   UNL     1      32.815 -12.575 -22.495  0.00  0.00    -0.312 N 
ATOM     29  C   UNL     1      33.946 -14.405 -23.698  0.00  0.00    -0.055 C 
ATOM     30  C   UNL     1      33.897 -14.435 -21.295  0.00  0.00    -0.055 C 
ATOM     31  C   UNL     1      32.848 -13.341 -23.747  0.00  0.00    +0.068 C 
ATOM     32  C   UNL     1      32.797 -13.371 -21.263  0.00  0.00    +0.068 C 
ATOM     33  H   UNL     1      32.885 -15.708 -22.533  0.00  0.00    -0.079 HD
BRANCH  27  35
ATOM     34  O   UNL     1      34.551 -18.268 -21.817  0.00  0.00    -0.358 OA
ATOM     35  C   UNL     1      34.863 -16.270 -22.499  0.00  0.00    +0.002 C 
ATOM     36  C   UNL     1      34.842 -17.007 -21.160  0.00  0.00    +0.124 C 
ATOM     37  C   UNL     1      34.309 -17.577 -23.069  0.00  0.00    +0.124 C 
ENDBRANCH  27  35
ENDBRANCH  21  28
ENDBRANCH   1  26
TORSDOF 4
ENDMDL
