MODEL 1
REMARK VINA RESULT:     -10.7      0.000      0.000
REMARK  Name = 23586040
REMARK  9 active torsions:
REMARK  status: ('A' for Active; 'I' for Inactive)
REMARK    1  A    between atoms: C_3  and  C_10
REMARK    2  A    between atoms: C_7  and  C_22
REMARK    3  A    between atoms: N_9  and  C_12
REMARK    4  A    between atoms: C_12  and  C_13
REMARK    5  A    between atoms: C_13  and  N_14
REMARK    6  A    between atoms: N_14  and  C_17
REMARK    7  A    between atoms: C_22  and  N_23
REMARK    8  A    between atoms: C_22  and  C_27
REMARK    9  A    between atoms: C_27  and  C_28
REMARK                            x       y       z     vdW  Elec       q    Type
REMARK                         _______ _______ _______ _____ _____    ______ ____
ROOT
ATOM      1  O   UNL     1      36.278 -21.244 -18.635  0.00  0.00    -0.277 OA
ATOM      2  N   UNL     1      34.541 -22.037 -17.329  0.00  0.00    -0.275 N 
ATOM      3  C   UNL     1      33.695 -22.483 -18.428  0.00  0.00    +0.152 C 
ATOM      4  C   UNL     1      32.651 -23.380 -17.774  0.00  0.00    +0.031 C 
ATOM      5  C   UNL     1      32.525 -22.808 -16.364  0.00  0.00    +0.024 C 
ATOM      6  C   UNL     1      33.944 -22.370 -16.037  0.00  0.00    +0.094 C 
ATOM      7  C   UNL     1      35.808 -21.513 -17.528  0.00  0.00    +0.206 C 
ENDROOT
BRANCH   3  10
ATOM      8  O   UNL     1      31.917 -20.935 -18.800  0.00  0.00    -0.273 OA
ATOM      9  N   UNL     1      33.951 -20.597 -19.880  0.00  0.00    -0.301 N 
ATOM     10  C   UNL     1      33.078 -21.260 -19.037  0.00  0.00    +0.241 C 
ATOM     11  H   UNL     1      34.861 -20.955 -19.989  0.00  0.00    +0.150 HD
BRANCH   9  12
ATOM     12  C   UNL     1      33.591 -19.401 -20.607  0.00  0.00    +0.111 C 
BRANCH  12  13
ATOM     13  C   UNL     1      34.792 -18.752 -21.279  0.00  0.00    +0.109 C 
BRANCH  13  14
ATOM     14  N   UNL     1      34.935 -17.383 -20.841  0.00  0.00    -0.331 N 
ATOM     15  H   UNL     1      35.324 -17.218 -19.952  0.00  0.00    +0.147 HD
BRANCH  14  17
ATOM     16  N   UNL     1      33.781 -14.063 -23.149  0.00  0.00    -0.242 NA
ATOM     17  C   UNL     1      34.555 -16.289 -21.601  0.00  0.00    +0.048 C 
ATOM     18  C   UNL     1      34.615 -16.328 -23.002  0.00  0.00    +0.035 C 
ATOM     19  C   UNL     1      34.098 -15.111 -20.994  0.00  0.00    +0.035 C 
ATOM     20  C   UNL     1      34.223 -15.207 -23.717  0.00  0.00    +0.100 C 
ATOM     21  C   UNL     1      33.729 -14.045 -21.799  0.00  0.00    +0.100 C 
ENDBRANCH  14  17
ENDBRANCH  13  14
ENDBRANCH  12  13
ENDBRANCH   9  12
ENDBRANCH   3  10
BRANCH   7  22
ATOM     22  C   UNL     1      36.614 -21.266 -16.279  0.00  0.00    +0.018 C 
BRANCH  22  23
ATOM     23  N   UNL     1      37.248 -19.969 -16.478  0.00  0.00    +0.388 N 
ATOM     24  H   UNL     1      36.815 -19.281 -15.863  0.00  0.00    -0.089 HD
ATOM     25  H   UNL     1      37.130 -19.679 -17.449  0.00  0.00    -0.089 HD
ATOM     26  H   UNL     1      38.242 -20.040 -16.262  0.00  0.00    -0.089 HD
ENDBRANCH  22  23
BRANCH  22  27
ATOM     27  C   UNL     1      37.655 -22.366 -16.065  0.00  0.00    +0.013 C 
BRANCH  27  28
ATOM     28  C   UNL     1      37.499 -23.066 -14.736  0.00  0.00    -0.024 C 
ATOM     29  C   UNL     1      36.626 -22.546 -13.794  0.00  0.00    -0.004 C 
ATOM     30  C   UNL     1      38.231 -24.215 -14.484  0.00  0.00    -0.004 C 
ATOM     31  C   UNL     1      36.482 -23.191 -12.566  0.00  0.00    -0.000 C 
ATOM     32  C   UNL     1      38.087 -24.860 -13.256  0.00  0.00    -0.000 C 
ATOM     33  C   UNL     1      37.213 -24.349 -12.297  0.00  0.00    -0.000 C 
ENDBRANCH  27  28
ENDBRANCH  22  27
ENDBRANCH   7  22
TORSDOF 9
ENDMDL
MODEL 2
REMARK VINA RESULT:     -10.5      5.463     12.369
REMARK  Name = 23586040
REMARK  9 active torsions:
REMARK  status: ('A' for Active; 'I' for Inactive)
REMARK    1  A    between atoms: C_3  and  C_10
REMARK    2  A    between atoms: C_7  and  C_22
REMARK    3  A    between atoms: N_9  and  C_12
REMARK    4  A    between atoms: C_12  and  C_13
REMARK    5  A    between atoms: C_13  and  N_14
REMARK    6  A    between atoms: N_14  and  C_17
REMARK    7  A    between atoms: C_22  and  N_23
REMARK    8  A    between atoms: C_22  and  C_27
REMARK    9  A    between atoms: C_27  and  C_28
REMARK                            x       y       z     vdW  Elec       q    Type
REMARK                         _______ _______ _______ _____ _____    ______ ____
ROOT
ATOM      1  O   UNL     1      32.872 -10.493 -23.490  0.00  0.00    -0.277 OA
ATOM      2  N   UNL     1      32.532 -12.026 -21.792  0.00  0.00    -0.275 N 
ATOM      3  C   UNL     1      33.618 -12.926 -22.159  0.00  0.00    +0.152 C 
ATOM      4  C   UNL     1      33.806 -13.822 -20.941  0.00  0.00    +0.031 C 
ATOM      5  C   UNL     1      32.414 -13.870 -20.316  0.00  0.00    +0.024 C 
ATOM      6  C   UNL     1      31.872 -12.471 -20.566  0.00  0.00    +0.094 C 
ATOM      7  C   UNL     1      32.295 -10.834 -22.457  0.00  0.00    +0.206 C 
ENDROOT
BRANCH   3  10
ATOM      8  O   UNL     1      32.270 -13.291 -24.095  0.00  0.00    -0.273 OA
ATOM      9  N   UNL     1      33.842 -14.900 -23.495  0.00  0.00    -0.301 N 
ATOM     10  C   UNL     1      33.163 -13.702 -23.358  0.00  0.00    +0.241 C 
ATOM     11  H   UNL     1      34.542 -15.120 -22.838  0.00  0.00    +0.150 HD
BRANCH   9  12
ATOM     12  C   UNL     1      33.575 -15.842 -24.557  0.00  0.00    +0.111 C 
BRANCH  12  13
ATOM     13  C   UNL     1      33.930 -17.268 -24.165  0.00  0.00    +0.109 C 
BRANCH  13  14
ATOM     14  N   UNL     1      35.037 -17.274 -23.237  0.00  0.00    -0.331 N 
ATOM     15  H   UNL     1      35.762 -16.624 -23.375  0.00  0.00    +0.147 HD
BRANCH  14  17
ATOM     16  N   UNL     1      35.336 -19.917 -19.980  0.00  0.00    -0.242 NA
ATOM     17  C   UNL     1      35.136 -18.145 -22.165  0.00  0.00    +0.048 C 
ATOM     18  C   UNL     1      36.301 -18.204 -21.386  0.00  0.00    +0.035 C 
ATOM     19  C   UNL     1      34.072 -18.994 -21.824  0.00  0.00    +0.035 C 
ATOM     20  C   UNL     1      36.349 -19.092 -20.324  0.00  0.00    +0.100 C 
ATOM     21  C   UNL     1      34.220 -19.846 -20.740  0.00  0.00    +0.100 C 
ENDBRANCH  14  17
ENDBRANCH  13  14
ENDBRANCH  12  13
ENDBRANCH   9  12
ENDBRANCH   3  10
BRANCH   7  22
ATOM     22  C   UNL     1      31.248  -9.942 -21.839  0.00  0.00    +0.018 C 
BRANCH  22  23
ATOM     23  N   UNL     1      30.030 -10.742 -21.808  0.00  0.00    +0.388 N 
ATOM     24  H   UNL     1      29.894 -11.190 -22.714  0.00  0.00    -0.089 HD
ATOM     25  H   UNL     1      29.233 -10.139 -21.604  0.00  0.00    -0.089 HD
ATOM     26  H   UNL     1      30.111 -11.456 -21.085  0.00  0.00    -0.089 HD
ENDBRANCH  22  23
BRANCH  22  27
ATOM     27  C   UNL     1      31.053  -8.667 -22.661  0.00  0.00    +0.013 C 
BRANCH  27  28
ATOM     28  C   UNL     1      31.250  -7.412 -21.844  0.00  0.00    -0.024 C 
ATOM     29  C   UNL     1      32.042  -7.459 -20.709  0.00  0.00    -0.004 C 
ATOM     30  C   UNL     1      30.635  -6.238 -22.246  0.00  0.00    -0.004 C 
ATOM     31  C   UNL     1      32.225  -6.301 -19.954  0.00  0.00    -0.000 C 
ATOM     32  C   UNL     1      30.817  -5.079 -21.492  0.00  0.00    -0.000 C 
ATOM     33  C   UNL     1      31.611  -5.110 -20.345  0.00  0.00    -0.000 C 
ENDBRANCH  27  28
ENDBRANCH  22  27
ENDBRANCH   7  22
TORSDOF 9
ENDMDL
MODEL 3
REMARK VINA RESULT:     -10.3      3.734      7.397
REMARK  Name = 23586040
REMARK  9 active torsions:
REMARK  status: ('A' for Active; 'I' for Inactive)
REMARK    1  A    between atoms: C_3  and  C_10
REMARK    2  A    between atoms: C_7  and  C_22
REMARK    3  A    between atoms: N_9  and  C_12
REMARK    4  A    between atoms: C_12  and  C_13
REMARK    5  A    between atoms: C_13  and  N_14
REMARK    6  A    between atoms: N_14  and  C_17
REMARK    7  A    between atoms: C_22  and  N_23
REMARK    8  A    between atoms: C_22  and  C_27
REMARK    9  A    between atoms: C_27  and  C_28
REMARK                            x       y       z     vdW  Elec       q    Type
REMARK                         _______ _______ _______ _____ _____    ______ ____
ROOT
ATOM      1  O   UNL     1      35.670 -17.413 -20.676  0.00  0.00    -0.277 OA
ATOM      2  N   UNL     1      34.460 -16.941 -22.591  0.00  0.00    -0.275 N 
ATOM      3  C   UNL     1      34.827 -15.534 -22.677  0.00  0.00    +0.152 C 
ATOM      4  C   UNL     1      34.430 -15.116 -24.088  0.00  0.00    +0.031 C 
ATOM      5  C   UNL     1      33.256 -16.037 -24.414  0.00  0.00    +0.024 C 
ATOM      6  C   UNL     1      33.636 -17.342 -23.729  0.00  0.00    +0.094 C 
ATOM      7  C   UNL     1      34.978 -17.788 -21.624  0.00  0.00    +0.206 C 
ENDROOT
BRANCH   3  10
ATOM      8  O   UNL     1      33.997 -15.182 -20.467  0.00  0.00    -0.273 OA
ATOM      9  N   UNL     1      33.362 -13.713 -22.157  0.00  0.00    -0.301 N 
ATOM     10  C   UNL     1      34.034 -14.805 -21.636  0.00  0.00    +0.241 C 
ATOM     11  H   UNL     1      33.470 -13.509 -23.114  0.00  0.00    +0.150 HD
BRANCH   9  12
ATOM     12  C   UNL     1      32.509 -12.857 -21.364  0.00  0.00    +0.111 C 
BRANCH  12  13
ATOM     13  C   UNL     1      31.501 -12.101 -22.215  0.00  0.00    +0.109 C 
BRANCH  13  14
ATOM     14  N   UNL     1      30.654 -11.280 -21.382  0.00  0.00    -0.331 N 
ATOM     15  H   UNL     1      29.815 -11.669 -21.046  0.00  0.00    +0.147 HD
BRANCH  14  17
ATOM     16  N   UNL     1      31.570  -7.319 -20.309  0.00  0.00    -0.242 NA
ATOM     17  C   UNL     1      30.956  -9.975 -21.028  0.00  0.00    +0.048 C 
ATOM     18  C   UNL     1      31.130  -8.984 -22.006  0.00  0.00    +0.035 C 
ATOM     19  C   UNL     1      31.096  -9.605 -19.683  0.00  0.00    +0.035 C 
ATOM     20  C   UNL     1      31.431  -7.693 -21.600  0.00  0.00    +0.100 C 
ATOM     21  C   UNL     1      31.398  -8.286 -19.381  0.00  0.00    +0.100 C 
ENDBRANCH  14  17
ENDBRANCH  13  14
ENDBRANCH  12  13
ENDBRANCH   9  12
ENDBRANCH   3  10
BRANCH   7  22
ATOM     22  C   UNL     1      34.632 -19.247 -21.784  0.00  0.00    +0.018 C 
BRANCH  22  23
ATOM     23  N   UNL     1      34.467 -19.449 -23.218  0.00  0.00    +0.388 N 
ATOM     24  H   UNL     1      33.490 -19.302 -23.472  0.00  0.00    -0.089 HD
ATOM     25  H   UNL     1      34.742 -20.401 -23.460  0.00  0.00    -0.089 HD
ATOM     26  H   UNL     1      35.053 -18.786 -23.724  0.00  0.00    -0.089 HD
ENDBRANCH  22  23
BRANCH  22  27
ATOM     27  C   UNL     1      33.352 -19.598 -21.024  0.00  0.00    +0.013 C 
BRANCH  27  28
ATOM     28  C   UNL     1      33.605 -20.516 -19.851  0.00  0.00    -0.024 C 
ATOM     29  C   UNL     1      32.528 -21.094 -19.199  0.00  0.00    -0.004 C 
ATOM     30  C   UNL     1      34.908 -20.762 -19.451  0.00  0.00    -0.004 C 
ATOM     31  C   UNL     1      32.760 -21.941 -18.116  0.00  0.00    -0.000 C 
ATOM     32  C   UNL     1      35.140 -21.609 -18.367  0.00  0.00    -0.000 C 
ATOM     33  C   UNL     1      34.067 -22.198 -17.700  0.00  0.00    -0.000 C 
ENDBRANCH  27  28
ENDBRANCH  22  27
ENDBRANCH   7  22
TORSDOF 9
ENDMDL
MODEL 4
REMARK VINA RESULT:     -10.3      3.024      8.207
REMARK  Name = 23586040
REMARK  9 active torsions:
REMARK  status: ('A' for Active; 'I' for Inactive)
REMARK    1  A    between atoms: C_3  and  C_10
REMARK    2  A    between atoms: C_7  and  C_22
REMARK    3  A    between atoms: N_9  and  C_12
REMARK    4  A    between atoms: C_12  and  C_13
REMARK    5  A    between atoms: C_13  and  N_14
REMARK    6  A    between atoms: N_14  and  C_17
REMARK    7  A    between atoms: C_22  and  N_23
REMARK    8  A    between atoms: C_22  and  C_27
REMARK    9  A    between atoms: C_27  and  C_28
REMARK                            x       y       z     vdW  Elec       q    Type
REMARK                         _______ _______ _______ _____ _____    ______ ____
ROOT
ATOM      1  O   UNL     1      33.283 -23.464 -17.034  0.00  0.00    -0.277 OA
ATOM      2  N   UNL     1      35.205 -22.260 -16.578  0.00  0.00    -0.275 N 
ATOM      3  C   UNL     1      35.793 -23.225 -15.658  0.00  0.00    +0.152 C 
ATOM      4  C   UNL     1      37.248 -22.793 -15.521  0.00  0.00    +0.031 C 
ATOM      5  C   UNL     1      37.194 -21.285 -15.750  0.00  0.00    +0.024 C 
ATOM      6  C   UNL     1      36.105 -21.130 -16.802  0.00  0.00    +0.094 C 
ATOM      7  C   UNL     1      34.017 -22.498 -17.250  0.00  0.00    +0.206 C 
ENDROOT
BRANCH   3  10
ATOM      8  O   UNL     1      35.468 -22.411 -13.438  0.00  0.00    -0.273 OA
ATOM      9  N   UNL     1      33.902 -23.877 -14.342  0.00  0.00    -0.301 N 
ATOM     10  C   UNL     1      35.052 -23.107 -14.361  0.00  0.00    +0.241 C 
ATOM     11  H   UNL     1      33.671 -24.395 -15.147  0.00  0.00    +0.150 HD
BRANCH   9  12
ATOM     12  C   UNL     1      33.022 -23.955 -13.198  0.00  0.00    +0.111 C 
BRANCH  12  13
ATOM     13  C   UNL     1      31.853 -22.989 -13.303  0.00  0.00    +0.109 C 
BRANCH  13  14
ATOM     14  N   UNL     1      31.472 -22.807 -14.684  0.00  0.00    -0.331 N 
ATOM     15  H   UNL     1      32.159 -22.503 -15.320  0.00  0.00    +0.147 HD
BRANCH  14  17
ATOM     16  N   UNL     1      27.590 -23.504 -16.143  0.00  0.00    -0.242 NA
ATOM     17  C   UNL     1      30.193 -23.037 -15.165  0.00  0.00    +0.048 C 
ATOM     18  C   UNL     1      29.470 -24.176 -14.781  0.00  0.00    +0.035 C 
ATOM     19  C   UNL     1      29.581 -22.136 -16.049  0.00  0.00    +0.035 C 
ATOM     20  C   UNL     1      28.195 -24.360 -15.290  0.00  0.00    +0.100 C 
ATOM     21  C   UNL     1      28.299 -22.411 -16.500  0.00  0.00    +0.100 C 
ENDBRANCH  14  17
ENDBRANCH  13  14
ENDBRANCH  12  13
ENDBRANCH   9  12
ENDBRANCH   3  10
BRANCH   7  22
ATOM     22  C   UNL     1      33.644 -21.476 -18.293  0.00  0.00    +0.018 C 
BRANCH  22  23
ATOM     23  N   UNL     1      32.216 -21.660 -18.520  0.00  0.00    +0.388 N 
ATOM     24  H   UNL     1      31.755 -21.870 -17.635  0.00  0.00    -0.089 HD
ATOM     25  H   UNL     1      32.072 -22.434 -19.169  0.00  0.00    -0.089 HD
ATOM     26  H   UNL     1      31.821 -20.807 -18.914  0.00  0.00    -0.089 HD
ENDBRANCH  22  23
BRANCH  22  27
ATOM     27  C   UNL     1      34.441 -21.682 -19.581  0.00  0.00    +0.013 C 
BRANCH  27  28
ATOM     28  C   UNL     1      34.805 -20.380 -20.256  0.00  0.00    -0.024 C 
ATOM     29  C   UNL     1      36.078 -19.863 -20.088  0.00  0.00    -0.004 C 
ATOM     30  C   UNL     1      33.858 -19.730 -21.031  0.00  0.00    -0.004 C 
ATOM     31  C   UNL     1      36.415 -18.660 -20.710  0.00  0.00    -0.000 C 
ATOM     32  C   UNL     1      34.194 -18.529 -21.654  0.00  0.00    -0.000 C 
ATOM     33  C   UNL     1      35.472 -17.993 -21.493  0.00  0.00    -0.000 C 
ENDBRANCH  27  28
ENDBRANCH  22  27
ENDBRANCH   7  22
TORSDOF 9
ENDMDL
MODEL 5
REMARK VINA RESULT:      -9.9      3.132      6.439
REMARK  Name = 23586040
REMARK  9 active torsions:
REMARK  status: ('A' for Active; 'I' for Inactive)
REMARK    1  A    between atoms: C_3  and  C_10
REMARK    2  A    between atoms: C_7  and  C_22
REMARK    3  A    between atoms: N_9  and  C_12
REMARK    4  A    between atoms: C_12  and  C_13
REMARK    5  A    between atoms: C_13  and  N_14
REMARK    6  A    between atoms: N_14  and  C_17
REMARK    7  A    between atoms: C_22  and  N_23
REMARK    8  A    between atoms: C_22  and  C_27
REMARK    9  A    between atoms: C_27  and  C_28
REMARK                            x       y       z     vdW  Elec       q    Type
REMARK                         _______ _______ _______ _____ _____    ______ ____
ROOT
ATOM      1  O   UNL     1      35.030 -22.607 -13.429  0.00  0.00    -0.277 OA
ATOM      2  N   UNL     1      35.663 -24.658 -14.293  0.00  0.00    -0.275 N 
ATOM      3  C   UNL     1      37.007 -24.669 -13.731  0.00  0.00    +0.152 C 
ATOM      4  C   UNL     1      37.475 -26.112 -13.874  0.00  0.00    +0.031 C 
ATOM      5  C   UNL     1      36.723 -26.609 -15.106  0.00  0.00    +0.024 C 
ATOM      6  C   UNL     1      35.379 -25.904 -15.002  0.00  0.00    +0.094 C 
ATOM      7  C   UNL     1      34.753 -23.646 -14.031  0.00  0.00    +0.206 C 
ENDROOT
BRANCH   3  10
ATOM      8  O   UNL     1      39.064 -23.712 -14.475  0.00  0.00    -0.273 OA
ATOM      9  N   UNL     1      37.063 -22.908 -15.352  0.00  0.00    -0.301 N 
ATOM     10  C   UNL     1      37.838 -23.729 -14.552  0.00  0.00    +0.241 C 
ATOM     11  H   UNL     1      36.085 -23.016 -15.328  0.00  0.00    +0.150 HD
BRANCH   9  12
ATOM     12  C   UNL     1      37.621 -21.898 -16.222  0.00  0.00    +0.111 C 
BRANCH  12  13
ATOM     13  C   UNL     1      36.548 -21.031 -16.862  0.00  0.00    +0.109 C 
BRANCH  13  14
ATOM     14  N   UNL     1      36.010 -21.680 -18.035  0.00  0.00    -0.331 N 
ATOM     15  H   UNL     1      36.282 -22.607 -18.219  0.00  0.00    +0.147 HD
BRANCH  14  17
ATOM     16  N   UNL     1      33.342 -19.827 -20.705  0.00  0.00    -0.242 NA
ATOM     17  C   UNL     1      35.131 -21.070 -18.915  0.00  0.00    +0.048 C 
ATOM     18  C   UNL     1      33.753 -21.323 -18.851  0.00  0.00    +0.035 C 
ATOM     19  C   UNL     1      35.592 -20.179 -19.895  0.00  0.00    +0.035 C 
ATOM     20  C   UNL     1      32.916 -20.688 -19.755  0.00  0.00    +0.100 C 
ATOM     21  C   UNL     1      34.672 -19.594 -20.751  0.00  0.00    +0.100 C 
ENDBRANCH  14  17
ENDBRANCH  13  14
ENDBRANCH  12  13
ENDBRANCH   9  12
ENDBRANCH   3  10
BRANCH   7  22
ATOM     22  C   UNL     1      33.356 -23.879 -14.546  0.00  0.00    +0.018 C 
BRANCH  22  23
ATOM     23  N   UNL     1      33.298 -23.191 -15.829  0.00  0.00    +0.388 N 
ATOM     24  H   UNL     1      32.857 -22.280 -15.707  0.00  0.00    -0.089 HD
ATOM     25  H   UNL     1      32.753 -23.747 -16.489  0.00  0.00    -0.089 HD
ATOM     26  H   UNL     1      34.243 -23.064 -16.190  0.00  0.00    -0.089 HD
ENDBRANCH  22  23
BRANCH  22  27
ATOM     27  C   UNL     1      32.310 -23.330 -13.575  0.00  0.00    +0.013 C 
BRANCH  27  28
ATOM     28  C   UNL     1      30.897 -23.494 -14.085  0.00  0.00    -0.024 C 
ATOM     29  C   UNL     1      30.297 -24.740 -14.027  0.00  0.00    -0.004 C 
ATOM     30  C   UNL     1      30.230 -22.395 -14.601  0.00  0.00    -0.004 C 
ATOM     31  C   UNL     1      28.993 -24.894 -14.499  0.00  0.00    -0.000 C 
ATOM     32  C   UNL     1      28.927 -22.547 -15.073  0.00  0.00    -0.000 C 
ATOM     33  C   UNL     1      28.308 -23.796 -15.022  0.00  0.00    -0.000 C 
ENDBRANCH  27  28
ENDBRANCH  22  27
ENDBRANCH   7  22
TORSDOF 9
ENDMDL
MODEL 6
REMARK VINA RESULT:      -9.8      2.730      9.283
REMARK  Name = 23586040
REMARK  9 active torsions:
REMARK  status: ('A' for Active; 'I' for Inactive)
REMARK    1  A    between atoms: C_3  and  C_10
REMARK    2  A    between atoms: C_7  and  C_22
REMARK    3  A    between atoms: N_9  and  C_12
REMARK    4  A    between atoms: C_12  and  C_13
REMARK    5  A    between atoms: C_13  and  N_14
REMARK    6  A    between atoms: N_14  and  C_17
REMARK    7  A    between atoms: C_22  and  N_23
REMARK    8  A    between atoms: C_22  and  C_27
REMARK    9  A    between atoms: C_27  and  C_28
REMARK                            x       y       z     vdW  Elec       q    Type
REMARK                         _______ _______ _______ _____ _____    ______ ____
ROOT
ATOM      1  O   UNL     1      33.265 -23.212 -17.358  0.00  0.00    -0.277 OA
ATOM      2  N   UNL     1      35.190 -22.034 -16.846  0.00  0.00    -0.275 N 
ATOM      3  C   UNL     1      35.707 -22.978 -15.864  0.00  0.00    +0.152 C 
ATOM      4  C   UNL     1      37.163 -22.573 -15.667  0.00  0.00    +0.031 C 
ATOM      5  C   UNL     1      37.156 -21.073 -15.951  0.00  0.00    +0.024 C 
ATOM      6  C   UNL     1      36.126 -20.933 -17.062  0.00  0.00    +0.094 C 
ATOM      7  C   UNL     1      34.032 -22.271 -17.570  0.00  0.00    +0.206 C 
ENDROOT
BRANCH   3  10
ATOM      8  O   UNL     1      33.730 -22.436 -14.640  0.00  0.00    -0.273 OA
ATOM      9  N   UNL     1      35.644 -23.061 -13.472  0.00  0.00    -0.301 N 
ATOM     10  C   UNL     1      34.904 -22.798 -14.611  0.00  0.00    +0.241 C 
ATOM     11  H   UNL     1      36.581 -23.345 -13.576  0.00  0.00    +0.150 HD
BRANCH   9  12
ATOM     12  C   UNL     1      35.107 -22.938 -12.136  0.00  0.00    +0.111 C 
BRANCH  12  13
ATOM     13  C   UNL     1      35.353 -24.185 -11.300  0.00  0.00    +0.109 C 
BRANCH  13  14
ATOM     14  N   UNL     1      36.756 -24.529 -11.309  0.00  0.00    -0.331 N 
ATOM     15  H   UNL     1      37.284 -24.351 -10.498  0.00  0.00    +0.147 HD
BRANCH  14  17
ATOM     16  N   UNL     1      38.713 -26.249 -14.609  0.00  0.00    -0.242 NA
ATOM     17  C   UNL     1      37.401 -25.095 -12.397  0.00  0.00    +0.048 C 
ATOM     18  C   UNL     1      38.660 -24.636 -12.810  0.00  0.00    +0.035 C 
ATOM     19  C   UNL     1      36.814 -26.147 -13.117  0.00  0.00    +0.035 C 
ATOM     20  C   UNL     1      39.263 -25.236 -13.904  0.00  0.00    +0.100 C 
ATOM     21  C   UNL     1      37.501 -26.680 -14.196  0.00  0.00    +0.100 C 
ENDBRANCH  14  17
ENDBRANCH  13  14
ENDBRANCH  12  13
ENDBRANCH   9  12
ENDBRANCH   3  10
BRANCH   7  22
ATOM     22  C   UNL     1      33.736 -21.279 -18.666  0.00  0.00    +0.018 C 
BRANCH  22  23
ATOM     23  N   UNL     1      32.367 -21.558 -19.079  0.00  0.00    +0.388 N 
ATOM     24  H   UNL     1      31.866 -20.679 -19.210  0.00  0.00    -0.089 HD
ATOM     25  H   UNL     1      31.901 -22.111 -18.360  0.00  0.00    -0.089 HD
ATOM     26  H   UNL     1      32.376 -22.077 -19.956  0.00  0.00    -0.089 HD
ENDBRANCH  22  23
BRANCH  22  27
ATOM     27  C   UNL     1      34.711 -21.436 -19.833  0.00  0.00    +0.013 C 
BRANCH  27  28
ATOM     28  C   UNL     1      34.980 -20.132 -20.547  0.00  0.00    -0.024 C 
ATOM     29  C   UNL     1      33.997 -19.589 -21.358  0.00  0.00    -0.004 C 
ATOM     30  C   UNL     1      36.204 -19.506 -20.378  0.00  0.00    -0.004 C 
ATOM     31  C   UNL     1      34.245 -18.385 -22.019  0.00  0.00    -0.000 C 
ATOM     32  C   UNL     1      36.452 -18.303 -21.039  0.00  0.00    -0.000 C 
ATOM     33  C   UNL     1      35.473 -17.743 -21.859  0.00  0.00    -0.000 C 
ENDBRANCH  27  28
ENDBRANCH  22  27
ENDBRANCH   7  22
TORSDOF 9
ENDMDL
MODEL 7
REMARK VINA RESULT:      -9.7      6.138     10.342
REMARK  Name = 23586040
REMARK  9 active torsions:
REMARK  status: ('A' for Active; 'I' for Inactive)
REMARK    1  A    between atoms: C_3  and  C_10
REMARK    2  A    between atoms: C_7  and  C_22
REMARK    3  A    between atoms: N_9  and  C_12
REMARK    4  A    between atoms: C_12  and  C_13
REMARK    5  A    between atoms: C_13  and  N_14
REMARK    6  A    between atoms: N_14  and  C_17
REMARK    7  A    between atoms: C_22  and  N_23
REMARK    8  A    between atoms: C_22  and  C_27
REMARK    9  A    between atoms: C_27  and  C_28
REMARK                            x       y       z     vdW  Elec       q    Type
REMARK                         _______ _______ _______ _____ _____    ______ ____
ROOT
ATOM      1  O   UNL     1      32.673 -14.370 -24.785  0.00  0.00    -0.277 OA
ATOM      2  N   UNL     1      33.164 -14.057 -22.546  0.00  0.00    -0.275 N 
ATOM      3  C   UNL     1      32.107 -13.092 -22.276  0.00  0.00    +0.152 C 
ATOM      4  C   UNL     1      32.019 -13.029 -20.756  0.00  0.00    +0.031 C 
ATOM      5  C   UNL     1      33.439 -13.360 -20.303  0.00  0.00    +0.024 C 
ATOM      6  C   UNL     1      33.901 -14.385 -21.327  0.00  0.00    +0.094 C 
ATOM      7  C   UNL     1      33.313 -14.675 -23.777  0.00  0.00    +0.206 C 
ENDROOT
BRANCH   3  10
ATOM      8  O   UNL     1      33.494 -11.705 -23.637  0.00  0.00    -0.273 OA
ATOM      9  N   UNL     1      31.774 -10.725 -22.413  0.00  0.00    -0.301 N 
ATOM     10  C   UNL     1      32.543 -11.783 -22.863  0.00  0.00    +0.241 C 
ATOM     11  H   UNL     1      31.034 -10.914 -21.792  0.00  0.00    +0.150 HD
BRANCH   9  12
ATOM     12  C   UNL     1      32.003  -9.355 -22.812  0.00  0.00    +0.111 C 
BRANCH  12  13
ATOM     13  C   UNL     1      30.812  -8.460 -22.511  0.00  0.00    +0.109 C 
BRANCH  13  14
ATOM     14  N   UNL     1      31.247  -7.238 -21.876  0.00  0.00    -0.331 N 
ATOM     15  H   UNL     1      31.836  -7.307 -21.090  0.00  0.00    +0.147 HD
BRANCH  14  17
ATOM     16  N   UNL     1      30.140  -3.402 -23.194  0.00  0.00    -0.242 NA
ATOM     17  C   UNL     1      30.883  -5.974 -22.310  0.00  0.00    +0.048 C 
ATOM     18  C   UNL     1      30.942  -5.632 -23.669  0.00  0.00    +0.035 C 
ATOM     19  C   UNL     1      30.443  -4.998 -21.404  0.00  0.00    +0.035 C 
ATOM     20  C   UNL     1      30.567  -4.354 -24.052  0.00  0.00    +0.100 C 
ATOM     21  C   UNL     1      30.088  -3.749 -21.889  0.00  0.00    +0.100 C 
ENDBRANCH  14  17
ENDBRANCH  13  14
ENDBRANCH  12  13
ENDBRANCH   9  12
ENDBRANCH   3  10
BRANCH   7  22
ATOM     22  C   UNL     1      34.344 -15.774 -23.833  0.00  0.00    +0.018 C 
BRANCH  22  23
ATOM     23  N   UNL     1      34.927 -15.688 -25.166  0.00  0.00    +0.388 N 
ATOM     24  H   UNL     1      34.245 -15.288 -25.810  0.00  0.00    -0.089 HD
ATOM     25  H   UNL     1      35.188 -16.621 -25.484  0.00  0.00    -0.089 HD
ATOM     26  H   UNL     1      35.755 -15.094 -25.137  0.00  0.00    -0.089 HD
ENDBRANCH  22  23
BRANCH  22  27
ATOM     27  C   UNL     1      33.707 -17.143 -23.594  0.00  0.00    +0.013 C 
BRANCH  27  28
ATOM     28  C   UNL     1      34.419 -17.939 -22.526  0.00  0.00    -0.024 C 
ATOM     29  C   UNL     1      35.703 -17.578 -22.155  0.00  0.00    -0.004 C 
ATOM     30  C   UNL     1      33.773 -19.014 -21.937  0.00  0.00    -0.004 C 
ATOM     31  C   UNL     1      36.363 -18.312 -21.169  0.00  0.00    -0.000 C 
ATOM     32  C   UNL     1      34.431 -19.748 -20.951  0.00  0.00    -0.000 C 
ATOM     33  C   UNL     1      35.726 -19.398 -20.567  0.00  0.00    -0.000 C 
ENDBRANCH  27  28
ENDBRANCH  22  27
ENDBRANCH   7  22
TORSDOF 9
ENDMDL
MODEL 8
REMARK VINA RESULT:      -9.6      2.075      9.032
REMARK  Name = 23586040
REMARK  9 active torsions:
REMARK  status: ('A' for Active; 'I' for Inactive)
REMARK    1  A    between atoms: C_3  and  C_10
REMARK    2  A    between atoms: C_7  and  C_22
REMARK    3  A    between atoms: N_9  and  C_12
REMARK    4  A    between atoms: C_12  and  C_13
REMARK    5  A    between atoms: C_13  and  N_14
REMARK    6  A    between atoms: N_14  and  C_17
REMARK    7  A    between atoms: C_22  and  N_23
REMARK    8  A    between atoms: C_22  and  C_27
REMARK    9  A    between atoms: C_27  and  C_28
REMARK                            x       y       z     vdW  Elec       q    Type
REMARK                         _______ _______ _______ _____ _____    ______ ____
ROOT
ATOM      1  O   UNL     1      33.287 -19.357 -22.326  0.00  0.00    -0.277 OA
ATOM      2  N   UNL     1      34.872 -19.713 -20.679  0.00  0.00    -0.275 N 
ATOM      3  C   UNL     1      34.441 -21.058 -20.321  0.00  0.00    +0.152 C 
ATOM      4  C   UNL     1      35.592 -21.627 -19.500  0.00  0.00    +0.031 C 
ATOM      5  C   UNL     1      36.214 -20.391 -18.854  0.00  0.00    +0.024 C 
ATOM      6  C   UNL     1      36.064 -19.324 -19.928  0.00  0.00    +0.094 C 
ATOM      7  C   UNL     1      34.294 -18.997 -21.715  0.00  0.00    +0.206 C 
ENDROOT
BRANCH   3  10
ATOM      8  O   UNL     1      32.379 -20.021 -19.713  0.00  0.00    -0.273 OA
ATOM      9  N   UNL     1      33.098 -21.886 -18.520  0.00  0.00    -0.301 N 
ATOM     10  C   UNL     1      33.191 -20.919 -19.506  0.00  0.00    +0.241 C 
ATOM     11  H   UNL     1      33.814 -22.557 -18.452  0.00  0.00    +0.150 HD
BRANCH   9  12
ATOM     12  C   UNL     1      31.998 -21.958 -17.586  0.00  0.00    +0.111 C 
BRANCH  12  13
ATOM     13  C   UNL     1      32.177 -23.074 -16.569  0.00  0.00    +0.109 C 
BRANCH  13  14
ATOM     14  N   UNL     1      32.997 -22.626 -15.468  0.00  0.00    -0.331 N 
ATOM     15  H   UNL     1      32.597 -22.016 -14.809  0.00  0.00    +0.147 HD
BRANCH  14  17
ATOM     16  N   UNL     1      37.002 -23.784 -14.919  0.00  0.00    -0.242 NA
ATOM     17  C   UNL     1      34.317 -23.008 -15.288  0.00  0.00    +0.048 C 
ATOM     18  C   UNL     1      35.370 -22.139 -15.608  0.00  0.00    +0.035 C 
ATOM     19  C   UNL     1      34.639 -24.274 -14.778  0.00  0.00    +0.035 C 
ATOM     20  C   UNL     1      36.673 -22.568 -15.409  0.00  0.00    +0.100 C 
ATOM     21  C   UNL     1      35.975 -24.607 -14.615  0.00  0.00    +0.100 C 
ENDBRANCH  14  17
ENDBRANCH  13  14
ENDBRANCH  12  13
ENDBRANCH   9  12
ENDBRANCH   3  10
BRANCH   7  22
ATOM     22  C   UNL     1      34.974 -17.698 -22.066  0.00  0.00    +0.018 C 
BRANCH  22  23
ATOM     23  N   UNL     1      36.390 -18.023 -22.183  0.00  0.00    +0.388 N 
ATOM     24  H   UNL     1      36.947 -17.196 -21.967  0.00  0.00    -0.089 HD
ATOM     25  H   UNL     1      36.591 -18.327 -23.136  0.00  0.00    -0.089 HD
ATOM     26  H   UNL     1      36.623 -18.770 -21.530  0.00  0.00    -0.089 HD
ENDBRANCH  22  23
BRANCH  22  27
ATOM     27  C   UNL     1      34.735 -16.640 -20.988  0.00  0.00    +0.013 C 
BRANCH  27  28
ATOM     28  C   UNL     1      34.234 -15.332 -21.556  0.00  0.00    -0.024 C 
ATOM     29  C   UNL     1      33.769 -14.353 -20.694  0.00  0.00    -0.004 C 
ATOM     30  C   UNL     1      34.250 -15.138 -22.927  0.00  0.00    -0.004 C 
ATOM     31  C   UNL     1      33.306 -13.146 -21.217  0.00  0.00    -0.000 C 
ATOM     32  C   UNL     1      33.787 -13.931 -23.451  0.00  0.00    -0.000 C 
ATOM     33  C   UNL     1      33.314 -12.936 -22.596  0.00  0.00    -0.000 C 
ENDBRANCH  27  28
ENDBRANCH  22  27
ENDBRANCH   7  22
TORSDOF 9
ENDMDL
MODEL 9
REMARK VINA RESULT:      -9.6      2.977      6.095
REMARK  Name = 23586040
REMARK  9 active torsions:
REMARK  status: ('A' for Active; 'I' for Inactive)
REMARK    1  A    between atoms: C_3  and  C_10
REMARK    2  A    between atoms: C_7  and  C_22
REMARK    3  A    between atoms: N_9  and  C_12
REMARK    4  A    between atoms: C_12  and  C_13
REMARK    5  A    between atoms: C_13  and  N_14
REMARK    6  A    between atoms: N_14  and  C_17
REMARK    7  A    between atoms: C_22  and  N_23
REMARK    8  A    between atoms: C_22  and  C_27
REMARK    9  A    between atoms: C_27  and  C_28
REMARK                            x       y       z     vdW  Elec       q    Type
REMARK                         _______ _______ _______ _____ _____    ______ ____
ROOT
ATOM      1  O   UNL     1      36.156 -18.256 -20.352  0.00  0.00    -0.277 OA
ATOM      2  N   UNL     1      34.647 -18.376 -22.102  0.00  0.00    -0.275 N 
ATOM      3  C   UNL     1      35.123 -17.198 -22.814  0.00  0.00    +0.152 C 
ATOM      4  C   UNL     1      34.499 -17.306 -24.200  0.00  0.00    +0.031 C 
ATOM      5  C   UNL     1      33.202 -18.071 -23.948  0.00  0.00    +0.024 C 
ATOM      6  C   UNL     1      33.582 -19.047 -22.845  0.00  0.00    +0.094 C 
ATOM      7  C   UNL     1      35.260 -18.851 -20.953  0.00  0.00    +0.206 C 
ENDROOT
BRANCH   3  10
ATOM      8  O   UNL     1      34.459 -16.013 -20.851  0.00  0.00    -0.273 OA
ATOM      9  N   UNL     1      34.355 -14.932 -22.910  0.00  0.00    -0.301 N 
ATOM     10  C   UNL     1      34.621 -15.998 -22.069  0.00  0.00    +0.241 C 
ATOM     11  H   UNL     1      34.526 -15.041 -23.873  0.00  0.00    +0.150 HD
BRANCH   9  12
ATOM     12  C   UNL     1      33.840 -13.666 -22.442  0.00  0.00    +0.111 C 
BRANCH  12  13
ATOM     13  C   UNL     1      33.240 -12.836 -23.567  0.00  0.00    +0.109 C 
BRANCH  13  14
ATOM     14  N   UNL     1      33.420 -11.428 -23.305  0.00  0.00    -0.331 N 
ATOM     15  H   UNL     1      34.312 -11.038 -23.451  0.00  0.00    +0.147 HD
BRANCH  14  17
ATOM     16  N   UNL     1      30.347  -8.897 -21.950  0.00  0.00    -0.242 NA
ATOM     17  C   UNL     1      32.408 -10.594 -22.858  0.00  0.00    +0.048 C 
ATOM     18  C   UNL     1      32.298  -9.276 -23.327  0.00  0.00    +0.035 C 
ATOM     19  C   UNL     1      31.462 -11.042 -21.925  0.00  0.00    +0.035 C 
ATOM     20  C   UNL     1      31.267  -8.483 -22.849  0.00  0.00    +0.100 C 
ATOM     21  C   UNL     1      30.468 -10.169 -21.511  0.00  0.00    +0.100 C 
ENDBRANCH  14  17
ENDBRANCH  13  14
ENDBRANCH  12  13
ENDBRANCH   9  12
ENDBRANCH   3  10
BRANCH   7  22
ATOM     22  C   UNL     1      34.752 -20.176 -20.444  0.00  0.00    +0.018 C 
BRANCH  22  23
ATOM     23  N   UNL     1      33.505 -19.872 -19.755  0.00  0.00    +0.388 N 
ATOM     24  H   UNL     1      33.471 -20.382 -18.872  0.00  0.00    -0.089 HD
ATOM     25  H   UNL     1      32.717 -20.152 -20.339  0.00  0.00    -0.089 HD
ATOM     26  H   UNL     1      33.453 -18.871 -19.570  0.00  0.00    -0.089 HD
ENDBRANCH  22  23
BRANCH  22  27
ATOM     27  C   UNL     1      35.762 -20.830 -19.501  0.00  0.00    +0.013 C 
BRANCH  27  28
ATOM     28  C   UNL     1      35.102 -21.533 -18.338  0.00  0.00    -0.024 C 
ATOM     29  C   UNL     1      35.779 -21.632 -17.134  0.00  0.00    -0.004 C 
ATOM     30  C   UNL     1      33.833 -22.065 -18.498  0.00  0.00    -0.004 C 
ATOM     31  C   UNL     1      35.172 -22.282 -16.059  0.00  0.00    -0.000 C 
ATOM     32  C   UNL     1      33.225 -22.715 -17.424  0.00  0.00    -0.000 C 
ATOM     33  C   UNL     1      33.894 -22.824 -16.205  0.00  0.00    -0.000 C 
ENDBRANCH  27  28
ENDBRANCH  22  27
ENDBRANCH   7  22
TORSDOF 9
ENDMDL
