MODEL 1
REMARK VINA RESULT:     -12.3      0.000      0.000
REMARK  Name = 9954980
REMARK  5 active torsions:
REMARK  status: ('A' for Active; 'I' for Inactive)
REMARK    1  A    between atoms: N_2  and  C_18
REMARK    2  A    between atoms: C_3  and  C_5
REMARK    3  A    between atoms: C_10  and  N_12
REMARK    4  A    between atoms: C_19  and  N_24
REMARK    5  A    between atoms: C_25  and  C_29
REMARK                            x       y       z     vdW  Elec       q    Type
REMARK                         _______ _______ _______ _____ _____    ______ ____
ROOT
ATOM      1  O   UNL     1      32.400 -24.031 -16.801  0.00  0.00    -0.270 OA
ATOM      2  N   UNL     1      31.184 -22.208 -16.044  0.00  0.00    -0.301 N 
ATOM      3  C   UNL     1      32.093 -22.845 -16.875  0.00  0.00    +0.246 C 
ATOM      4  H   UNL     1      31.005 -21.251 -16.183  0.00  0.00    +0.150 HD
ENDROOT
BRANCH   3   5
ATOM      5  C   UNL     1      32.741 -21.989 -17.903  0.00  0.00    +0.053 C 
ATOM      6  C   UNL     1      34.111 -22.049 -18.052  0.00  0.00    +0.006 C 
ATOM      7  C   UNL     1      31.951 -21.163 -18.675  0.00  0.00    +0.006 C 
ATOM      8  C   UNL     1      34.719 -21.245 -19.016  0.00  0.00    +0.015 C 
ATOM      9  C   UNL     1      32.559 -20.359 -19.640  0.00  0.00    +0.015 C 
ATOM     10  C   UNL     1      33.943 -20.400 -19.810  0.00  0.00    +0.058 C 
BRANCH  10  12
ATOM     11  O   UNL     1      36.533 -19.140 -19.547  0.00  0.00    -0.269 OA
ATOM     12  N   UNL     1      34.575 -19.565 -20.813  0.00  0.00    -0.233 N 
ATOM     13  C   UNL     1      35.870 -19.036 -20.579  0.00  0.00    +0.257 C 
ATOM     14  C   UNL     1      33.908 -19.257 -22.001  0.00  0.00    +0.072 C 
ATOM     15  C   UNL     1      36.467 -18.224 -21.684  0.00  0.00    +0.059 C 
ATOM     16  C   UNL     1      34.450 -18.500 -22.960  0.00  0.00    +0.017 C 
ATOM     17  C   UNL     1      35.772 -17.975 -22.796  0.00  0.00    +0.006 C 
ENDBRANCH  10  12
ENDBRANCH   3   5
BRANCH   2  18
ATOM     18  C   UNL     1      30.496 -22.894 -14.987  0.00  0.00    +0.090 C 
ATOM     19  C   UNL     1      31.350 -23.144 -13.740  0.00  0.00    +0.090 C 
ATOM     20  C   UNL     1      30.004 -24.284 -15.391  0.00  0.00    +0.021 C 
ATOM     21  C   UNL     1      30.533 -24.198 -13.000  0.00  0.00    +0.021 C 
ATOM     22  C   UNL     1      29.967 -25.101 -14.098  0.00  0.00    +0.003 C 
BRANCH  19  24
ATOM     23  O   UNL     1      33.598 -23.263 -11.951  0.00  0.00    -0.270 OA
ATOM     24  N   UNL     1      32.673 -23.633 -14.046  0.00  0.00    -0.300 N 
ATOM     25  C   UNL     1      33.703 -23.652 -13.111  0.00  0.00    +0.252 C 
ATOM     26  H   UNL     1      32.854 -23.967 -14.954  0.00  0.00    +0.150 HD
BRANCH  25  29
ATOM     27 CL   UNL     1      39.060 -24.694 -13.561  0.00  0.00    -0.075 Cl
ATOM     28  S   UNL     1      36.382 -23.736 -12.706  0.00  0.00    -0.071 S 
ATOM     29  C   UNL     1      35.014 -24.163 -13.590  0.00  0.00    +0.084 C 
ATOM     30  C   UNL     1      35.231 -24.937 -14.664  0.00  0.00    +0.012 C 
ATOM     31  C   UNL     1      36.623 -25.215 -14.793  0.00  0.00    +0.019 C 
ATOM     32  C   UNL     1      37.364 -24.623 -13.794  0.00  0.00    +0.087 C 
ENDBRANCH  25  29
ENDBRANCH  19  24
ENDBRANCH   2  18
TORSDOF 5
ENDMDL
MODEL 2
REMARK VINA RESULT:     -11.7     11.890     16.351
REMARK  Name = 9954980
REMARK  5 active torsions:
REMARK  status: ('A' for Active; 'I' for Inactive)
REMARK    1  A    between atoms: N_2  and  C_18
REMARK    2  A    between atoms: C_3  and  C_5
REMARK    3  A    between atoms: C_10  and  N_12
REMARK    4  A    between atoms: C_19  and  N_24
REMARK    5  A    between atoms: C_25  and  C_29
REMARK                            x       y       z     vdW  Elec       q    Type
REMARK                         _______ _______ _______ _____ _____    ______ ____
ROOT
ATOM      1  O   UNL     1      30.510  -9.342 -19.611  0.00  0.00    -0.270 OA
ATOM      2  N   UNL     1      31.388  -8.131 -21.382  0.00  0.00    -0.301 N 
ATOM      3  C   UNL     1      31.130  -9.291 -20.669  0.00  0.00    +0.246 C 
ATOM      4  H   UNL     1      31.896  -8.194 -22.224  0.00  0.00    +0.150 HD
ENDROOT
BRANCH   3   5
ATOM      5  C   UNL     1      31.681 -10.544 -21.249  0.00  0.00    +0.053 C 
ATOM      6  C   UNL     1      32.235 -10.506 -22.512  0.00  0.00    +0.006 C 
ATOM      7  C   UNL     1      31.621 -11.704 -20.505  0.00  0.00    +0.006 C 
ATOM      8  C   UNL     1      32.751 -11.682 -23.056  0.00  0.00    +0.015 C 
ATOM      9  C   UNL     1      32.138 -12.880 -21.050  0.00  0.00    +0.015 C 
ATOM     10  C   UNL     1      32.703 -12.869 -22.325  0.00  0.00    +0.058 C 
BRANCH  10  12
ATOM     11  O   UNL     1      34.285 -14.819 -20.891  0.00  0.00    -0.269 OA
ATOM     12  N   UNL     1      33.240 -14.091 -22.890  0.00  0.00    -0.233 N 
ATOM     13  C   UNL     1      33.969 -14.989 -22.069  0.00  0.00    +0.257 C 
ATOM     14  C   UNL     1      33.065 -14.383 -24.245  0.00  0.00    +0.072 C 
ATOM     15  C   UNL     1      34.448 -16.248 -22.719  0.00  0.00    +0.059 C 
ATOM     16  C   UNL     1      33.532 -15.500 -24.811  0.00  0.00    +0.017 C 
ATOM     17  C   UNL     1      34.238 -16.462 -24.020  0.00  0.00    +0.006 C 
ENDBRANCH  10  12
ENDBRANCH   3   5
BRANCH   2  18
ATOM     18  C   UNL     1      30.944  -6.840 -20.939  0.00  0.00    +0.090 C 
ATOM     19  C   UNL     1      30.529  -5.896 -22.071  0.00  0.00    +0.090 C 
ATOM     20  C   UNL     1      32.018  -6.063 -20.176  0.00  0.00    +0.021 C 
ATOM     21  C   UNL     1      30.511  -4.543 -21.368  0.00  0.00    +0.021 C 
ATOM     22  C   UNL     1      31.696  -4.584 -20.402  0.00  0.00    +0.003 C 
BRANCH  19  24
ATOM     23  O   UNL     1      30.494  -4.132 -24.342  0.00  0.00    -0.270 OA
ATOM     24  N   UNL     1      31.455  -5.893 -23.178  0.00  0.00    -0.300 N 
ATOM     25  C   UNL     1      31.359  -4.997 -24.238  0.00  0.00    +0.252 C 
ATOM     26  H   UNL     1      32.186  -6.553 -23.183  0.00  0.00    +0.150 HD
BRANCH  25  29
ATOM     27 CL   UNL     1      35.994  -4.643 -27.132  0.00  0.00    -0.075 Cl
ATOM     28  S   UNL     1      33.879  -4.425 -25.059  0.00  0.00    -0.071 S 
ATOM     29  C   UNL     1      32.375  -5.141 -25.313  0.00  0.00    +0.084 C 
ATOM     30  C   UNL     1      32.226  -5.787 -26.479  0.00  0.00    +0.012 C 
ATOM     31  C   UNL     1      33.426  -5.702 -27.243  0.00  0.00    +0.019 C 
ATOM     32  C   UNL     1      34.406  -4.989 -26.589  0.00  0.00    +0.087 C 
ENDBRANCH  25  29
ENDBRANCH  19  24
ENDBRANCH   2  18
TORSDOF 5
ENDMDL
MODEL 3
REMARK VINA RESULT:     -11.7     11.745     16.172
REMARK  Name = 9954980
REMARK  5 active torsions:
REMARK  status: ('A' for Active; 'I' for Inactive)
REMARK    1  A    between atoms: N_2  and  C_18
REMARK    2  A    between atoms: C_3  and  C_5
REMARK    3  A    between atoms: C_10  and  N_12
REMARK    4  A    between atoms: C_19  and  N_24
REMARK    5  A    between atoms: C_25  and  C_29
REMARK                            x       y       z     vdW  Elec       q    Type
REMARK                         _______ _______ _______ _____ _____    ______ ____
ROOT
ATOM      1  O   UNL     1      30.049  -8.805 -22.503  0.00  0.00    -0.270 OA
ATOM      2  N   UNL     1      31.678  -8.359 -20.914  0.00  0.00    -0.301 N 
ATOM      3  C   UNL     1      31.058  -9.131 -21.884  0.00  0.00    +0.246 C 
ATOM      4  H   UNL     1      32.485  -8.709 -20.473  0.00  0.00    +0.150 HD
ENDROOT
BRANCH   3   5
ATOM      5  C   UNL     1      31.675 -10.457 -22.148  0.00  0.00    +0.053 C 
ATOM      6  C   UNL     1      31.389 -11.505 -21.298  0.00  0.00    +0.006 C 
ATOM      7  C   UNL     1      32.513 -10.597 -23.235  0.00  0.00    +0.006 C 
ATOM      8  C   UNL     1      31.970 -12.750 -21.545  0.00  0.00    +0.015 C 
ATOM      9  C   UNL     1      33.092 -11.842 -23.482  0.00  0.00    +0.015 C 
ATOM     10  C   UNL     1      32.821 -12.918 -22.637  0.00  0.00    +0.058 C 
BRANCH  10  12
ATOM     11  O   UNL     1      34.244 -14.517 -20.692  0.00  0.00    -0.269 OA
ATOM     12  N   UNL     1      33.424 -14.212 -22.894  0.00  0.00    -0.233 N 
ATOM     13  C   UNL     1      34.061 -14.916 -21.842  0.00  0.00    +0.257 C 
ATOM     14  C   UNL     1      33.401 -14.761 -24.178  0.00  0.00    +0.072 C 
ATOM     15  C   UNL     1      34.615 -16.264 -22.182  0.00  0.00    +0.059 C 
ATOM     16  C   UNL     1      33.933 -15.953 -24.465  0.00  0.00    +0.017 C 
ATOM     17  C   UNL     1      34.552 -16.728 -23.432  0.00  0.00    +0.006 C 
ENDBRANCH  10  12
ENDBRANCH   3   5
BRANCH   2  18
ATOM     18  C   UNL     1      31.187  -7.066 -20.529  0.00  0.00    +0.090 C 
ATOM     19  C   UNL     1      30.830  -6.154 -21.706  0.00  0.00    +0.090 C 
ATOM     20  C   UNL     1      32.197  -6.255 -19.717  0.00  0.00    +0.021 C 
ATOM     21  C   UNL     1      30.746  -4.786 -21.036  0.00  0.00    +0.021 C 
ATOM     22  C   UNL     1      31.867  -4.787 -19.996  0.00  0.00    +0.003 C 
BRANCH  19  24
ATOM     23  O   UNL     1      30.633  -4.882 -24.278  0.00  0.00    -0.270 OA
ATOM     24  N   UNL     1      31.825  -6.159 -22.752  0.00  0.00    -0.300 N 
ATOM     25  C   UNL     1      31.642  -5.513 -23.970  0.00  0.00    +0.252 C 
ATOM     26  H   UNL     1      32.670  -6.640 -22.596  0.00  0.00    +0.150 HD
BRANCH  25  29
ATOM     27 CL   UNL     1      34.673  -5.104 -28.512  0.00  0.00    -0.075 Cl
ATOM     28  S   UNL     1      32.528  -4.930 -26.465  0.00  0.00    -0.071 S 
ATOM     29  C   UNL     1      32.751  -5.634 -24.951  0.00  0.00    +0.084 C 
ATOM     30  C   UNL     1      33.927  -6.251 -24.762  0.00  0.00    +0.012 C 
ATOM     31  C   UNL     1      34.726  -6.153 -25.938  0.00  0.00    +0.019 C 
ATOM     32  C   UNL     1      34.086  -5.459 -26.942  0.00  0.00    +0.087 C 
ENDBRANCH  25  29
ENDBRANCH  19  24
ENDBRANCH   2  18
TORSDOF 5
ENDMDL
MODEL 4
REMARK VINA RESULT:     -11.6      3.204      4.655
REMARK  Name = 9954980
REMARK  5 active torsions:
REMARK  status: ('A' for Active; 'I' for Inactive)
REMARK    1  A    between atoms: N_2  and  C_18
REMARK    2  A    between atoms: C_3  and  C_5
REMARK    3  A    between atoms: C_10  and  N_12
REMARK    4  A    between atoms: C_19  and  N_24
REMARK    5  A    between atoms: C_25  and  C_29
REMARK                            x       y       z     vdW  Elec       q    Type
REMARK                         _______ _______ _______ _____ _____    ______ ____
ROOT
ATOM      1  O   UNL     1      33.701 -23.575 -17.601  0.00  0.00    -0.270 OA
ATOM      2  N   UNL     1      35.115 -22.195 -16.388  0.00  0.00    -0.301 N 
ATOM      3  C   UNL     1      34.332 -22.529 -17.482  0.00  0.00    +0.246 C 
ATOM      4  H   UNL     1      35.584 -21.330 -16.386  0.00  0.00    +0.150 HD
ENDROOT
BRANCH   3   5
ATOM      5  C   UNL     1      34.297 -21.530 -18.582  0.00  0.00    +0.053 C 
ATOM      6  C   UNL     1      35.490 -21.041 -19.075  0.00  0.00    +0.006 C 
ATOM      7  C   UNL     1      33.075 -21.124 -19.075  0.00  0.00    +0.006 C 
ATOM      8  C   UNL     1      35.458 -20.103 -20.106  0.00  0.00    +0.015 C 
ATOM      9  C   UNL     1      33.043 -20.186 -20.107  0.00  0.00    +0.015 C 
ATOM     10  C   UNL     1      34.235 -19.676 -20.623  0.00  0.00    +0.058 C 
BRANCH  10  12
ATOM     11  O   UNL     1      35.039 -16.907 -20.392  0.00  0.00    -0.269 OA
ATOM     12  N   UNL     1      34.201 -18.701 -21.696  0.00  0.00    -0.233 N 
ATOM     13  C   UNL     1      34.662 -17.380 -21.465  0.00  0.00    +0.257 C 
ATOM     14  C   UNL     1      33.696 -19.046 -22.951  0.00  0.00    +0.072 C 
ATOM     15  C   UNL     1      34.636 -16.451 -22.638  0.00  0.00    +0.059 C 
ATOM     16  C   UNL     1      33.652 -18.188 -23.975  0.00  0.00    +0.017 C 
ATOM     17  C   UNL     1      34.144 -16.853 -23.812  0.00  0.00    +0.006 C 
ENDBRANCH  10  12
ENDBRANCH   3   5
BRANCH   2  18
ATOM     18  C   UNL     1      35.269 -23.067 -15.257  0.00  0.00    +0.090 C 
ATOM     19  C   UNL     1      34.083 -24.006 -15.021  0.00  0.00    +0.090 C 
ATOM     20  C   UNL     1      35.424 -22.315 -13.935  0.00  0.00    +0.021 C 
ATOM     21  C   UNL     1      34.332 -24.482 -13.594  0.00  0.00    +0.021 C 
ATOM     22  C   UNL     1      34.879 -23.257 -12.859  0.00  0.00    +0.003 C 
BRANCH  19  24
ATOM     23  O   UNL     1      31.546 -24.997 -14.099  0.00  0.00    -0.270 OA
ATOM     24  N   UNL     1      32.805 -23.345 -15.132  0.00  0.00    -0.300 N 
ATOM     25  C   UNL     1      31.623 -23.904 -14.655  0.00  0.00    +0.252 C 
ATOM     26  H   UNL     1      32.766 -22.461 -15.565  0.00  0.00    +0.150 HD
BRANCH  25  29
ATOM     27 CL   UNL     1      26.988 -21.919 -16.789  0.00  0.00    -0.075 Cl
ATOM     28  S   UNL     1      29.481 -23.440 -16.250  0.00  0.00    -0.071 S 
ATOM     29  C   UNL     1      30.387 -23.109 -14.869  0.00  0.00    +0.084 C 
ATOM     30  C   UNL     1      29.905 -22.142 -14.073  0.00  0.00    +0.012 C 
ATOM     31  C   UNL     1      28.698 -21.616 -14.618  0.00  0.00    +0.019 C 
ATOM     32  C   UNL     1      28.353 -22.232 -15.801  0.00  0.00    +0.087 C 
ENDBRANCH  25  29
ENDBRANCH  19  24
ENDBRANCH   2  18
TORSDOF 5
ENDMDL
MODEL 5
REMARK VINA RESULT:     -11.0      3.141      4.883
REMARK  Name = 9954980
REMARK  5 active torsions:
REMARK  status: ('A' for Active; 'I' for Inactive)
REMARK    1  A    between atoms: N_2  and  C_18
REMARK    2  A    between atoms: C_3  and  C_5
REMARK    3  A    between atoms: C_10  and  N_12
REMARK    4  A    between atoms: C_19  and  N_24
REMARK    5  A    between atoms: C_25  and  C_29
REMARK                            x       y       z     vdW  Elec       q    Type
REMARK                         _______ _______ _______ _____ _____    ______ ____
ROOT
ATOM      1  O   UNL     1      38.307 -22.895 -15.229  0.00  0.00    -0.270 OA
ATOM      2  N   UNL     1      36.209 -22.657 -14.271  0.00  0.00    -0.301 N 
ATOM      3  C   UNL     1      37.146 -22.502 -15.281  0.00  0.00    +0.246 C 
ATOM      4  H   UNL     1      35.300 -22.305 -14.408  0.00  0.00    +0.150 HD
ENDROOT
BRANCH   3   5
ATOM      5  C   UNL     1      36.677 -21.778 -16.492  0.00  0.00    +0.053 C 
ATOM      6  C   UNL     1      35.677 -22.339 -17.258  0.00  0.00    +0.006 C 
ATOM      7  C   UNL     1      37.258 -20.568 -16.811  0.00  0.00    +0.006 C 
ATOM      8  C   UNL     1      35.238 -21.660 -18.395  0.00  0.00    +0.015 C 
ATOM      9  C   UNL     1      36.819 -19.889 -17.947  0.00  0.00    +0.015 C 
ATOM     10  C   UNL     1      35.809 -20.435 -18.740  0.00  0.00    +0.058 C 
BRANCH  10  12
ATOM     11  O   UNL     1      33.137 -20.567 -19.839  0.00  0.00    -0.269 OA
ATOM     12  N   UNL     1      35.353 -19.729 -19.921  0.00  0.00    -0.233 N 
ATOM     13  C   UNL     1      34.002 -19.845 -20.336  0.00  0.00    +0.257 C 
ATOM     14  C   UNL     1      36.240 -18.951 -20.668  0.00  0.00    +0.072 C 
ATOM     15  C   UNL     1      33.603 -19.047 -21.537  0.00  0.00    +0.059 C 
ATOM     16  C   UNL     1      35.867 -18.273 -21.757  0.00  0.00    +0.017 C 
ATOM     17  C   UNL     1      34.506 -18.319 -22.199  0.00  0.00    +0.006 C 
ENDBRANCH  10  12
ENDBRANCH   3   5
BRANCH   2  18
ATOM     18  C   UNL     1      36.517 -23.312 -13.031  0.00  0.00    +0.090 C 
ATOM     19  C   UNL     1      35.593 -24.485 -12.694  0.00  0.00    +0.090 C 
ATOM     20  C   UNL     1      36.408 -22.386 -11.818  0.00  0.00    +0.021 C 
ATOM     21  C   UNL     1      35.876 -24.700 -11.211  0.00  0.00    +0.021 C 
ATOM     22  C   UNL     1      36.059 -23.294 -10.637  0.00  0.00    +0.003 C 
BRANCH  19  24
ATOM     23  O   UNL     1      34.190 -24.597 -15.202  0.00  0.00    -0.270 OA
ATOM     24  N   UNL     1      34.197 -24.192 -12.918  0.00  0.00    -0.300 N 
ATOM     25  C   UNL     1      33.602 -24.273 -14.173  0.00  0.00    +0.252 C 
ATOM     26  H   UNL     1      33.642 -23.923 -12.150  0.00  0.00    +0.150 HD
BRANCH  25  29
ATOM     27 CL   UNL     1      28.836 -22.042 -15.686  0.00  0.00    -0.075 Cl
ATOM     28  S   UNL     1      31.687 -22.836 -15.445  0.00  0.00    -0.071 S 
ATOM     29  C   UNL     1      32.162 -23.914 -14.241  0.00  0.00    +0.084 C 
ATOM     30  C   UNL     1      31.183 -24.360 -13.439  0.00  0.00    +0.012 C 
ATOM     31  C   UNL     1      29.937 -23.786 -13.821  0.00  0.00    +0.019 C 
ATOM     32  C   UNL     1      30.067 -22.938 -14.899  0.00  0.00    +0.087 C 
ENDBRANCH  25  29
ENDBRANCH  19  24
ENDBRANCH   2  18
TORSDOF 5
ENDMDL
MODEL 6
REMARK VINA RESULT:     -10.5      3.339      5.294
REMARK  Name = 9954980
REMARK  5 active torsions:
REMARK  status: ('A' for Active; 'I' for Inactive)
REMARK    1  A    between atoms: N_2  and  C_18
REMARK    2  A    between atoms: C_3  and  C_5
REMARK    3  A    between atoms: C_10  and  N_12
REMARK    4  A    between atoms: C_19  and  N_24
REMARK    5  A    between atoms: C_25  and  C_29
REMARK                            x       y       z     vdW  Elec       q    Type
REMARK                         _______ _______ _______ _____ _____    ______ ____
ROOT
ATOM      1  O   UNL     1      35.881 -22.213 -19.327  0.00  0.00    -0.270 OA
ATOM      2  N   UNL     1      36.350 -20.631 -17.699  0.00  0.00    -0.301 N 
ATOM      3  C   UNL     1      35.921 -21.046 -18.949  0.00  0.00    +0.246 C 
ATOM      4  H   UNL     1      36.345 -19.669 -17.490  0.00  0.00    +0.150 HD
ENDROOT
BRANCH   3   5
ATOM      5  C   UNL     1      35.508 -19.966 -19.884  0.00  0.00    +0.053 C 
ATOM      6  C   UNL     1      34.182 -19.877 -20.254  0.00  0.00    +0.006 C 
ATOM      7  C   UNL     1      36.464 -19.088 -20.350  0.00  0.00    +0.006 C 
ATOM      8  C   UNL     1      33.795 -18.864 -21.131  0.00  0.00    +0.015 C 
ATOM      9  C   UNL     1      36.077 -18.075 -21.227  0.00  0.00    +0.015 C 
ATOM     10  C   UNL     1      34.742 -17.963 -21.618  0.00  0.00    +0.058 C 
BRANCH  10  12
ATOM     11  O   UNL     1      34.361 -15.187 -20.901  0.00  0.00    -0.269 OA
ATOM     12  N   UNL     1      34.340 -16.909 -22.530  0.00  0.00    -0.233 N 
ATOM     13  C   UNL     1      34.227 -15.575 -22.062  0.00  0.00    +0.257 C 
ATOM     14  C   UNL     1      34.042 -17.201 -23.862  0.00  0.00    +0.072 C 
ATOM     15  C   UNL     1      33.853 -14.542 -23.078  0.00  0.00    +0.059 C 
ATOM     16  C   UNL     1      33.677 -16.265 -24.744  0.00  0.00    +0.017 C 
ATOM     17  C   UNL     1      33.588 -14.895 -24.338  0.00  0.00    +0.006 C 
ENDBRANCH  10  12
ENDBRANCH   3   5
BRANCH   2  18
ATOM     18  C   UNL     1      36.804 -21.553 -16.696  0.00  0.00    +0.090 C 
ATOM     19  C   UNL     1      35.913 -22.787 -16.527  0.00  0.00    +0.090 C 
ATOM     20  C   UNL     1      36.865 -20.938 -15.297  0.00  0.00    +0.021 C 
ATOM     21  C   UNL     1      36.381 -23.337 -15.184  0.00  0.00    +0.021 C 
ATOM     22  C   UNL     1      36.658 -22.102 -14.326  0.00  0.00    +0.003 C 
BRANCH  19  24
ATOM     23  O   UNL     1      33.851 -24.248 -15.156  0.00  0.00    -0.270 OA
ATOM     24  N   UNL     1      34.505 -22.471 -16.495  0.00  0.00    -0.300 N 
ATOM     25  C   UNL     1      33.576 -23.239 -15.802  0.00  0.00    +0.252 C 
ATOM     26  H   UNL     1      34.188 -21.678 -16.986  0.00  0.00    +0.150 HD
BRANCH  25  29
ATOM     27 CL   UNL     1      28.414 -21.943 -14.513  0.00  0.00    -0.075 Cl
ATOM     28  S   UNL     1      31.255 -22.809 -14.469  0.00  0.00    -0.071 S 
ATOM     29  C   UNL     1      32.161 -22.796 -15.889  0.00  0.00    +0.084 C 
ATOM     30  C   UNL     1      31.515 -22.380 -16.989  0.00  0.00    +0.012 C 
ATOM     31  C   UNL     1      30.169 -22.040 -16.668  0.00  0.00    +0.019 C 
ATOM     32  C   UNL     1      29.894 -22.226 -15.330  0.00  0.00    +0.087 C 
ENDBRANCH  25  29
ENDBRANCH  19  24
ENDBRANCH   2  18
TORSDOF 5
ENDMDL
MODEL 7
REMARK VINA RESULT:      -9.8      3.586      7.142
REMARK  Name = 9954980
REMARK  5 active torsions:
REMARK  status: ('A' for Active; 'I' for Inactive)
REMARK    1  A    between atoms: N_2  and  C_18
REMARK    2  A    between atoms: C_3  and  C_5
REMARK    3  A    between atoms: C_10  and  N_12
REMARK    4  A    between atoms: C_19  and  N_24
REMARK    5  A    between atoms: C_25  and  C_29
REMARK                            x       y       z     vdW  Elec       q    Type
REMARK                         _______ _______ _______ _____ _____    ______ ____
ROOT
ATOM      1  O   UNL     1      33.894 -24.148 -11.989  0.00  0.00    -0.270 OA
ATOM      2  N   UNL     1      34.726 -24.819 -14.046  0.00  0.00    -0.301 N 
ATOM      3  C   UNL     1      33.755 -24.311 -13.197  0.00  0.00    +0.246 C 
ATOM      4  H   UNL     1      34.517 -24.912 -15.004  0.00  0.00    +0.150 HD
ENDROOT
BRANCH   3   5
ATOM      5  C   UNL     1      32.453 -23.972 -13.830  0.00  0.00    +0.053 C 
ATOM      6  C   UNL     1      32.440 -23.100 -14.898  0.00  0.00    +0.006 C 
ATOM      7  C   UNL     1      31.301 -24.542 -13.329  0.00  0.00    +0.006 C 
ATOM      8  C   UNL     1      31.218 -22.781 -15.492  0.00  0.00    +0.015 C 
ATOM      9  C   UNL     1      30.080 -24.224 -13.924  0.00  0.00    +0.015 C 
ATOM     10  C   UNL     1      30.038 -23.343 -15.005  0.00  0.00    +0.058 C 
BRANCH  10  12
ATOM     11  O   UNL     1      28.281 -21.204 -14.170  0.00  0.00    -0.269 OA
ATOM     12  N   UNL     1      28.769 -23.013 -15.622  0.00  0.00    -0.233 N 
ATOM     13  C   UNL     1      28.016 -21.911 -15.144  0.00  0.00    +0.257 C 
ATOM     14  C   UNL     1      28.268 -23.787 -16.672  0.00  0.00    +0.072 C 
ATOM     15  C   UNL     1      26.741 -21.610 -15.866  0.00  0.00    +0.059 C 
ATOM     16  C   UNL     1      27.109 -23.518 -17.280  0.00  0.00    +0.017 C 
ATOM     17  C   UNL     1      26.328 -22.392 -16.867  0.00  0.00    +0.006 C 
ENDBRANCH  10  12
ENDBRANCH   3   5
BRANCH   2  18
ATOM     18  C   UNL     1      36.025 -25.216 -13.581  0.00  0.00    +0.090 C 
ATOM     19  C   UNL     1      37.061 -24.088 -13.573  0.00  0.00    +0.090 C 
ATOM     20  C   UNL     1      36.663 -26.308 -14.438  0.00  0.00    +0.021 C 
ATOM     21  C   UNL     1      38.370 -24.859 -13.445  0.00  0.00    +0.021 C 
ATOM     22  C   UNL     1      38.174 -26.115 -14.295  0.00  0.00    +0.003 C 
BRANCH  19  24
ATOM     23  O   UNL     1      35.365 -21.831 -14.123  0.00  0.00    -0.270 OA
ATOM     24  N   UNL     1      37.043 -23.293 -14.778  0.00  0.00    -0.300 N 
ATOM     25  C   UNL     1      36.184 -22.213 -14.955  0.00  0.00    +0.252 C 
ATOM     26  H   UNL     1      37.666 -23.523 -15.505  0.00  0.00    +0.150 HD
BRANCH  25  29
ATOM     27 CL   UNL     1      35.252 -20.637 -20.116  0.00  0.00    -0.075 Cl
ATOM     28  S   UNL     1      35.178 -21.965 -17.461  0.00  0.00    -0.071 S 
ATOM     29  C   UNL     1      36.272 -21.512 -16.262  0.00  0.00    +0.084 C 
ATOM     30  C   UNL     1      37.138 -20.544 -16.599  0.00  0.00    +0.012 C 
ATOM     31  C   UNL     1      36.907 -20.126 -17.941  0.00  0.00    +0.019 C 
ATOM     32  C   UNL     1      35.869 -20.816 -18.527  0.00  0.00    +0.087 C 
ENDBRANCH  25  29
ENDBRANCH  19  24
ENDBRANCH   2  18
TORSDOF 5
ENDMDL
MODEL 8
REMARK VINA RESULT:      -9.4     12.964     17.721
REMARK  Name = 9954980
REMARK  5 active torsions:
REMARK  status: ('A' for Active; 'I' for Inactive)
REMARK    1  A    between atoms: N_2  and  C_18
REMARK    2  A    between atoms: C_3  and  C_5
REMARK    3  A    between atoms: C_10  and  N_12
REMARK    4  A    between atoms: C_19  and  N_24
REMARK    5  A    between atoms: C_25  and  C_29
REMARK                            x       y       z     vdW  Elec       q    Type
REMARK                         _______ _______ _______ _____ _____    ______ ____
ROOT
ATOM      1  O   UNL     1      31.140  -6.633 -20.819  0.00  0.00    -0.270 OA
ATOM      2  N   UNL     1      30.867  -6.258 -23.090  0.00  0.00    -0.301 N 
ATOM      3  C   UNL     1      31.187  -7.025 -21.981  0.00  0.00    +0.246 C 
ATOM      4  H   UNL     1      30.937  -6.664 -23.984  0.00  0.00    +0.150 HD
ENDROOT
BRANCH   3   5
ATOM      5  C   UNL     1      31.640  -8.412 -22.262  0.00  0.00    +0.053 C 
ATOM      6  C   UNL     1      30.908  -9.467 -21.757  0.00  0.00    +0.006 C 
ATOM      7  C   UNL     1      32.778  -8.601 -23.018  0.00  0.00    +0.006 C 
ATOM      8  C   UNL     1      31.333 -10.769 -22.020  0.00  0.00    +0.015 C 
ATOM      9  C   UNL     1      33.203  -9.903 -23.281  0.00  0.00    +0.015 C 
ATOM     10  C   UNL     1      32.481 -10.987 -22.782  0.00  0.00    +0.058 C 
BRANCH  10  12
ATOM     11  O   UNL     1      32.331 -12.307 -25.351  0.00  0.00    -0.269 OA
ATOM     12  N   UNL     1      32.924 -12.341 -23.056  0.00  0.00    -0.233 N 
ATOM     13  C   UNL     1      32.833 -12.861 -24.372  0.00  0.00    +0.257 C 
ATOM     14  C   UNL     1      33.419 -13.146 -22.028  0.00  0.00    +0.072 C 
ATOM     15  C   UNL     1      33.355 -14.248 -24.578  0.00  0.00    +0.059 C 
ATOM     16  C   UNL     1      33.848 -14.395 -22.231  0.00  0.00    +0.017 C 
ATOM     17  C   UNL     1      33.821 -14.958 -23.547  0.00  0.00    +0.006 C 
ENDBRANCH  10  12
ENDBRANCH   3   5
BRANCH   2  18
ATOM     18  C   UNL     1      30.438  -4.892 -22.984  0.00  0.00    +0.090 C 
ATOM     19  C   UNL     1      30.531  -4.101 -24.292  0.00  0.00    +0.090 C 
ATOM     20  C   UNL     1      31.266  -4.076 -21.990  0.00  0.00    +0.021 C 
ATOM     21  C   UNL     1      30.419  -2.661 -23.802  0.00  0.00    +0.021 C 
ATOM     22  C   UNL     1      31.197  -2.630 -22.485  0.00  0.00    +0.003 C 
BRANCH  19  24
ATOM     23  O   UNL     1      31.206  -6.355 -25.945  0.00  0.00    -0.270 OA
ATOM     24  N   UNL     1      31.771  -4.314 -24.998  0.00  0.00    -0.300 N 
ATOM     25  C   UNL     1      32.010  -5.441 -25.778  0.00  0.00    +0.252 C 
ATOM     26  H   UNL     1      32.479  -3.634 -24.924  0.00  0.00    +0.150 HD
BRANCH  25  29
ATOM     27 CL   UNL     1      36.078  -5.206 -29.436  0.00  0.00    -0.075 Cl
ATOM     28  S   UNL     1      33.459  -5.085 -28.042  0.00  0.00    -0.071 S 
ATOM     29  C   UNL     1      33.348  -5.524 -26.419  0.00  0.00    +0.084 C 
ATOM     30  C   UNL     1      34.494  -5.915 -25.842  0.00  0.00    +0.012 C 
ATOM     31  C   UNL     1      35.561  -5.860 -26.784  0.00  0.00    +0.019 C 
ATOM     32  C   UNL     1      35.138  -5.424 -28.020  0.00  0.00    +0.087 C 
ENDBRANCH  25  29
ENDBRANCH  19  24
ENDBRANCH   2  18
TORSDOF 5
ENDMDL
