MODEL 1
REMARK VINA RESULT:     -12.4      0.000      0.000
REMARK  Name = 9801640
REMARK  6 active torsions:
REMARK  status: ('A' for Active; 'I' for Inactive)
REMARK    1  A    between atoms: C_1  and  C_2
REMARK    2  A    between atoms: C_1  and  C_16
REMARK    3  A    between atoms: C_2  and  N_3
REMARK    4  A    between atoms: C_7  and  C_11
REMARK    5  A    between atoms: C_16  and  C_17
REMARK    6  A    between atoms: C_17  and  N_21
REMARK                            x       y       z     vdW  Elec       q    Type
REMARK                         _______ _______ _______ _____ _____    ______ ____
ROOT
ATOM      1  C   UNL     1      34.923 -17.270 -21.015  0.00  0.00    -0.021 C 
ENDROOT
BRANCH   1   2
ATOM      2  C   UNL     1      34.919 -16.680 -22.424  0.00  0.00    -0.077 C 
BRANCH   2   3
ATOM      3  N   UNL     1      34.465 -15.291 -22.391  0.00  0.00    +0.390 N 
ATOM      4  C   UNL     1      33.529 -15.013 -23.485  0.00  0.00    -0.072 C 
ATOM      5  C   UNL     1      33.852 -14.974 -21.091  0.00  0.00    -0.051 C 
ATOM      6  C   UNL     1      33.201 -13.513 -23.523  0.00  0.00    +0.005 C 
ATOM      7  C   UNL     1      32.838 -12.954 -22.166  0.00  0.00    -0.013 C 
ATOM      8  C   UNL     1      33.145 -13.646 -21.054  0.00  0.00    -0.052 C 
ATOM      9  H   UNL     1      35.280 -14.691 -22.516  0.00  0.00    -0.079 HD
BRANCH   7  11
ATOM     10  N   UNL     1      32.474 -10.756 -23.079  0.00  0.00    -0.244 NA
ATOM     11  C   UNL     1      32.150 -11.641 -22.108  0.00  0.00    +0.077 C 
ATOM     12  C   UNL     1      31.236 -11.380 -21.097  0.00  0.00    +0.019 C 
ATOM     13  C   UNL     1      30.617 -10.134 -21.083  0.00  0.00    +0.003 C 
ATOM     14  C   UNL     1      31.852  -9.555 -23.031  0.00  0.00    +0.099 C 
ATOM     15  C   UNL     1      30.926  -9.199 -22.065  0.00  0.00    +0.021 C 
ENDBRANCH   7  11
ENDBRANCH   2   3
ENDBRANCH   1   2
BRANCH   1  16
ATOM     16  C   UNL     1      35.552 -18.667 -21.005  0.00  0.00    +0.020 C 
BRANCH  16  17
ATOM     17  C   UNL     1      34.518 -19.778 -21.145  0.00  0.00    +0.099 C 
BRANCH  17  21
ATOM     18 CL   UNL     1      31.785 -19.711 -20.070  0.00  0.00    -0.062 Cl
ATOM     19  O   UNL     1      33.415 -22.686 -18.033  0.00  0.00    -0.448 OA
ATOM     20  O   UNL     1      36.622 -20.976 -19.809  0.00  0.00    -0.269 OA
ATOM     21  N   UNL     1      34.332 -20.533 -19.897  0.00  0.00    -0.244 N 
ATOM     22  C   UNL     1      35.511 -20.997 -19.273  0.00  0.00    +0.256 C 
ATOM     23  C   UNL     1      33.035 -20.740 -19.430  0.00  0.00    +0.151 C 
ATOM     24  C   UNL     1      35.492 -21.449 -17.862  0.00  0.00    +0.088 C 
ATOM     25  C   UNL     1      34.496 -22.255 -17.318  0.00  0.00    +0.150 C 
ATOM     26  C   UNL     1      32.645 -21.701 -18.584  0.00  0.00    +0.206 C 
ATOM     27  C   UNL     1      36.583 -21.084 -17.055  0.00  0.00    +0.008 C 
ATOM     28  C   UNL     1      34.592 -22.714 -15.999  0.00  0.00    +0.038 C 
ATOM     29  C   UNL     1      36.669 -21.523 -15.732  0.00  0.00    +0.000 C 
ATOM     30  C   UNL     1      35.674 -22.342 -15.206  0.00  0.00    +0.003 C 
ENDBRANCH  17  21
ENDBRANCH  16  17
ENDBRANCH   1  16
TORSDOF 6
ENDMDL
MODEL 2
REMARK VINA RESULT:     -12.1      4.811     11.903
REMARK  Name = 9801640
REMARK  6 active torsions:
REMARK  status: ('A' for Active; 'I' for Inactive)
REMARK    1  A    between atoms: C_1  and  C_2
REMARK    2  A    between atoms: C_1  and  C_16
REMARK    3  A    between atoms: C_2  and  N_3
REMARK    4  A    between atoms: C_7  and  C_11
REMARK    5  A    between atoms: C_16  and  C_17
REMARK    6  A    between atoms: C_17  and  N_21
REMARK                            x       y       z     vdW  Elec       q    Type
REMARK                         _______ _______ _______ _____ _____    ______ ____
ROOT
ATOM      1  C   UNL     1      32.008 -12.300 -22.828  0.00  0.00    -0.021 C 
ENDROOT
BRANCH   1   2
ATOM      2  C   UNL     1      33.400 -12.859 -23.118  0.00  0.00    -0.077 C 
BRANCH   2   3
ATOM      3  N   UNL     1      33.505 -14.234 -22.638  0.00  0.00    +0.390 N 
ATOM      4  C   UNL     1      34.489 -14.994 -23.415  0.00  0.00    -0.072 C 
ATOM      5  C   UNL     1      33.840 -14.262 -21.205  0.00  0.00    -0.051 C 
ATOM      6  C   UNL     1      34.455 -16.472 -22.998  0.00  0.00    +0.005 C 
ATOM      7  C   UNL     1      34.487 -16.663 -21.499  0.00  0.00    -0.013 C 
ATOM      8  C   UNL     1      34.201 -15.628 -20.687  0.00  0.00    -0.052 C 
ATOM      9  H   UNL     1      32.596 -14.680 -22.763  0.00  0.00    -0.079 HD
BRANCH   7  11
ATOM     10  N   UNL     1      36.113 -18.180 -20.576  0.00  0.00    -0.244 NA
ATOM     11  C   UNL     1      34.830 -18.005 -20.968  0.00  0.00    +0.077 C 
ATOM     12  C   UNL     1      33.858 -18.993 -20.897  0.00  0.00    +0.019 C 
ATOM     13  C   UNL     1      34.227 -20.236 -20.393  0.00  0.00    +0.003 C 
ATOM     14  C   UNL     1      36.434 -19.402 -20.092  0.00  0.00    +0.099 C 
ATOM     15  C   UNL     1      35.537 -20.452 -19.981  0.00  0.00    +0.021 C 
ENDBRANCH   7  11
ENDBRANCH   2   3
ENDBRANCH   1   2
BRANCH   1  16
ATOM     16  C   UNL     1      32.036 -11.340 -21.634  0.00  0.00    +0.020 C 
BRANCH  16  17
ATOM     17  C   UNL     1      30.814 -10.430 -21.584  0.00  0.00    +0.099 C 
BRANCH  17  21
ATOM     18 CL   UNL     1      30.833  -9.512 -18.794  0.00  0.00    -0.062 Cl
ATOM     19  O   UNL     1      32.775  -6.604 -20.646  0.00  0.00    -0.448 OA
ATOM     20  O   UNL     1      31.225  -8.725 -23.723  0.00  0.00    -0.269 OA
ATOM     21  N   UNL     1      31.175  -9.015 -21.407  0.00  0.00    -0.244 N 
ATOM     22  C   UNL     1      31.248  -8.243 -22.587  0.00  0.00    +0.256 C 
ATOM     23  C   UNL     1      31.422  -8.547 -20.118  0.00  0.00    +0.151 C 
ATOM     24  C   UNL     1      31.249  -6.762 -22.522  0.00  0.00    +0.088 C 
ATOM     25  C   UNL     1      31.992  -6.026 -21.605  0.00  0.00    +0.150 C 
ATOM     26  C   UNL     1      32.130  -7.457 -19.796  0.00  0.00    +0.206 C 
ATOM     27  C   UNL     1      30.500  -6.075 -23.492  0.00  0.00    +0.008 C 
ATOM     28  C   UNL     1      32.012  -4.628 -21.661  0.00  0.00    +0.038 C 
ATOM     29  C   UNL     1      30.501  -4.680 -23.537  0.00  0.00    +0.000 C 
ATOM     30  C   UNL     1      31.261  -3.956 -22.623  0.00  0.00    +0.003 C 
ENDBRANCH  17  21
ENDBRANCH  16  17
ENDBRANCH   1  16
TORSDOF 6
ENDMDL
MODEL 3
REMARK VINA RESULT:     -12.1      3.256      5.475
REMARK  Name = 9801640
REMARK  6 active torsions:
REMARK  status: ('A' for Active; 'I' for Inactive)
REMARK    1  A    between atoms: C_1  and  C_2
REMARK    2  A    between atoms: C_1  and  C_16
REMARK    3  A    between atoms: C_2  and  N_3
REMARK    4  A    between atoms: C_7  and  C_11
REMARK    5  A    between atoms: C_16  and  C_17
REMARK    6  A    between atoms: C_17  and  N_21
REMARK                            x       y       z     vdW  Elec       q    Type
REMARK                         _______ _______ _______ _____ _____    ______ ____
ROOT
ATOM      1  C   UNL     1      34.435 -22.043 -18.828  0.00  0.00    -0.021 C 
ENDROOT
BRANCH   1   2
ATOM      2  C   UNL     1      35.665 -21.173 -19.082  0.00  0.00    -0.077 C 
BRANCH   2   3
ATOM      3  N   UNL     1      35.281 -19.941 -19.767  0.00  0.00    +0.390 N 
ATOM      4  C   UNL     1      36.398 -19.399 -20.547  0.00  0.00    -0.072 C 
ATOM      5  C   UNL     1      34.108 -20.165 -20.627  0.00  0.00    -0.051 C 
ATOM      6  C   UNL     1      36.019 -18.024 -21.117  0.00  0.00    +0.005 C 
ATOM      7  C   UNL     1      34.663 -18.017 -21.786  0.00  0.00    -0.013 C 
ATOM      8  C   UNL     1      33.795 -19.017 -21.548  0.00  0.00    -0.052 C 
ATOM      9  H   UNL     1      35.031 -19.252 -19.058  0.00  0.00    -0.079 HD
BRANCH   7  11
ATOM     10  N   UNL     1      33.917 -17.223 -23.933  0.00  0.00    -0.244 NA
ATOM     11  C   UNL     1      34.330 -16.888 -22.689  0.00  0.00    +0.077 C 
ATOM     12  C   UNL     1      34.451 -15.581 -22.241  0.00  0.00    +0.019 C 
ATOM     13  C   UNL     1      34.128 -14.556 -23.124  0.00  0.00    +0.003 C 
ATOM     14  C   UNL     1      33.613 -16.199 -24.764  0.00  0.00    +0.099 C 
ATOM     15  C   UNL     1      33.700 -14.863 -24.411  0.00  0.00    +0.021 C 
ENDBRANCH   7  11
ENDBRANCH   2   3
ENDBRANCH   1   2
BRANCH   1  16
ATOM     16  C   UNL     1      33.920 -21.866 -17.396  0.00  0.00    +0.020 C 
BRANCH  16  17
ATOM     17  C   UNL     1      33.321 -23.147 -16.825  0.00  0.00    +0.099 C 
BRANCH  17  21
ATOM     18 CL   UNL     1      31.005 -22.338 -15.210  0.00  0.00    -0.062 Cl
ATOM     19  O   UNL     1      33.228 -24.282 -12.576  0.00  0.00    -0.448 OA
ATOM     20  O   UNL     1      35.750 -23.855 -15.710  0.00  0.00    -0.269 OA
ATOM     21  N   UNL     1      33.518 -23.261 -15.373  0.00  0.00    -0.244 N 
ATOM     22  C   UNL     1      34.838 -23.527 -14.947  0.00  0.00    +0.256 C 
ATOM     23  C   UNL     1      32.414 -23.109 -14.537  0.00  0.00    +0.151 C 
ATOM     24  C   UNL     1      35.233 -23.315 -13.534  0.00  0.00    +0.088 C 
ATOM     25  C   UNL     1      34.455 -23.697 -12.445  0.00  0.00    +0.150 C 
ATOM     26  C   UNL     1      32.306 -23.561 -13.281  0.00  0.00    +0.206 C 
ATOM     27  C   UNL     1      36.498 -22.751 -13.297  0.00  0.00    +0.008 C 
ATOM     28  C   UNL     1      34.934 -23.545 -11.139  0.00  0.00    +0.038 C 
ATOM     29  C   UNL     1      36.968 -22.578 -11.994  0.00  0.00    +0.000 C 
ATOM     30  C   UNL     1      36.187 -22.979 -10.914  0.00  0.00    +0.003 C 
ENDBRANCH  17  21
ENDBRANCH  16  17
ENDBRANCH   1  16
TORSDOF 6
ENDMDL
MODEL 4
REMARK VINA RESULT:     -12.0      4.181     10.578
REMARK  Name = 9801640
REMARK  6 active torsions:
REMARK  status: ('A' for Active; 'I' for Inactive)
REMARK    1  A    between atoms: C_1  and  C_2
REMARK    2  A    between atoms: C_1  and  C_16
REMARK    3  A    between atoms: C_2  and  N_3
REMARK    4  A    between atoms: C_7  and  C_11
REMARK    5  A    between atoms: C_16  and  C_17
REMARK    6  A    between atoms: C_17  and  N_21
REMARK                            x       y       z     vdW  Elec       q    Type
REMARK                         _______ _______ _______ _____ _____    ______ ____
ROOT
ATOM      1  C   UNL     1      33.290 -14.349 -23.626  0.00  0.00    -0.021 C 
ENDROOT
BRANCH   1   2
ATOM      2  C   UNL     1      34.471 -15.162 -24.155  0.00  0.00    -0.077 C 
BRANCH   2   3
ATOM      3  N   UNL     1      34.731 -16.304 -23.282  0.00  0.00    +0.390 N 
ATOM      4  C   UNL     1      34.474 -15.968 -21.878  0.00  0.00    -0.072 C 
ATOM      5  C   UNL     1      33.929 -17.468 -23.692  0.00  0.00    -0.051 C 
ATOM      6  C   UNL     1      34.914 -17.128 -20.973  0.00  0.00    +0.005 C 
ATOM      7  C   UNL     1      34.407 -18.472 -21.449  0.00  0.00    -0.013 C 
ATOM      8  C   UNL     1      33.954 -18.607 -22.709  0.00  0.00    -0.052 C 
ATOM      9  H   UNL     1      35.717 -16.548 -23.370  0.00  0.00    -0.079 HD
BRANCH   7  11
ATOM     10  N   UNL     1      35.654 -19.974 -20.040  0.00  0.00    -0.244 NA
ATOM     11  C   UNL     1      34.434 -19.610 -20.498  0.00  0.00    +0.077 C 
ATOM     12  C   UNL     1      33.252 -20.234 -20.129  0.00  0.00    +0.019 C 
ATOM     13  C   UNL     1      33.326 -21.298 -19.236  0.00  0.00    +0.003 C 
ATOM     14  C   UNL     1      35.687 -21.012 -19.173  0.00  0.00    +0.099 C 
ATOM     15  C   UNL     1      34.564 -21.700 -18.744  0.00  0.00    +0.021 C 
ENDBRANCH   7  11
ENDBRANCH   2   3
ENDBRANCH   1   2
BRANCH   1  16
ATOM     16  C   UNL     1      33.732 -12.944 -23.205  0.00  0.00    +0.020 C 
BRANCH  16  17
ATOM     17  C   UNL     1      33.041 -11.846 -24.007  0.00  0.00    +0.099 C 
BRANCH  17  21
ATOM     18 CL   UNL     1      34.851  -9.565 -24.388  0.00  0.00    -0.062 Cl
ATOM     19  O   UNL     1      31.805  -7.910 -22.479  0.00  0.00    -0.448 OA
ATOM     20  O   UNL     1      31.035 -11.864 -22.103  0.00  0.00    -0.269 OA
ATOM     21  N   UNL     1      32.722 -10.669 -23.187  0.00  0.00    -0.244 N 
ATOM     22  C   UNL     1      31.745 -10.859 -22.184  0.00  0.00    +0.256 C 
ATOM     23  C   UNL     1      33.385  -9.472 -23.453  0.00  0.00    +0.151 C 
ATOM     24  C   UNL     1      31.593  -9.879 -21.082  0.00  0.00    +0.088 C 
ATOM     25  C   UNL     1      31.612  -8.500 -21.262  0.00  0.00    +0.150 C 
ATOM     26  C   UNL     1      32.966  -8.246 -23.117  0.00  0.00    +0.206 C 
ATOM     27  C   UNL     1      31.354 -10.391 -19.795  0.00  0.00    +0.008 C 
ATOM     28  C   UNL     1      31.373  -7.637 -20.185  0.00  0.00    +0.038 C 
ATOM     29  C   UNL     1      31.138  -9.531 -18.716  0.00  0.00    +0.000 C 
ATOM     30  C   UNL     1      31.143  -8.154 -18.913  0.00  0.00    +0.003 C 
ENDBRANCH  17  21
ENDBRANCH  16  17
ENDBRANCH   1  16
TORSDOF 6
ENDMDL
MODEL 5
REMARK VINA RESULT:     -12.0      3.410      6.095
REMARK  Name = 9801640
REMARK  6 active torsions:
REMARK  status: ('A' for Active; 'I' for Inactive)
REMARK    1  A    between atoms: C_1  and  C_2
REMARK    2  A    between atoms: C_1  and  C_16
REMARK    3  A    between atoms: C_2  and  N_3
REMARK    4  A    between atoms: C_7  and  C_11
REMARK    5  A    between atoms: C_16  and  C_17
REMARK    6  A    between atoms: C_17  and  N_21
REMARK                            x       y       z     vdW  Elec       q    Type
REMARK                         _______ _______ _______ _____ _____    ______ ____
ROOT
ATOM      1  C   UNL     1      36.294 -21.136 -17.476  0.00  0.00    -0.021 C 
ENDROOT
BRANCH   1   2
ATOM      2  C   UNL     1      35.663 -21.401 -18.842  0.00  0.00    -0.077 C 
BRANCH   2   3
ATOM      3  N   UNL     1      35.356 -20.139 -19.512  0.00  0.00    +0.390 N 
ATOM      4  C   UNL     1      36.422 -19.760 -20.443  0.00  0.00    -0.072 C 
ATOM      5  C   UNL     1      34.062 -20.221 -20.209  0.00  0.00    -0.051 C 
ATOM      6  C   UNL     1      36.152 -18.356 -21.004  0.00  0.00    +0.005 C 
ATOM      7  C   UNL     1      34.732 -18.181 -21.496  0.00  0.00    -0.013 C 
ATOM      8  C   UNL     1      33.781 -19.055 -21.119  0.00  0.00    -0.052 C 
ATOM      9  H   UNL     1      35.290 -19.413 -18.799  0.00  0.00    -0.079 HD
BRANCH   7  11
ATOM     10  N   UNL     1      34.143 -17.334 -23.671  0.00  0.00    -0.244 NA
ATOM     11  C   UNL     1      34.433 -17.032 -22.385  0.00  0.00    +0.077 C 
ATOM     12  C   UNL     1      34.461 -15.739 -21.882  0.00  0.00    +0.019 C 
ATOM     13  C   UNL     1      34.174 -14.694 -22.753  0.00  0.00    +0.003 C 
ATOM     14  C   UNL     1      33.870 -16.291 -24.489  0.00  0.00    +0.099 C 
ATOM     15  C   UNL     1      33.872 -14.967 -24.083  0.00  0.00    +0.021 C 
ENDBRANCH   7  11
ENDBRANCH   2   3
ENDBRANCH   1   2
BRANCH   1  16
ATOM     16  C   UNL     1      35.392 -21.640 -16.345  0.00  0.00    +0.020 C 
BRANCH  16  17
ATOM     17  C   UNL     1      34.369 -22.665 -16.823  0.00  0.00    +0.099 C 
BRANCH  17  21
ATOM     18 CL   UNL     1      35.672 -24.422 -14.862  0.00  0.00    -0.062 Cl
ATOM     19  O   UNL     1      32.333 -23.410 -12.994  0.00  0.00    -0.448 OA
ATOM     20  O   UNL     1      31.661 -22.106 -16.765  0.00  0.00    -0.269 OA
ATOM     21  N   UNL     1      33.491 -23.130 -15.739  0.00  0.00    -0.244 N 
ATOM     22  C   UNL     1      32.114 -22.858 -15.898  0.00  0.00    +0.256 C 
ATOM     23  C   UNL     1      34.066 -23.784 -14.651  0.00  0.00    +0.151 C 
ATOM     24  C   UNL     1      31.104 -23.567 -15.077  0.00  0.00    +0.088 C 
ATOM     25  C   UNL     1      31.236 -23.795 -13.711  0.00  0.00    +0.150 C 
ATOM     26  C   UNL     1      33.526 -23.912 -13.432  0.00  0.00    +0.206 C 
ATOM     27  C   UNL     1      29.922 -23.972 -15.720  0.00  0.00    +0.008 C 
ATOM     28  C   UNL     1      30.200 -24.394 -12.985  0.00  0.00    +0.038 C 
ATOM     29  C   UNL     1      28.896 -24.590 -15.001  0.00  0.00    +0.000 C 
ATOM     30  C   UNL     1      29.034 -24.797 -13.632  0.00  0.00    +0.003 C 
ENDBRANCH  17  21
ENDBRANCH  16  17
ENDBRANCH   1  16
TORSDOF 6
ENDMDL
MODEL 6
REMARK VINA RESULT:     -11.7      4.288      7.063
REMARK  Name = 9801640
REMARK  6 active torsions:
REMARK  status: ('A' for Active; 'I' for Inactive)
REMARK    1  A    between atoms: C_1  and  C_2
REMARK    2  A    between atoms: C_1  and  C_16
REMARK    3  A    between atoms: C_2  and  N_3
REMARK    4  A    between atoms: C_7  and  C_11
REMARK    5  A    between atoms: C_16  and  C_17
REMARK    6  A    between atoms: C_17  and  N_21
REMARK                            x       y       z     vdW  Elec       q    Type
REMARK                         _______ _______ _______ _____ _____    ______ ____
ROOT
ATOM      1  C   UNL     1      32.559 -22.452 -16.497  0.00  0.00    -0.021 C 
ENDROOT
BRANCH   1   2
ATOM      2  C   UNL     1      33.205 -23.181 -17.675  0.00  0.00    -0.077 C 
BRANCH   2   3
ATOM      3  N   UNL     1      33.395 -22.264 -18.796  0.00  0.00    +0.390 N 
ATOM      4  C   UNL     1      32.406 -21.182 -18.770  0.00  0.00    -0.072 C 
ATOM      5  C   UNL     1      34.762 -21.719 -18.798  0.00  0.00    -0.051 C 
ATOM      6  C   UNL     1      32.525 -20.335 -20.045  0.00  0.00    +0.005 C 
ATOM      7  C   UNL     1      33.950 -19.939 -20.360  0.00  0.00    -0.013 C 
ATOM      8  C   UNL     1      34.970 -20.590 -19.771  0.00  0.00    -0.052 C 
ATOM      9  H   UNL     1      33.259 -22.791 -19.659  0.00  0.00    -0.079 HD
BRANCH   7  11
ATOM     10  N   UNL     1      34.694 -17.695 -20.814  0.00  0.00    -0.244 NA
ATOM     11  C   UNL     1      34.176 -18.836 -21.325  0.00  0.00    +0.077 C 
ATOM     12  C   UNL     1      33.860 -19.009 -22.665  0.00  0.00    +0.019 C 
ATOM     13  C   UNL     1      34.090 -17.946 -23.532  0.00  0.00    +0.003 C 
ATOM     14  C   UNL     1      34.902 -16.683 -21.687  0.00  0.00    +0.099 C 
ATOM     15  C   UNL     1      34.620 -16.758 -23.042  0.00  0.00    +0.021 C 
ENDBRANCH   7  11
ENDBRANCH   2   3
ENDBRANCH   1   2
BRANCH   1  16
ATOM     16  C   UNL     1      33.010 -23.053 -15.162  0.00  0.00    +0.020 C 
BRANCH  16  17
ATOM     17  C   UNL     1      34.230 -22.344 -14.582  0.00  0.00    +0.099 C 
BRANCH  17  21
ATOM     18 CL   UNL     1      34.041 -23.134 -11.759  0.00  0.00    -0.062 Cl
ATOM     19  O   UNL     1      36.531 -25.839 -13.223  0.00  0.00    -0.448 OA
ATOM     20  O   UNL     1      36.315 -23.131 -16.220  0.00  0.00    -0.269 OA
ATOM     21  N   UNL     1      35.268 -23.286 -14.139  0.00  0.00    -0.244 N 
ATOM     22  C   UNL     1      36.327 -23.512 -15.047  0.00  0.00    +0.256 C 
ATOM     23  C   UNL     1      35.136 -23.883 -12.887  0.00  0.00    +0.151 C 
ATOM     24  C   UNL     1      37.589 -24.144 -14.594  0.00  0.00    +0.088 C 
ATOM     25  C   UNL     1      37.644 -25.246 -13.747  0.00  0.00    +0.150 C 
ATOM     26  C   UNL     1      35.720 -25.020 -12.488  0.00  0.00    +0.206 C 
ATOM     27  C   UNL     1      38.789 -23.625 -15.109  0.00  0.00    +0.008 C 
ATOM     28  C   UNL     1      38.871 -25.843 -13.433  0.00  0.00    +0.038 C 
ATOM     29  C   UNL     1      40.015 -24.206 -14.779  0.00  0.00    +0.000 C 
ATOM     30  C   UNL     1      40.055 -25.318 -13.944  0.00  0.00    +0.003 C 
ENDBRANCH  17  21
ENDBRANCH  16  17
ENDBRANCH   1  16
TORSDOF 6
ENDMDL
MODEL 7
REMARK VINA RESULT:     -11.4      5.468     12.277
REMARK  Name = 9801640
REMARK  6 active torsions:
REMARK  status: ('A' for Active; 'I' for Inactive)
REMARK    1  A    between atoms: C_1  and  C_2
REMARK    2  A    between atoms: C_1  and  C_16
REMARK    3  A    between atoms: C_2  and  N_3
REMARK    4  A    between atoms: C_7  and  C_11
REMARK    5  A    between atoms: C_16  and  C_17
REMARK    6  A    between atoms: C_17  and  N_21
REMARK                            x       y       z     vdW  Elec       q    Type
REMARK                         _______ _______ _______ _____ _____    ______ ____
ROOT
ATOM      1  C   UNL     1      31.566 -11.326 -21.996  0.00  0.00    -0.021 C 
ENDROOT
BRANCH   1   2
ATOM      2  C   UNL     1      32.951 -11.321 -22.642  0.00  0.00    -0.077 C 
BRANCH   2   3
ATOM      3  N   UNL     1      33.614 -12.605 -22.429  0.00  0.00    +0.390 N 
ATOM      4  C   UNL     1      33.059 -13.301 -21.264  0.00  0.00    -0.072 C 
ATOM      5  C   UNL     1      33.519 -13.447 -23.632  0.00  0.00    -0.051 C 
ATOM      6  C   UNL     1      33.885 -14.562 -20.968  0.00  0.00    +0.005 C 
ATOM      7  C   UNL     1      34.140 -15.403 -22.198  0.00  0.00    -0.013 C 
ATOM      8  C   UNL     1      33.963 -14.870 -23.421  0.00  0.00    -0.052 C 
ATOM      9  H   UNL     1      34.600 -12.421 -22.244  0.00  0.00    -0.079 HD
BRANCH   7  11
ATOM     10  N   UNL     1      35.245 -17.071 -20.859  0.00  0.00    -0.244 NA
ATOM     11  C   UNL     1      34.589 -16.804 -22.011  0.00  0.00    +0.077 C 
ATOM     12  C   UNL     1      34.329 -17.754 -22.990  0.00  0.00    +0.019 C 
ATOM     13  C   UNL     1      34.770 -19.054 -22.771  0.00  0.00    +0.003 C 
ATOM     14  C   UNL     1      35.660 -18.346 -20.682  0.00  0.00    +0.099 C 
ATOM     15  C   UNL     1      35.449 -19.364 -21.597  0.00  0.00    +0.021 C 
ENDBRANCH   7  11
ENDBRANCH   2   3
ENDBRANCH   1   2
BRANCH   1  16
ATOM     16  C   UNL     1      31.417 -10.170 -21.002  0.00  0.00    +0.020 C 
BRANCH  16  17
ATOM     17  C   UNL     1      30.657  -8.985 -21.589  0.00  0.00    +0.099 C 
BRANCH  17  21
ATOM     18 CL   UNL     1      31.500  -7.084 -19.515  0.00  0.00    -0.062 Cl
ATOM     19  O   UNL     1      34.057  -6.326 -22.438  0.00  0.00    -0.448 OA
ATOM     20  O   UNL     1      31.314  -8.678 -24.258  0.00  0.00    -0.269 OA
ATOM     21  N   UNL     1      31.554  -7.921 -22.062  0.00  0.00    -0.244 N 
ATOM     22  C   UNL     1      31.713  -7.824 -23.462  0.00  0.00    +0.256 C 
ATOM     23  C   UNL     1      32.177  -7.106 -21.119  0.00  0.00    +0.151 C 
ATOM     24  C   UNL     1      32.290  -6.603 -24.074  0.00  0.00    +0.088 C 
ATOM     25  C   UNL     1      33.402  -5.935 -23.571  0.00  0.00    +0.150 C 
ATOM     26  C   UNL     1      33.290  -6.387 -21.309  0.00  0.00    +0.206 C 
ATOM     27  C   UNL     1      31.705  -6.142 -25.266  0.00  0.00    +0.008 C 
ATOM     28  C   UNL     1      33.943  -4.838 -24.253  0.00  0.00    +0.038 C 
ATOM     29  C   UNL     1      32.231  -5.036 -25.936  0.00  0.00    +0.000 C 
ATOM     30  C   UNL     1      33.353  -4.386 -25.431  0.00  0.00    +0.003 C 
ENDBRANCH  17  21
ENDBRANCH  16  17
ENDBRANCH   1  16
TORSDOF 6
ENDMDL
MODEL 8
REMARK VINA RESULT:     -11.4      2.675      4.595
REMARK  Name = 9801640
REMARK  6 active torsions:
REMARK  status: ('A' for Active; 'I' for Inactive)
REMARK    1  A    between atoms: C_1  and  C_2
REMARK    2  A    between atoms: C_1  and  C_16
REMARK    3  A    between atoms: C_2  and  N_3
REMARK    4  A    between atoms: C_7  and  C_11
REMARK    5  A    between atoms: C_16  and  C_17
REMARK    6  A    between atoms: C_17  and  N_21
REMARK                            x       y       z     vdW  Elec       q    Type
REMARK                         _______ _______ _______ _____ _____    ______ ____
ROOT
ATOM      1  C   UNL     1      34.801 -20.874 -19.228  0.00  0.00    -0.021 C 
ENDROOT
BRANCH   1   2
ATOM      2  C   UNL     1      35.465 -20.448 -20.536  0.00  0.00    -0.077 C 
BRANCH   2   3
ATOM      3  N   UNL     1      34.857 -19.217 -21.036  0.00  0.00    +0.390 N 
ATOM      4  C   UNL     1      35.734 -18.064 -20.812  0.00  0.00    -0.072 C 
ATOM      5  C   UNL     1      34.520 -19.344 -22.463  0.00  0.00    -0.051 C 
ATOM      6  C   UNL     1      35.002 -16.769 -21.194  0.00  0.00    +0.005 C 
ATOM      7  C   UNL     1      34.325 -16.850 -22.544  0.00  0.00    -0.013 C 
ATOM      8  C   UNL     1      34.114 -18.050 -23.115  0.00  0.00    -0.052 C 
ATOM      9  H   UNL     1      33.994 -19.060 -20.516  0.00  0.00    -0.079 HD
BRANCH   7  11
ATOM     10  N   UNL     1      33.530 -15.682 -24.493  0.00  0.00    -0.244 NA
ATOM     11  C   UNL     1      33.906 -15.586 -23.197  0.00  0.00    +0.077 C 
ATOM     12  C   UNL     1      33.917 -14.397 -22.482  0.00  0.00    +0.019 C 
ATOM     13  C   UNL     1      33.517 -13.238 -23.137  0.00  0.00    +0.003 C 
ATOM     14  C   UNL     1      33.148 -14.533 -25.097  0.00  0.00    +0.099 C 
ATOM     15  C   UNL     1      33.124 -13.299 -24.470  0.00  0.00    +0.021 C 
ENDBRANCH   7  11
ENDBRANCH   2   3
ENDBRANCH   1   2
BRANCH   1  16
ATOM     16  C   UNL     1      35.797 -21.593 -18.313  0.00  0.00    +0.020 C 
BRANCH  16  17
ATOM     17  C   UNL     1      35.585 -21.263 -16.839  0.00  0.00    +0.099 C 
BRANCH  17  21
ATOM     18 CL   UNL     1      32.961 -22.433 -16.224  0.00  0.00    -0.062 Cl
ATOM     19  O   UNL     1      35.441 -25.329 -15.165  0.00  0.00    -0.448 OA
ATOM     20  O   UNL     1      37.938 -22.195 -15.724  0.00  0.00    -0.269 OA
ATOM     21  N   UNL     1      35.632 -22.458 -15.984  0.00  0.00    -0.244 N 
ATOM     22  C   UNL     1      36.885 -22.752 -15.401  0.00  0.00    +0.256 C 
ATOM     23  C   UNL     1      34.468 -23.205 -15.817  0.00  0.00    +0.151 C 
ATOM     24  C   UNL     1      36.986 -23.695 -14.262  0.00  0.00    +0.088 C 
ATOM     25  C   UNL     1      36.302 -24.905 -14.193  0.00  0.00    +0.150 C 
ATOM     26  C   UNL     1      34.400 -24.487 -15.436  0.00  0.00    +0.206 C 
ATOM     27  C   UNL     1      37.876 -23.361 -13.227  0.00  0.00    +0.008 C 
ATOM     28  C   UNL     1      36.516 -25.785 -13.126  0.00  0.00    +0.038 C 
ATOM     29  C   UNL     1      38.074 -24.228 -12.150  0.00  0.00    +0.000 C 
ATOM     30  C   UNL     1      37.396 -25.443 -12.103  0.00  0.00    +0.003 C 
ENDBRANCH  17  21
ENDBRANCH  16  17
ENDBRANCH   1  16
TORSDOF 6
ENDMDL
MODEL 9
REMARK VINA RESULT:     -11.2      4.483      7.295
REMARK  Name = 9801640
REMARK  6 active torsions:
REMARK  status: ('A' for Active; 'I' for Inactive)
REMARK    1  A    between atoms: C_1  and  C_2
REMARK    2  A    between atoms: C_1  and  C_16
REMARK    3  A    between atoms: C_2  and  N_3
REMARK    4  A    between atoms: C_7  and  C_11
REMARK    5  A    between atoms: C_16  and  C_17
REMARK    6  A    between atoms: C_17  and  N_21
REMARK                            x       y       z     vdW  Elec       q    Type
REMARK                         _______ _______ _______ _____ _____    ______ ____
ROOT
ATOM      1  C   UNL     1      34.192 -22.748 -16.253  0.00  0.00    -0.021 C 
ENDROOT
BRANCH   1   2
ATOM      2  C   UNL     1      33.287 -22.729 -17.485  0.00  0.00    -0.077 C 
BRANCH   2   3
ATOM      3  N   UNL     1      33.563 -21.548 -18.299  0.00  0.00    +0.390 N 
ATOM      4  C   UNL     1      34.705 -21.775 -19.191  0.00  0.00    -0.072 C 
ATOM      5  C   UNL     1      32.373 -21.155 -19.069  0.00  0.00    -0.051 C 
ATOM      6  C   UNL     1      35.074 -20.468 -19.909  0.00  0.00    +0.005 C 
ATOM      7  C   UNL     1      33.877 -19.767 -20.510  0.00  0.00    -0.013 C 
ATOM      8  C   UNL     1      32.636 -20.100 -20.110  0.00  0.00    -0.052 C 
ATOM      9  H   UNL     1      33.805 -20.783 -17.670  0.00  0.00    -0.079 HD
BRANCH   7  11
ATOM     10  N   UNL     1      33.647 -18.974 -22.772  0.00  0.00    -0.244 NA
ATOM     11  C   UNL     1      34.116 -18.716 -21.529  0.00  0.00    +0.077 C 
ATOM     12  C   UNL     1      34.787 -17.552 -21.183  0.00  0.00    +0.019 C 
ATOM     13  C   UNL     1      34.989 -16.596 -22.173  0.00  0.00    +0.003 C 
ATOM     14  C   UNL     1      33.862 -18.022 -23.708  0.00  0.00    +0.099 C 
ATOM     15  C   UNL     1      34.520 -16.828 -23.462  0.00  0.00    +0.021 C 
ENDBRANCH   7  11
ENDBRANCH   2   3
ENDBRANCH   1   2
BRANCH   1  16
ATOM     16  C   UNL     1      33.370 -22.871 -14.967  0.00  0.00    +0.020 C 
BRANCH  16  17
ATOM     17  C   UNL     1      33.457 -24.260 -14.344  0.00  0.00    +0.099 C 
BRANCH  17  21
ATOM     18 CL   UNL     1      33.845 -22.924 -11.757  0.00  0.00    -0.062 Cl
ATOM     19  O   UNL     1      36.783 -25.575 -11.782  0.00  0.00    -0.448 OA
ATOM     20  O   UNL     1      35.458 -25.695 -15.603  0.00  0.00    -0.269 OA
ATOM     21  N   UNL     1      34.761 -24.512 -13.715  0.00  0.00    -0.244 N 
ATOM     22  C   UNL     1      35.720 -25.167 -14.519  0.00  0.00    +0.256 C 
ATOM     23  C   UNL     1      34.955 -24.103 -12.397  0.00  0.00    +0.151 C 
ATOM     24  C   UNL     1      37.154 -25.162 -14.141  0.00  0.00    +0.088 C 
ATOM     25  C   UNL     1      37.615 -25.372 -12.846  0.00  0.00    +0.150 C 
ATOM     26  C   UNL     1      35.875 -24.580 -11.549  0.00  0.00    +0.206 C 
ATOM     27  C   UNL     1      38.090 -24.996 -15.175  0.00  0.00    +0.008 C 
ATOM     28  C   UNL     1      38.988 -25.440 -12.581  0.00  0.00    +0.038 C 
ATOM     29  C   UNL     1      39.461 -25.042 -14.909  0.00  0.00    +0.000 C 
ATOM     30  C   UNL     1      39.909 -25.269 -13.611  0.00  0.00    +0.003 C 
ENDBRANCH  17  21
ENDBRANCH  16  17
ENDBRANCH   1  16
TORSDOF 6
ENDMDL
