MODEL 1
REMARK VINA RESULT:     -11.8      0.000      0.000
REMARK  Name = 119396
REMARK  4 active torsions:
REMARK  status: ('A' for Active; 'I' for Inactive)
REMARK    1  A    between atoms: C_9  and  O_16
REMARK    2  A    between atoms: C_11  and  O_18
REMARK    3  A    between atoms: C_12  and  C_21
REMARK    4  A    between atoms: C_21  and  O_22
REMARK                            x       y       z     vdW  Elec       q    Type
REMARK                         _______ _______ _______ _____ _____    ______ ____
ROOT
ATOM      1  O   UNL     1      33.097 -15.933 -25.381  0.00  0.00    -0.286 OA
ATOM      2  C   UNL     1      34.244 -14.677 -21.574  0.00  0.00    +0.053 C 
ATOM      3  C   UNL     1      34.358 -16.111 -22.013  0.00  0.00    -0.012 C 
ATOM      4  C   UNL     1      33.691 -13.725 -22.599  0.00  0.00    -0.012 C 
ATOM      5  C   UNL     1      33.975 -16.536 -23.289  0.00  0.00    +0.069 C 
ATOM      6  C   UNL     1      33.306 -14.142 -23.879  0.00  0.00    +0.069 C 
ATOM      7  C   UNL     1      33.436 -15.564 -24.264  0.00  0.00    +0.201 C 
ATOM      8  C   UNL     1      34.867 -17.056 -21.109  0.00  0.00    +0.003 C 
ATOM      9  C   UNL     1      34.099 -17.884 -23.655  0.00  0.00    +0.137 C 
ATOM     10  C   UNL     1      33.557 -12.369 -22.261  0.00  0.00    -0.004 C 
ATOM     11  C   UNL     1      32.796 -13.221 -24.802  0.00  0.00    +0.136 C 
ATOM     12  C   UNL     1      34.990 -18.397 -21.473  0.00  0.00    +0.078 C 
ATOM     13  C   UNL     1      34.607 -18.810 -22.746  0.00  0.00    +0.043 C 
ATOM     14  C   UNL     1      33.049 -11.452 -23.181  0.00  0.00    +0.003 C 
ATOM     15  C   UNL     1      32.669 -11.878 -24.450  0.00  0.00    +0.037 C 
ENDROOT
BRANCH   9  16
ATOM     16  O   UNL     1      33.744 -18.354 -24.885  0.00  0.00    -0.505 OA
ATOM     17  H   UNL     1      32.984 -18.015 -25.315  0.00  0.00    +0.292 HD
ENDBRANCH   9  16
BRANCH  11  18
ATOM     18  O   UNL     1      32.405 -13.570 -26.061  0.00  0.00    -0.505 OA
ATOM     19  H   UNL     1      31.568 -13.969 -26.197  0.00  0.00    +0.292 HD
ENDBRANCH  11  18
BRANCH  12  21
ATOM     20  O   UNL     1      35.045 -20.466 -20.264  0.00  0.00    -0.245 OA
ATOM     21  C   UNL     1      35.521 -19.363 -20.524  0.00  0.00    +0.338 C 
BRANCH  21  22
ATOM     22  O   UNL     1      36.653 -18.911 -19.916  0.00  0.00    -0.477 OA
ATOM     23  H   UNL     1      36.781 -19.053 -18.999  0.00  0.00    +0.295 HD
ENDBRANCH  21  22
ENDBRANCH  12  21
TORSDOF 4
ENDMDL
MODEL 2
REMARK VINA RESULT:     -10.9      4.449      8.830
REMARK  Name = 119396
REMARK  4 active torsions:
REMARK  status: ('A' for Active; 'I' for Inactive)
REMARK    1  A    between atoms: C_9  and  O_16
REMARK    2  A    between atoms: C_11  and  O_18
REMARK    3  A    between atoms: C_12  and  C_21
REMARK    4  A    between atoms: C_21  and  O_22
REMARK                            x       y       z     vdW  Elec       q    Type
REMARK                         _______ _______ _______ _____ _____    ______ ____
ROOT
ATOM      1  O   UNL     1      32.027 -21.929 -18.294  0.00  0.00    -0.286 OA
ATOM      2  C   UNL     1      36.116 -21.221 -17.896  0.00  0.00    +0.053 C 
ATOM      3  C   UNL     1      35.304 -20.621 -19.011  0.00  0.00    -0.012 C 
ATOM      4  C   UNL     1      35.357 -22.091 -16.933  0.00  0.00    -0.012 C 
ATOM      5  C   UNL     1      33.932 -20.856 -19.148  0.00  0.00    +0.069 C 
ATOM      6  C   UNL     1      33.984 -22.330 -17.062  0.00  0.00    +0.069 C 
ATOM      7  C   UNL     1      33.227 -21.720 -18.177  0.00  0.00    +0.201 C 
ATOM      8  C   UNL     1      35.946 -19.797 -19.948  0.00  0.00    +0.003 C 
ATOM      9  C   UNL     1      33.215 -20.277 -20.203  0.00  0.00    +0.137 C 
ATOM     10  C   UNL     1      36.049 -22.684 -15.866  0.00  0.00    -0.004 C 
ATOM     11  C   UNL     1      33.316 -23.148 -16.141  0.00  0.00    +0.136 C 
ATOM     12  C   UNL     1      35.232 -19.221 -20.999  0.00  0.00    +0.078 C 
ATOM     13  C   UNL     1      33.867 -19.460 -21.126  0.00  0.00    +0.043 C 
ATOM     14  C   UNL     1      35.384 -23.498 -14.949  0.00  0.00    +0.003 C 
ATOM     15  C   UNL     1      34.019 -23.729 -15.086  0.00  0.00    +0.037 C 
ENDROOT
BRANCH   9  16
ATOM     16  O   UNL     1      31.877 -20.468 -20.384  0.00  0.00    -0.505 OA
ATOM     17  H   UNL     1      31.569 -20.963 -21.118  0.00  0.00    +0.292 HD
ENDBRANCH   9  16
BRANCH  11  18
ATOM     18  O   UNL     1      31.982 -23.417 -16.217  0.00  0.00    -0.505 OA
ATOM     19  H   UNL     1      31.688 -24.237 -16.562  0.00  0.00    +0.292 HD
ENDBRANCH  11  18
BRANCH  12  21
ATOM     20  O   UNL     1      35.399 -17.798 -22.920  0.00  0.00    -0.245 OA
ATOM     21  C   UNL     1      35.913 -18.367 -21.960  0.00  0.00    +0.338 C 
BRANCH  21  22
ATOM     22  O   UNL     1      37.243 -18.251 -21.686  0.00  0.00    -0.477 OA
ATOM     23  H   UNL     1      37.857 -18.832 -22.089  0.00  0.00    +0.295 HD
ENDBRANCH  21  22
ENDBRANCH  12  21
TORSDOF 4
ENDMDL
MODEL 3
REMARK VINA RESULT:     -10.9      1.676      5.976
REMARK  Name = 119396
REMARK  4 active torsions:
REMARK  status: ('A' for Active; 'I' for Inactive)
REMARK    1  A    between atoms: C_9  and  O_16
REMARK    2  A    between atoms: C_11  and  O_18
REMARK    3  A    between atoms: C_12  and  C_21
REMARK    4  A    between atoms: C_21  and  O_22
REMARK                            x       y       z     vdW  Elec       q    Type
REMARK                         _______ _______ _______ _____ _____    ______ ____
ROOT
ATOM      1  O   UNL     1      33.498 -16.797 -25.151  0.00  0.00    -0.286 OA
ATOM      2  C   UNL     1      34.361 -15.154 -21.417  0.00  0.00    +0.053 C 
ATOM      3  C   UNL     1      33.855 -14.319 -22.561  0.00  0.00    -0.012 C 
ATOM      4  C   UNL     1      34.534 -16.619 -21.707  0.00  0.00    -0.012 C 
ATOM      5  C   UNL     1      33.564 -14.867 -23.815  0.00  0.00    +0.069 C 
ATOM      6  C   UNL     1      34.244 -17.175 -22.958  0.00  0.00    +0.069 C 
ATOM      7  C   UNL     1      33.750 -16.314 -24.054  0.00  0.00    +0.201 C 
ATOM      8  C   UNL     1      33.668 -12.943 -22.365  0.00  0.00    +0.003 C 
ATOM      9  C   UNL     1      33.094 -14.051 -24.854  0.00  0.00    +0.137 C 
ATOM     10  C   UNL     1      35.001 -17.460 -20.685  0.00  0.00    -0.004 C 
ATOM     11  C   UNL     1      34.419 -18.547 -23.183  0.00  0.00    +0.136 C 
ATOM     12  C   UNL     1      33.201 -12.131 -23.399  0.00  0.00    +0.078 C 
ATOM     13  C   UNL     1      32.914 -12.685 -24.642  0.00  0.00    +0.043 C 
ATOM     14  C   UNL     1      35.176 -18.826 -20.910  0.00  0.00    +0.003 C 
ATOM     15  C   UNL     1      34.885 -19.368 -22.158  0.00  0.00    +0.037 C 
ENDROOT
BRANCH   9  16
ATOM     16  O   UNL     1      32.792 -14.530 -26.095  0.00  0.00    -0.505 OA
ATOM     17  H   UNL     1      32.260 -14.023 -26.676  0.00  0.00    +0.292 HD
ENDBRANCH   9  16
BRANCH  11  18
ATOM     18  O   UNL     1      34.155 -19.142 -24.381  0.00  0.00    -0.505 OA
ATOM     19  H   UNL     1      33.547 -19.854 -24.426  0.00  0.00    +0.292 HD
ENDBRANCH  11  18
BRANCH  12  21
ATOM     20  O   UNL     1      32.000 -10.166 -22.735  0.00  0.00    -0.245 OA
ATOM     21  C   UNL     1      33.012 -10.706 -23.176  0.00  0.00    +0.338 C 
BRANCH  21  22
ATOM     22  O   UNL     1      34.116  -9.985 -23.519  0.00  0.00    -0.477 OA
ATOM     23  H   UNL     1      34.618  -9.553 -22.857  0.00  0.00    +0.295 HD
ENDBRANCH  21  22
ENDBRANCH  12  21
TORSDOF 4
ENDMDL
MODEL 4
REMARK VINA RESULT:     -10.7      1.646      2.179
REMARK  Name = 119396
REMARK  4 active torsions:
REMARK  status: ('A' for Active; 'I' for Inactive)
REMARK    1  A    between atoms: C_9  and  O_16
REMARK    2  A    between atoms: C_11  and  O_18
REMARK    3  A    between atoms: C_12  and  C_21
REMARK    4  A    between atoms: C_21  and  O_22
REMARK                            x       y       z     vdW  Elec       q    Type
REMARK                         _______ _______ _______ _____ _____    ______ ____
ROOT
ATOM      1  O   UNL     1      33.356 -13.452 -24.382  0.00  0.00    -0.286 OA
ATOM      2  C   UNL     1      33.182 -14.149 -20.274  0.00  0.00    +0.053 C 
ATOM      3  C   UNL     1      33.837 -15.114 -21.223  0.00  0.00    -0.012 C 
ATOM      4  C   UNL     1      32.596 -12.915 -20.903  0.00  0.00    -0.012 C 
ATOM      5  C   UNL     1      33.898 -14.884 -22.602  0.00  0.00    +0.069 C 
ATOM      6  C   UNL     1      32.653 -12.677 -22.281  0.00  0.00    +0.069 C 
ATOM      7  C   UNL     1      33.307 -13.656 -23.176  0.00  0.00    +0.201 C 
ATOM      8  C   UNL     1      34.408 -16.288 -20.708  0.00  0.00    +0.003 C 
ATOM      9  C   UNL     1      34.518 -15.812 -23.450  0.00  0.00    +0.137 C 
ATOM     10  C   UNL     1      31.969 -11.968 -20.078  0.00  0.00    -0.004 C 
ATOM     11  C   UNL     1      32.093 -11.513 -22.824  0.00  0.00    +0.136 C 
ATOM     12  C   UNL     1      35.025 -17.211 -21.552  0.00  0.00    +0.078 C 
ATOM     13  C   UNL     1      35.081 -16.973 -22.922  0.00  0.00    +0.043 C 
ATOM     14  C   UNL     1      31.411 -10.809 -20.620  0.00  0.00    +0.003 C 
ATOM     15  C   UNL     1      31.474 -10.582 -21.991  0.00  0.00    +0.037 C 
ENDROOT
BRANCH   9  16
ATOM     16  O   UNL     1      34.610 -15.639 -24.799  0.00  0.00    -0.505 OA
ATOM     17  H   UNL     1      34.061 -15.013 -25.230  0.00  0.00    +0.292 HD
ENDBRANCH   9  16
BRANCH  11  18
ATOM     18  O   UNL     1      32.118 -11.228 -24.157  0.00  0.00    -0.505 OA
ATOM     19  H   UNL     1      32.915 -10.947 -24.561  0.00  0.00    +0.292 HD
ENDBRANCH  11  18
BRANCH  12  21
ATOM     20  O   UNL     1      35.062 -19.516 -20.894  0.00  0.00    -0.245 OA
ATOM     21  C   UNL     1      35.613 -18.422 -21.000  0.00  0.00    +0.338 C 
BRANCH  21  22
ATOM     22  O   UNL     1      36.896 -18.224 -20.588  0.00  0.00    -0.477 OA
ATOM     23  H   UNL     1      37.561 -18.845 -20.811  0.00  0.00    +0.295 HD
ENDBRANCH  21  22
ENDBRANCH  12  21
TORSDOF 4
ENDMDL
MODEL 5
REMARK VINA RESULT:     -10.6      7.169     10.385
REMARK  Name = 119396
REMARK  4 active torsions:
REMARK  status: ('A' for Active; 'I' for Inactive)
REMARK    1  A    between atoms: C_9  and  O_16
REMARK    2  A    between atoms: C_11  and  O_18
REMARK    3  A    between atoms: C_12  and  C_21
REMARK    4  A    between atoms: C_21  and  O_22
REMARK                            x       y       z     vdW  Elec       q    Type
REMARK                         _______ _______ _______ _____ _____    ______ ____
ROOT
ATOM      1  O   UNL     1      32.609 -23.144 -16.094  0.00  0.00    -0.286 OA
ATOM      2  C   UNL     1      36.564 -21.898 -16.540  0.00  0.00    +0.053 C 
ATOM      3  C   UNL     1      36.093 -22.652 -15.327  0.00  0.00    -0.012 C 
ATOM      4  C   UNL     1      35.515 -21.625 -17.583  0.00  0.00    -0.012 C 
ATOM      5  C   UNL     1      34.768 -23.072 -15.174  0.00  0.00    +0.069 C 
ATOM      6  C   UNL     1      34.187 -22.043 -17.438  0.00  0.00    +0.069 C 
ATOM      7  C   UNL     1      33.771 -22.780 -16.226  0.00  0.00    +0.201 C 
ATOM      8  C   UNL     1      37.017 -22.944 -14.311  0.00  0.00    +0.003 C 
ATOM      9  C   UNL     1      34.373 -23.771 -14.025  0.00  0.00    +0.137 C 
ATOM     10  C   UNL     1      35.882 -20.927 -18.745  0.00  0.00    -0.004 C 
ATOM     11  C   UNL     1      33.244 -21.766 -18.436  0.00  0.00    +0.136 C 
ATOM     12  C   UNL     1      36.624 -23.640 -13.168  0.00  0.00    +0.078 C 
ATOM     13  C   UNL     1      35.303 -24.054 -13.025  0.00  0.00    +0.043 C 
ATOM     14  C   UNL     1      34.942 -20.653 -19.738  0.00  0.00    +0.003 C 
ATOM     15  C   UNL     1      33.624 -21.072 -19.584  0.00  0.00    +0.037 C 
ENDROOT
BRANCH   9  16
ATOM     16  O   UNL     1      33.097 -24.207 -13.823  0.00  0.00    -0.505 OA
ATOM     17  H   UNL     1      32.881 -25.108 -13.966  0.00  0.00    +0.292 HD
ENDBRANCH   9  16
BRANCH  11  18
ATOM     18  O   UNL     1      31.937 -22.147 -18.349  0.00  0.00    -0.505 OA
ATOM     19  H   UNL     1      31.551 -22.307 -17.510  0.00  0.00    +0.292 HD
ENDBRANCH  11  18
BRANCH  12  21
ATOM     20  O   UNL     1      37.345 -24.234 -10.960  0.00  0.00    -0.245 OA
ATOM     21  C   UNL     1      37.595 -23.936 -12.126  0.00  0.00    +0.338 C 
BRANCH  21  22
ATOM     22  O   UNL     1      38.876 -23.847 -12.583  0.00  0.00    -0.477 OA
ATOM     23  H   UNL     1      39.551 -23.516 -12.023  0.00  0.00    +0.295 HD
ENDBRANCH  21  22
ENDBRANCH  12  21
TORSDOF 4
ENDMDL
MODEL 6
REMARK VINA RESULT:     -10.4      5.602      8.619
REMARK  Name = 119396
REMARK  4 active torsions:
REMARK  status: ('A' for Active; 'I' for Inactive)
REMARK    1  A    between atoms: C_9  and  O_16
REMARK    2  A    between atoms: C_11  and  O_18
REMARK    3  A    between atoms: C_12  and  C_21
REMARK    4  A    between atoms: C_21  and  O_22
REMARK                            x       y       z     vdW  Elec       q    Type
REMARK                         _______ _______ _______ _____ _____    ______ ____
ROOT
ATOM      1  O   UNL     1      32.022 -21.983 -18.101  0.00  0.00    -0.286 OA
ATOM      2  C   UNL     1      36.123 -21.244 -17.962  0.00  0.00    +0.053 C 
ATOM      3  C   UNL     1      35.421 -22.064 -16.915  0.00  0.00    -0.012 C 
ATOM      4  C   UNL     1      35.250 -20.709 -19.063  0.00  0.00    -0.012 C 
ATOM      5  C   UNL     1      34.046 -22.315 -16.958  0.00  0.00    +0.069 C 
ATOM      6  C   UNL     1      33.873 -20.956 -19.115  0.00  0.00    +0.069 C 
ATOM      7  C   UNL     1      33.227 -21.768 -18.061  0.00  0.00    +0.201 C 
ATOM      8  C   UNL     1      36.173 -22.597 -15.856  0.00  0.00    +0.003 C 
ATOM      9  C   UNL     1      33.433 -23.085 -15.960  0.00  0.00    +0.137 C 
ATOM     10  C   UNL     1      35.836 -19.936 -20.077  0.00  0.00    -0.004 C 
ATOM     11  C   UNL     1      33.098 -20.438 -20.160  0.00  0.00    +0.136 C 
ATOM     12  C   UNL     1      35.563 -23.363 -14.863  0.00  0.00    +0.078 C 
ATOM     13  C   UNL     1      34.194 -23.607 -14.915  0.00  0.00    +0.043 C 
ATOM     14  C   UNL     1      35.063 -19.421 -21.118  0.00  0.00    +0.003 C 
ATOM     15  C   UNL     1      33.696 -19.672 -21.159  0.00  0.00    +0.037 C 
ENDROOT
BRANCH   9  16
ATOM     16  O   UNL     1      32.098 -23.364 -15.952  0.00  0.00    -0.505 OA
ATOM     17  H   UNL     1      31.482 -22.702 -15.706  0.00  0.00    +0.292 HD
ENDBRANCH   9  16
BRANCH  11  18
ATOM     18  O   UNL     1      31.754 -20.645 -20.261  0.00  0.00    -0.505 OA
ATOM     19  H   UNL     1      31.233 -20.086 -20.804  0.00  0.00    +0.292 HD
ENDBRANCH  11  18
BRANCH  12  21
ATOM     20  O   UNL     1      37.444 -23.486 -13.382  0.00  0.00    -0.245 OA
ATOM     21  C   UNL     1      36.358 -23.909 -13.774  0.00  0.00    +0.338 C 
BRANCH  21  22
ATOM     22  O   UNL     1      35.760 -24.988 -13.197  0.00  0.00    -0.477 OA
ATOM     23  H   UNL     1      35.095 -25.458 -13.660  0.00  0.00    +0.295 HD
ENDBRANCH  21  22
ENDBRANCH  12  21
TORSDOF 4
ENDMDL
MODEL 7
REMARK VINA RESULT:     -10.3      3.104      7.701
REMARK  Name = 119396
REMARK  4 active torsions:
REMARK  status: ('A' for Active; 'I' for Inactive)
REMARK    1  A    between atoms: C_9  and  O_16
REMARK    2  A    between atoms: C_11  and  O_18
REMARK    3  A    between atoms: C_12  and  C_21
REMARK    4  A    between atoms: C_21  and  O_22
REMARK                            x       y       z     vdW  Elec       q    Type
REMARK                         _______ _______ _______ _____ _____    ______ ____
ROOT
ATOM      1  O   UNL     1      36.715 -19.855 -19.198  0.00  0.00    -0.286 OA
ATOM      2  C   UNL     1      32.789 -20.471 -20.462  0.00  0.00    +0.053 C 
ATOM      3  C   UNL     1      33.737 -19.570 -21.204  0.00  0.00    -0.012 C 
ATOM      4  C   UNL     1      33.350 -21.137 -19.236  0.00  0.00    -0.012 C 
ATOM      5  C   UNL     1      35.055 -19.361 -20.784  0.00  0.00    +0.069 C 
ATOM      6  C   UNL     1      34.667 -20.935 -18.809  0.00  0.00    +0.069 C 
ATOM      7  C   UNL     1      35.562 -20.037 -19.571  0.00  0.00    +0.201 C 
ATOM      8  C   UNL     1      33.284 -18.915 -22.359  0.00  0.00    +0.003 C 
ATOM      9  C   UNL     1      35.904 -18.512 -21.506  0.00  0.00    +0.137 C 
ATOM     10  C   UNL     1      32.522 -21.994 -18.493  0.00  0.00    -0.004 C 
ATOM     11  C   UNL     1      35.147 -21.576 -17.660  0.00  0.00    +0.136 C 
ATOM     12  C   UNL     1      34.129 -18.069 -23.078  0.00  0.00    +0.078 C 
ATOM     13  C   UNL     1      35.439 -17.869 -22.652  0.00  0.00    +0.043 C 
ATOM     14  C   UNL     1      33.002 -22.633 -17.349  0.00  0.00    +0.003 C 
ATOM     15  C   UNL     1      34.313 -22.424 -16.934  0.00  0.00    +0.037 C 
ENDROOT
BRANCH   9  16
ATOM     16  O   UNL     1      37.198 -18.273 -21.145  0.00  0.00    -0.505 OA
ATOM     17  H   UNL     1      37.385 -17.726 -20.408  0.00  0.00    +0.292 HD
ENDBRANCH   9  16
BRANCH  11  18
ATOM     18  O   UNL     1      36.420 -21.416 -17.197  0.00  0.00    -0.505 OA
ATOM     19  H   UNL     1      36.773 -20.555 -17.087  0.00  0.00    +0.292 HD
ENDBRANCH  11  18
BRANCH  12  21
ATOM     20  O   UNL     1      34.081 -16.356 -24.753  0.00  0.00    -0.245 OA
ATOM     21  C   UNL     1      33.643 -17.400 -24.275  0.00  0.00    +0.338 C 
BRANCH  21  22
ATOM     22  O   UNL     1      32.604 -18.069 -24.847  0.00  0.00    -0.477 OA
ATOM     23  H   UNL     1      31.921 -17.594 -25.278  0.00  0.00    +0.295 HD
ENDBRANCH  21  22
ENDBRANCH  12  21
TORSDOF 4
ENDMDL
MODEL 8
REMARK VINA RESULT:     -10.2      9.013     11.600
REMARK  Name = 119396
REMARK  4 active torsions:
REMARK  status: ('A' for Active; 'I' for Inactive)
REMARK    1  A    between atoms: C_9  and  O_16
REMARK    2  A    between atoms: C_11  and  O_18
REMARK    3  A    between atoms: C_12  and  C_21
REMARK    4  A    between atoms: C_21  and  O_22
REMARK                            x       y       z     vdW  Elec       q    Type
REMARK                         _______ _______ _______ _____ _____    ______ ____
ROOT
ATOM      1  O   UNL     1      35.024 -23.290 -13.667  0.00  0.00    -0.286 OA
ATOM      2  C   UNL     1      32.638 -22.591 -17.014  0.00  0.00    +0.053 C 
ATOM      3  C   UNL     1      32.097 -23.229 -15.764  0.00  0.00    -0.012 C 
ATOM      4  C   UNL     1      34.095 -22.220 -16.977  0.00  0.00    -0.012 C 
ATOM      5  C   UNL     1      32.894 -23.465 -14.639  0.00  0.00    +0.069 C 
ATOM      6  C   UNL     1      34.899 -22.452 -15.856  0.00  0.00    +0.069 C 
ATOM      7  C   UNL     1      34.323 -23.084 -14.649  0.00  0.00    +0.201 C 
ATOM      8  C   UNL     1      30.745 -23.601 -15.724  0.00  0.00    +0.003 C 
ATOM      9  C   UNL     1      32.348 -24.063 -13.495  0.00  0.00    +0.137 C 
ATOM     10  C   UNL     1      34.669 -21.619 -18.108  0.00  0.00    -0.004 C 
ATOM     11  C   UNL     1      36.252 -22.090 -15.866  0.00  0.00    +0.136 C 
ATOM     12  C   UNL     1      30.201 -24.196 -14.586  0.00  0.00    +0.078 C 
ATOM     13  C   UNL     1      31.002 -24.426 -13.471  0.00  0.00    +0.043 C 
ATOM     14  C   UNL     1      36.016 -21.259 -18.118  0.00  0.00    +0.003 C 
ATOM     15  C   UNL     1      36.807 -21.493 -16.997  0.00  0.00    +0.037 C 
ENDROOT
BRANCH   9  16
ATOM     16  O   UNL     1      33.076 -24.314 -12.369  0.00  0.00    -0.505 OA
ATOM     17  H   UNL     1      33.582 -23.630 -11.976  0.00  0.00    +0.292 HD
ENDBRANCH   9  16
BRANCH  11  18
ATOM     18  O   UNL     1      37.083 -22.292 -14.804  0.00  0.00    -0.505 OA
ATOM     19  H   UNL     1      37.739 -22.960 -14.842  0.00  0.00    +0.292 HD
ENDBRANCH  11  18
BRANCH  12  21
ATOM     20  O   UNL     1      27.871 -23.968 -15.097  0.00  0.00    -0.245 OA
ATOM     21  C   UNL     1      28.797 -24.574 -14.562  0.00  0.00    +0.338 C 
BRANCH  21  22
ATOM     22  O   UNL     1      28.589 -25.720 -13.856  0.00  0.00    -0.477 OA
ATOM     23  H   UNL     1      27.854 -25.788 -13.279  0.00  0.00    +0.295 HD
ENDBRANCH  21  22
ENDBRANCH  12  21
TORSDOF 4
ENDMDL
MODEL 9
REMARK VINA RESULT:     -10.2     10.345     12.538
REMARK  Name = 119396
REMARK  4 active torsions:
REMARK  status: ('A' for Active; 'I' for Inactive)
REMARK    1  A    between atoms: C_9  and  O_16
REMARK    2  A    between atoms: C_11  and  O_18
REMARK    3  A    between atoms: C_12  and  C_21
REMARK    4  A    between atoms: C_21  and  O_22
REMARK                            x       y       z     vdW  Elec       q    Type
REMARK                         _______ _______ _______ _____ _____    ______ ____
ROOT
ATOM      1  O   UNL     1      32.328 -24.587 -12.670  0.00  0.00    -0.286 OA
ATOM      2  C   UNL     1      32.640 -22.464 -16.245  0.00  0.00    +0.053 C 
ATOM      3  C   UNL     1      31.313 -22.889 -15.679  0.00  0.00    -0.012 C 
ATOM      4  C   UNL     1      33.847 -22.853 -15.437  0.00  0.00    -0.012 C 
ATOM      5  C   UNL     1      31.204 -23.601 -14.480  0.00  0.00    +0.069 C 
ATOM      6  C   UNL     1      33.747 -23.564 -14.236  0.00  0.00    +0.069 C 
ATOM      7  C   UNL     1      32.419 -23.962 -13.719  0.00  0.00    +0.201 C 
ATOM      8  C   UNL     1      30.142 -22.561 -16.379  0.00  0.00    +0.003 C 
ATOM      9  C   UNL     1      29.946 -23.977 -13.990  0.00  0.00    +0.137 C 
ATOM     10  C   UNL     1      35.120 -22.488 -15.903  0.00  0.00    -0.004 C 
ATOM     11  C   UNL     1      34.898 -23.905 -13.515  0.00  0.00    +0.136 C 
ATOM     12  C   UNL     1      28.890 -22.935 -15.892  0.00  0.00    +0.078 C 
ATOM     13  C   UNL     1      28.792 -23.642 -14.697  0.00  0.00    +0.043 C 
ATOM     14  C   UNL     1      36.266 -22.828 -15.184  0.00  0.00    +0.003 C 
ATOM     15  C   UNL     1      36.155 -23.536 -13.991  0.00  0.00    +0.037 C 
ENDROOT
BRANCH   9  16
ATOM     16  O   UNL     1      29.779 -24.669 -12.826  0.00  0.00    -0.505 OA
ATOM     17  H   UNL     1      30.300 -24.457 -12.076  0.00  0.00    +0.292 HD
ENDBRANCH   9  16
BRANCH  11  18
ATOM     18  O   UNL     1      34.862 -24.597 -12.340  0.00  0.00    -0.505 OA
ATOM     19  H   UNL     1      34.764 -24.138 -11.529  0.00  0.00    +0.292 HD
ENDBRANCH  11  18
BRANCH  12  21
ATOM     20  O   UNL     1      27.171 -21.470 -16.695  0.00  0.00    -0.245 OA
ATOM     21  C   UNL     1      27.686 -22.584 -16.630  0.00  0.00    +0.338 C 
BRANCH  21  22
ATOM     22  O   UNL     1      27.153 -23.658 -17.275  0.00  0.00    -0.477 OA
ATOM     23  H   UNL     1      27.396 -24.526 -17.020  0.00  0.00    +0.295 HD
ENDBRANCH  21  22
ENDBRANCH  12  21
TORSDOF 4
ENDMDL
