MODEL 1
REMARK VINA RESULT:     -11.4      0.000      0.000
REMARK  Name = 71743
REMARK  4 active torsions:
REMARK  status: ('A' for Active; 'I' for Inactive)
REMARK    1  A    between atoms: C_10  and  C_15
REMARK    2  A    between atoms: C_11  and  O_16
REMARK    3  A    between atoms: O_16  and  C_18
REMARK    4  A    between atoms: C_18  and  C_20
REMARK                            x       y       z     vdW  Elec       q    Type
REMARK                         _______ _______ _______ _____ _____    ______ ____
ROOT
ATOM      1  O   UNL     1      36.797 -21.461 -15.558  0.00  0.00    -0.272 OA
ATOM      2  N   UNL     1      34.868 -22.380 -16.546  0.00  0.00    -0.257 N 
ATOM      3  C   UNL     1      32.383 -22.370 -16.526  0.00  0.00    +0.027 C 
ATOM      4  C   UNL     1      32.328 -22.078 -18.012  0.00  0.00    +0.029 C 
ATOM      5  C   UNL     1      33.652 -23.143 -16.209  0.00  0.00    +0.099 C 
ATOM      6  C   UNL     1      33.625 -21.487 -18.501  0.00  0.00    -0.005 C 
ATOM      7  C   UNL     1      34.840 -21.643 -17.793  0.00  0.00    +0.050 C 
ATOM      8  C   UNL     1      33.600 -20.795 -19.726  0.00  0.00    +0.035 C 
ATOM      9  C   UNL     1      36.002 -21.096 -18.367  0.00  0.00    +0.018 C 
ATOM     10  C   UNL     1      35.986 -22.381 -15.690  0.00  0.00    +0.260 C 
ATOM     11  C   UNL     1      34.760 -20.247 -20.259  0.00  0.00    +0.149 C 
ATOM     12  C   UNL     1      35.961 -20.401 -19.580  0.00  0.00    +0.039 C 
ENDROOT
BRANCH  10  15
ATOM     13 CL   UNL     1      37.902 -23.963 -14.778  0.00  0.00    -0.087 Cl
ATOM     14 CL   UNL     1      35.504 -23.307 -13.259  0.00  0.00    -0.087 Cl
ATOM     15  C   UNL     1      36.178 -23.624 -14.851  0.00  0.00    +0.234 C 
ENDBRANCH  10  15
BRANCH  11  16
ATOM     16  O   UNL     1      34.723 -19.577 -21.441  0.00  0.00    -0.419 OA
BRANCH  16  18
ATOM     17  O   UNL     1      35.589 -17.688 -20.404  0.00  0.00    -0.241 OA
ATOM     18  C   UNL     1      35.009 -18.197 -21.359  0.00  0.00    +0.381 C 
BRANCH  18  20
ATOM     19  O   UNL     1      33.910 -18.194 -23.474  0.00  0.00    -0.444 OA
ATOM     20  C   UNL     1      34.536 -17.468 -22.538  0.00  0.00    +0.221 C 
ATOM     21  C   UNL     1      34.627 -16.159 -22.846  0.00  0.00    +0.047 C 
ATOM     22  C   UNL     1      33.995 -16.039 -24.106  0.00  0.00    +0.044 C 
ATOM     23  C   UNL     1      33.575 -17.304 -24.444  0.00  0.00    +0.180 C 
ENDBRANCH  18  20
ENDBRANCH  16  18
ENDBRANCH  11  16
TORSDOF 4
ENDMDL
MODEL 2
REMARK VINA RESULT:     -11.1      1.954      3.020
REMARK  Name = 71743
REMARK  4 active torsions:
REMARK  status: ('A' for Active; 'I' for Inactive)
REMARK    1  A    between atoms: C_10  and  C_15
REMARK    2  A    between atoms: C_11  and  O_16
REMARK    3  A    between atoms: O_16  and  C_18
REMARK    4  A    between atoms: C_18  and  C_20
REMARK                            x       y       z     vdW  Elec       q    Type
REMARK                         _______ _______ _______ _____ _____    ______ ____
ROOT
ATOM      1  O   UNL     1      32.024 -23.492 -16.666  0.00  0.00    -0.272 OA
ATOM      2  N   UNL     1      34.012 -22.358 -16.117  0.00  0.00    -0.257 N 
ATOM      3  C   UNL     1      36.429 -22.638 -15.614  0.00  0.00    +0.027 C 
ATOM      4  C   UNL     1      36.813 -21.640 -16.688  0.00  0.00    +0.029 C 
ATOM      5  C   UNL     1      35.052 -22.294 -15.073  0.00  0.00    +0.099 C 
ATOM      6  C   UNL     1      35.709 -21.474 -17.699  0.00  0.00    -0.005 C 
ATOM      7  C   UNL     1      34.366 -21.815 -17.412  0.00  0.00    +0.050 C 
ATOM      8  C   UNL     1      36.051 -20.920 -18.947  0.00  0.00    +0.035 C 
ATOM      9  C   UNL     1      33.405 -21.567 -18.409  0.00  0.00    +0.018 C 
ATOM     10  C   UNL     1      32.749 -22.919 -15.849  0.00  0.00    +0.260 C 
ATOM     11  C   UNL     1      35.084 -20.706 -19.921  0.00  0.00    +0.149 C 
ATOM     12  C   UNL     1      33.761 -21.027 -19.650  0.00  0.00    +0.039 C 
ENDROOT
BRANCH  10  15
ATOM     13 CL   UNL     1      30.602 -22.256 -14.451  0.00  0.00    -0.087 Cl
ATOM     14 CL   UNL     1      32.408 -24.412 -13.691  0.00  0.00    -0.087 Cl
ATOM     15  C   UNL     1      32.268 -22.818 -14.419  0.00  0.00    +0.234 C 
ENDBRANCH  10  15
BRANCH  11  16
ATOM     16  O   UNL     1      35.427 -20.176 -21.124  0.00  0.00    -0.419 OA
BRANCH  16  18
ATOM     17  O   UNL     1      36.124 -18.115 -20.311  0.00  0.00    -0.241 OA
ATOM     18  C   UNL     1      35.518 -18.768 -21.157  0.00  0.00    +0.381 C 
BRANCH  18  20
ATOM     19  O   UNL     1      34.956 -16.881 -22.500  0.00  0.00    -0.444 OA
ATOM     20  C   UNL     1      34.813 -18.199 -22.307  0.00  0.00    +0.221 C 
ATOM     21  C   UNL     1      34.025 -18.793 -23.225  0.00  0.00    +0.047 C 
ATOM     22  C   UNL     1      33.626 -17.747 -24.091  0.00  0.00    +0.044 C 
ATOM     23  C   UNL     1      34.220 -16.604 -23.608  0.00  0.00    +0.180 C 
ENDBRANCH  18  20
ENDBRANCH  16  18
ENDBRANCH  11  16
TORSDOF 4
ENDMDL
MODEL 3
REMARK VINA RESULT:     -11.1      5.582      9.072
REMARK  Name = 71743
REMARK  4 active torsions:
REMARK  status: ('A' for Active; 'I' for Inactive)
REMARK    1  A    between atoms: C_10  and  C_15
REMARK    2  A    between atoms: C_11  and  O_16
REMARK    3  A    between atoms: O_16  and  C_18
REMARK    4  A    between atoms: C_18  and  C_20
REMARK                            x       y       z     vdW  Elec       q    Type
REMARK                         _______ _______ _______ _____ _____    ______ ____
ROOT
ATOM      1  O   UNL     1      33.940 -12.455 -21.008  0.00  0.00    -0.272 OA
ATOM      2  N   UNL     1      33.067 -13.645 -22.842  0.00  0.00    -0.257 N 
ATOM      3  C   UNL     1      33.246 -13.999 -25.295  0.00  0.00    +0.027 C 
ATOM      4  C   UNL     1      33.404 -15.495 -25.112  0.00  0.00    +0.029 C 
ATOM      5  C   UNL     1      32.422 -13.434 -24.151  0.00  0.00    +0.099 C 
ATOM      6  C   UNL     1      33.861 -15.829 -23.716  0.00  0.00    -0.005 C 
ATOM      7  C   UNL     1      33.688 -14.936 -22.631  0.00  0.00    +0.050 C 
ATOM      8  C   UNL     1      34.439 -17.095 -23.509  0.00  0.00    +0.035 C 
ATOM      9  C   UNL     1      34.101 -15.371 -21.359  0.00  0.00    +0.018 C 
ATOM     10  C   UNL     1      33.069 -12.633 -21.862  0.00  0.00    +0.260 C 
ATOM     11  C   UNL     1      34.857 -17.490 -22.244  0.00  0.00    +0.149 C 
ATOM     12  C   UNL     1      34.685 -16.628 -21.170  0.00  0.00    +0.039 C 
ENDROOT
BRANCH  10  15
ATOM     13 CL   UNL     1      31.540 -11.212 -20.235  0.00  0.00    -0.087 Cl
ATOM     14 CL   UNL     1      32.355 -10.298 -22.879  0.00  0.00    -0.087 Cl
ATOM     15  C   UNL     1      31.897 -11.679 -21.893  0.00  0.00    +0.234 C 
ENDBRANCH  10  15
BRANCH  11  16
ATOM     16  O   UNL     1      35.418 -18.714 -22.058  0.00  0.00    -0.419 OA
BRANCH  16  18
ATOM     17  O   UNL     1      36.659 -18.575 -20.100  0.00  0.00    -0.241 OA
ATOM     18  C   UNL     1      35.707 -19.045 -20.717  0.00  0.00    +0.381 C 
BRANCH  18  20
ATOM     19  O   UNL     1      35.254 -21.025 -19.470  0.00  0.00    -0.444 OA
ATOM     20  C   UNL     1      34.744 -20.002 -20.169  0.00  0.00    +0.221 C 
ATOM     21  C   UNL     1      33.399 -20.027 -20.251  0.00  0.00    +0.047 C 
ATOM     22  C   UNL     1      33.013 -21.183 -19.532  0.00  0.00    +0.044 C 
ATOM     23  C   UNL     1      34.178 -21.755 -19.076  0.00  0.00    +0.180 C 
ENDBRANCH  18  20
ENDBRANCH  16  18
ENDBRANCH  11  16
TORSDOF 4
ENDMDL
MODEL 4
REMARK VINA RESULT:     -10.9      1.145      1.356
REMARK  Name = 71743
REMARK  4 active torsions:
REMARK  status: ('A' for Active; 'I' for Inactive)
REMARK    1  A    between atoms: C_10  and  C_15
REMARK    2  A    between atoms: C_11  and  O_16
REMARK    3  A    between atoms: O_16  and  C_18
REMARK    4  A    between atoms: C_18  and  C_20
REMARK                            x       y       z     vdW  Elec       q    Type
REMARK                         _______ _______ _______ _____ _____    ______ ____
ROOT
ATOM      1  O   UNL     1      36.813 -21.825 -14.717  0.00  0.00    -0.272 OA
ATOM      2  N   UNL     1      34.910 -22.802 -15.699  0.00  0.00    -0.257 N 
ATOM      3  C   UNL     1      32.425 -22.807 -15.731  0.00  0.00    +0.027 C 
ATOM      4  C   UNL     1      32.400 -22.587 -17.230  0.00  0.00    +0.029 C 
ATOM      5  C   UNL     1      33.691 -23.555 -15.351  0.00  0.00    +0.099 C 
ATOM      6  C   UNL     1      33.703 -22.011 -17.720  0.00  0.00    -0.005 C 
ATOM      7  C   UNL     1      34.904 -22.126 -16.980  0.00  0.00    +0.050 C 
ATOM      8  C   UNL     1      33.700 -21.379 -18.977  0.00  0.00    +0.035 C 
ATOM      9  C   UNL     1      36.075 -21.600 -17.556  0.00  0.00    +0.018 C 
ATOM     10  C   UNL     1      36.010 -22.755 -14.822  0.00  0.00    +0.260 C 
ATOM     11  C   UNL     1      34.869 -20.850 -19.512  0.00  0.00    +0.149 C 
ATOM     12  C   UNL     1      36.056 -20.964 -18.802  0.00  0.00    +0.039 C 
ENDROOT
BRANCH  10  15
ATOM     13 CL   UNL     1      36.765 -25.290 -14.911  0.00  0.00    -0.087 Cl
ATOM     14 CL   UNL     1      37.350 -23.520 -12.673  0.00  0.00    -0.087 Cl
ATOM     15  C   UNL     1      36.191 -23.956 -13.921  0.00  0.00    +0.234 C 
ENDBRANCH  10  15
BRANCH  11  16
ATOM     16  O   UNL     1      34.852 -20.237 -20.725  0.00  0.00    -0.419 OA
BRANCH  16  18
ATOM     17  O   UNL     1      36.424 -18.679 -20.022  0.00  0.00    -0.241 OA
ATOM     18  C   UNL     1      35.506 -18.987 -20.776  0.00  0.00    +0.381 C 
BRANCH  18  20
ATOM     19  O   UNL     1      35.060 -16.805 -21.623  0.00  0.00    -0.444 OA
ATOM     20  C   UNL     1      34.958 -18.125 -21.825  0.00  0.00    +0.221 C 
ATOM     21  C   UNL     1      34.355 -18.445 -22.988  0.00  0.00    +0.047 C 
ATOM     22  C   UNL     1      34.041 -17.202 -23.586  0.00  0.00    +0.044 C 
ATOM     23  C   UNL     1      34.490 -16.235 -22.717  0.00  0.00    +0.180 C 
ENDBRANCH  18  20
ENDBRANCH  16  18
ENDBRANCH  11  16
TORSDOF 4
ENDMDL
MODEL 5
REMARK VINA RESULT:     -10.8      1.656      2.601
REMARK  Name = 71743
REMARK  4 active torsions:
REMARK  status: ('A' for Active; 'I' for Inactive)
REMARK    1  A    between atoms: C_10  and  C_15
REMARK    2  A    between atoms: C_11  and  O_16
REMARK    3  A    between atoms: O_16  and  C_18
REMARK    4  A    between atoms: C_18  and  C_20
REMARK                            x       y       z     vdW  Elec       q    Type
REMARK                         _______ _______ _______ _____ _____    ______ ____
ROOT
ATOM      1  O   UNL     1      36.796 -20.112 -17.024  0.00  0.00    -0.272 OA
ATOM      2  N   UNL     1      35.107 -21.023 -18.387  0.00  0.00    -0.257 N 
ATOM      3  C   UNL     1      32.653 -21.154 -18.753  0.00  0.00    +0.027 C 
ATOM      4  C   UNL     1      32.800 -20.705 -20.194  0.00  0.00    +0.029 C 
ATOM      5  C   UNL     1      33.912 -21.885 -18.321  0.00  0.00    +0.099 C 
ATOM      6  C   UNL     1      34.108 -19.993 -20.413  0.00  0.00    -0.005 C 
ATOM      7  C   UNL     1      35.213 -20.158 -19.544  0.00  0.00    +0.050 C 
ATOM      8  C   UNL     1      34.217 -19.174 -21.552  0.00  0.00    +0.035 C 
ATOM      9  C   UNL     1      36.405 -19.488 -19.872  0.00  0.00    +0.018 C 
ATOM     10  C   UNL     1      36.082 -21.055 -17.372  0.00  0.00    +0.260 C 
ATOM     11  C   UNL     1      35.401 -18.507 -21.841  0.00  0.00    +0.149 C 
ATOM     12  C   UNL     1      36.495 -18.667 -21.002  0.00  0.00    +0.039 C 
ENDROOT
BRANCH  10  15
ATOM     13 CL   UNL     1      37.869 -22.438 -15.994  0.00  0.00    -0.087 Cl
ATOM     14 CL   UNL     1      35.024 -22.421 -15.368  0.00  0.00    -0.087 Cl
ATOM     15  C   UNL     1      36.236 -22.370 -16.641  0.00  0.00    +0.234 C 
ENDBRANCH  10  15
BRANCH  11  16
ATOM     16  O   UNL     1      35.492 -17.715 -22.942  0.00  0.00    -0.419 OA
BRANCH  16  18
ATOM     17  O   UNL     1      33.478 -17.662 -24.096  0.00  0.00    -0.241 OA
ATOM     18  C   UNL     1      34.284 -17.112 -23.350  0.00  0.00    +0.381 C 
BRANCH  18  20
ATOM     19  O   UNL     1      33.894 -14.780 -23.651  0.00  0.00    -0.444 OA
ATOM     20  C   UNL     1      34.118 -15.774 -22.781  0.00  0.00    +0.221 C 
ATOM     21  C   UNL     1      34.154 -15.363 -21.497  0.00  0.00    +0.047 C 
ATOM     22  C   UNL     1      33.931 -13.967 -21.556  0.00  0.00    +0.044 C 
ATOM     23  C   UNL     1      33.778 -13.662 -22.889  0.00  0.00    +0.180 C 
ENDBRANCH  18  20
ENDBRANCH  16  18
ENDBRANCH  11  16
TORSDOF 4
ENDMDL
MODEL 6
REMARK VINA RESULT:     -10.4      8.725     11.996
REMARK  Name = 71743
REMARK  4 active torsions:
REMARK  status: ('A' for Active; 'I' for Inactive)
REMARK    1  A    between atoms: C_10  and  C_15
REMARK    2  A    between atoms: C_11  and  O_16
REMARK    3  A    between atoms: O_16  and  C_18
REMARK    4  A    between atoms: C_18  and  C_20
REMARK                            x       y       z     vdW  Elec       q    Type
REMARK                         _______ _______ _______ _____ _____    ______ ____
ROOT
ATOM      1  O   UNL     1      31.204  -8.183 -24.034  0.00  0.00    -0.272 OA
ATOM      2  N   UNL     1      31.661  -8.752 -21.796  0.00  0.00    -0.257 N 
ATOM      3  C   UNL     1      30.640  -9.281 -19.593  0.00  0.00    +0.027 C 
ATOM      4  C   UNL     1      31.412 -10.582 -19.498  0.00  0.00    +0.029 C 
ATOM      5  C   UNL     1      31.434  -8.282 -20.417  0.00  0.00    +0.099 C 
ATOM      6  C   UNL     1      31.880 -11.039 -20.855  0.00  0.00    -0.005 C 
ATOM      7  C   UNL     1      32.003 -10.151 -21.950  0.00  0.00    +0.050 C 
ATOM      8  C   UNL     1      32.238 -12.393 -20.994  0.00  0.00    +0.035 C 
ATOM      9  C   UNL     1      32.502 -10.673 -23.157  0.00  0.00    +0.018 C 
ATOM     10  C   UNL     1      31.548  -7.874 -22.891  0.00  0.00    +0.260 C 
ATOM     11  C   UNL     1      32.708 -12.885 -22.205  0.00  0.00    +0.149 C 
ATOM     12  C   UNL     1      32.843 -12.024 -23.285  0.00  0.00    +0.039 C 
ENDROOT
BRANCH  10  15
ATOM     13 CL   UNL     1      33.611  -6.260 -22.511  0.00  0.00    -0.087 Cl
ATOM     14 CL   UNL     1      31.191  -5.465 -23.924  0.00  0.00    -0.087 Cl
ATOM     15  C   UNL     1      31.863  -6.422 -22.611  0.00  0.00    +0.234 C 
ENDBRANCH  10  15
BRANCH  11  16
ATOM     16  O   UNL     1      33.045 -14.196 -22.329  0.00  0.00    -0.419 OA
BRANCH  16  18
ATOM     17  O   UNL     1      34.187 -14.068 -20.311  0.00  0.00    -0.241 OA
ATOM     18  C   UNL     1      33.918 -14.689 -21.335  0.00  0.00    +0.381 C 
BRANCH  18  20
ATOM     19  O   UNL     1      34.966 -16.723 -20.668  0.00  0.00    -0.444 OA
ATOM     20  C   UNL     1      34.449 -16.010 -21.677  0.00  0.00    +0.221 C 
ATOM     21  C   UNL     1      34.504 -16.645 -22.866  0.00  0.00    +0.047 C 
ATOM     22  C   UNL     1      35.120 -17.887 -22.584  0.00  0.00    +0.044 C 
ATOM     23  C   UNL     1      35.381 -17.887 -21.234  0.00  0.00    +0.180 C 
ENDBRANCH  18  20
ENDBRANCH  16  18
ENDBRANCH  11  16
TORSDOF 4
ENDMDL
MODEL 7
REMARK VINA RESULT:     -10.3      1.826      2.730
REMARK  Name = 71743
REMARK  4 active torsions:
REMARK  status: ('A' for Active; 'I' for Inactive)
REMARK    1  A    between atoms: C_10  and  C_15
REMARK    2  A    between atoms: C_11  and  O_16
REMARK    3  A    between atoms: O_16  and  C_18
REMARK    4  A    between atoms: C_18  and  C_20
REMARK                            x       y       z     vdW  Elec       q    Type
REMARK                         _______ _______ _______ _____ _____    ______ ____
ROOT
ATOM      1  O   UNL     1      36.707 -22.196 -12.904  0.00  0.00    -0.272 OA
ATOM      2  N   UNL     1      34.954 -23.187 -14.122  0.00  0.00    -0.257 N 
ATOM      3  C   UNL     1      32.510 -23.125 -14.566  0.00  0.00    +0.027 C 
ATOM      4  C   UNL     1      32.739 -23.012 -16.060  0.00  0.00    +0.029 C 
ATOM      5  C   UNL     1      33.665 -23.879 -13.933  0.00  0.00    +0.099 C 
ATOM      6  C   UNL     1      34.127 -22.509 -16.363  0.00  0.00    -0.005 C 
ATOM      7  C   UNL     1      35.185 -22.605 -15.428  0.00  0.00    +0.050 C 
ATOM      8  C   UNL     1      34.355 -21.969 -17.642  0.00  0.00    +0.035 C 
ATOM      9  C   UNL     1      36.453 -22.154 -15.834  0.00  0.00    +0.018 C 
ATOM     10  C   UNL     1      35.896 -23.109 -13.079  0.00  0.00    +0.260 C 
ATOM     11  C   UNL     1      35.615 -21.512 -18.008  0.00  0.00    +0.149 C 
ATOM     12  C   UNL     1      36.664 -21.608 -17.105  0.00  0.00    +0.039 C 
ENDROOT
BRANCH  10  15
ATOM     13 CL   UNL     1      37.282 -25.258 -12.399  0.00  0.00    -0.087 Cl
ATOM     14 CL   UNL     1      35.925 -23.549 -10.471  0.00  0.00    -0.087 Cl
ATOM     15  C   UNL     1      35.879 -24.246 -12.083  0.00  0.00    +0.234 C 
ENDBRANCH  10  15
BRANCH  11  16
ATOM     16  O   UNL     1      35.822 -20.987 -19.245  0.00  0.00    -0.419 OA
BRANCH  16  18
ATOM     17  O   UNL     1      33.535 -20.770 -19.588  0.00  0.00    -0.241 OA
ATOM     18  C   UNL     1      34.682 -20.423 -19.858  0.00  0.00    +0.381 C 
BRANCH  18  20
ATOM     19  O   UNL     1      34.140 -19.153 -21.800  0.00  0.00    -0.444 OA
ATOM     20  C   UNL     1      35.038 -19.393 -20.835  0.00  0.00    +0.221 C 
ATOM     21  C   UNL     1      36.143 -18.627 -20.928  0.00  0.00    +0.047 C 
ATOM     22  C   UNL     1      35.927 -17.817 -22.069  0.00  0.00    +0.044 C 
ATOM     23  C   UNL     1      34.695 -18.175 -22.563  0.00  0.00    +0.180 C 
ENDBRANCH  18  20
ENDBRANCH  16  18
ENDBRANCH  11  16
TORSDOF 4
ENDMDL
MODEL 8
REMARK VINA RESULT:     -10.2      2.646      3.820
REMARK  Name = 71743
REMARK  4 active torsions:
REMARK  status: ('A' for Active; 'I' for Inactive)
REMARK    1  A    between atoms: C_10  and  C_15
REMARK    2  A    between atoms: C_11  and  O_16
REMARK    3  A    between atoms: O_16  and  C_18
REMARK    4  A    between atoms: C_18  and  C_20
REMARK                            x       y       z     vdW  Elec       q    Type
REMARK                         _______ _______ _______ _____ _____    ______ ____
ROOT
ATOM      1  O   UNL     1      30.490 -23.483 -16.618  0.00  0.00    -0.272 OA
ATOM      2  N   UNL     1      32.544 -22.813 -15.683  0.00  0.00    -0.257 N 
ATOM      3  C   UNL     1      34.728 -23.614 -14.811  0.00  0.00    +0.027 C 
ATOM      4  C   UNL     1      35.488 -22.692 -15.744  0.00  0.00    +0.029 C 
ATOM      5  C   UNL     1      33.379 -22.999 -14.482  0.00  0.00    +0.099 C 
ATOM      6  C   UNL     1      34.632 -22.267 -16.909  0.00  0.00    -0.005 C 
ATOM      7  C   UNL     1      33.219 -22.322 -16.867  0.00  0.00    +0.050 C 
ATOM      8  C   UNL     1      35.291 -21.766 -18.047  0.00  0.00    +0.035 C 
ATOM      9  C   UNL     1      32.517 -21.849 -17.989  0.00  0.00    +0.018 C 
ATOM     10  C   UNL     1      31.165 -23.100 -15.660  0.00  0.00    +0.260 C 
ATOM     11  C   UNL     1      34.571 -21.325 -19.150  0.00  0.00    +0.149 C 
ATOM     12  C   UNL     1      33.184 -21.364 -19.119  0.00  0.00    +0.039 C 
ENDROOT
BRANCH  10  15
ATOM     13 CL   UNL     1      28.960 -22.089 -14.601  0.00  0.00    -0.087 Cl
ATOM     14 CL   UNL     1      30.217 -24.541 -13.655  0.00  0.00    -0.087 Cl
ATOM     15  C   UNL     1      30.476 -22.937 -14.324  0.00  0.00    +0.234 C 
ENDBRANCH  10  15
BRANCH  11  16
ATOM     16  O   UNL     1      35.218 -20.847 -20.246  0.00  0.00    -0.419 OA
BRANCH  16  18
ATOM     17  O   UNL     1      36.614 -19.283 -19.248  0.00  0.00    -0.241 OA
ATOM     18  C   UNL     1      35.775 -19.559 -20.101  0.00  0.00    +0.381 C 
BRANCH  18  20
ATOM     19  O   UNL     1      35.390 -17.313 -20.801  0.00  0.00    -0.444 OA
ATOM     20  C   UNL     1      35.235 -18.614 -21.081  0.00  0.00    +0.221 C 
ATOM     21  C   UNL     1      34.594 -18.839 -22.246  0.00  0.00    +0.047 C 
ATOM     22  C   UNL     1      34.312 -17.551 -22.758  0.00  0.00    +0.044 C 
ATOM     23  C   UNL     1      34.816 -16.657 -21.843  0.00  0.00    +0.180 C 
ENDBRANCH  18  20
ENDBRANCH  16  18
ENDBRANCH  11  16
TORSDOF 4
ENDMDL
MODEL 9
REMARK VINA RESULT:     -10.0      3.536      8.221
REMARK  Name = 71743
REMARK  4 active torsions:
REMARK  status: ('A' for Active; 'I' for Inactive)
REMARK    1  A    between atoms: C_10  and  C_15
REMARK    2  A    between atoms: C_11  and  O_16
REMARK    3  A    between atoms: O_16  and  C_18
REMARK    4  A    between atoms: C_18  and  C_20
REMARK                            x       y       z     vdW  Elec       q    Type
REMARK                         _______ _______ _______ _____ _____    ______ ____
ROOT
ATOM      1  O   UNL     1      36.470 -19.776 -20.554  0.00  0.00    -0.272 OA
ATOM      2  N   UNL     1      34.624 -20.603 -19.350  0.00  0.00    -0.257 N 
ATOM      3  C   UNL     1      33.040 -22.505 -19.128  0.00  0.00    +0.027 C 
ATOM      4  C   UNL     1      33.363 -22.658 -17.655  0.00  0.00    +0.029 C 
ATOM      5  C   UNL     1      33.233 -21.055 -19.539  0.00  0.00    +0.099 C 
ATOM      6  C   UNL     1      34.688 -22.027 -17.317  0.00  0.00    -0.005 C 
ATOM      7  C   UNL     1      35.281 -21.035 -18.134  0.00  0.00    +0.050 C 
ATOM      8  C   UNL     1      35.310 -22.429 -16.121  0.00  0.00    +0.035 C 
ATOM      9  C   UNL     1      36.494 -20.473 -17.696  0.00  0.00    +0.018 C 
ATOM     10  C   UNL     1      35.261 -19.794 -20.310  0.00  0.00    +0.260 C 
ATOM     11  C   UNL     1      36.519 -21.871 -15.724  0.00  0.00    +0.149 C 
ATOM     12  C   UNL     1      37.108 -20.891 -16.511  0.00  0.00    +0.039 C 
ENDROOT
BRANCH  10  15
ATOM     13 CL   UNL     1      34.905 -17.234 -20.879  0.00  0.00    -0.087 Cl
ATOM     14 CL   UNL     1      34.474 -19.380 -22.801  0.00  0.00    -0.087 Cl
ATOM     15  C   UNL     1      34.359 -18.888 -21.118  0.00  0.00    +0.234 C 
ENDBRANCH  10  15
BRANCH  11  16
ATOM     16  O   UNL     1      37.114 -22.271 -14.569  0.00  0.00    -0.419 OA
BRANCH  16  18
ATOM     17  O   UNL     1      38.930 -23.442 -15.419  0.00  0.00    -0.241 OA
ATOM     18  C   UNL     1      37.948 -23.404 -14.684  0.00  0.00    +0.381 C 
BRANCH  18  20
ATOM     19  O   UNL     1      37.152 -25.639 -14.451  0.00  0.00    -0.444 OA
ATOM     20  C   UNL     1      37.499 -24.504 -13.828  0.00  0.00    +0.221 C 
ATOM     21  C   UNL     1      37.373 -24.569 -12.487  0.00  0.00    +0.047 C 
ATOM     22  C   UNL     1      36.898 -25.877 -12.231  0.00  0.00    +0.044 C 
ATOM     23  C   UNL     1      36.780 -26.488 -13.458  0.00  0.00    +0.180 C 
ENDBRANCH  18  20
ENDBRANCH  16  18
ENDBRANCH  11  16
TORSDOF 4
ENDMDL
