MODEL 1
REMARK VINA RESULT:     -11.5      0.000      0.000
REMARK  Name = 70957463
REMARK  1 active torsions:
REMARK  status: ('A' for Active; 'I' for Inactive)
REMARK    1  A    between atoms: C_8  and  C_17
REMARK                            x       y       z     vdW  Elec       q    Type
REMARK                         _______ _______ _______ _____ _____    ______ ____
ROOT
ATOM      1  N   UNL     1      32.069 -21.480 -18.558  0.00  0.00    -0.353 N 
ATOM      2  N   UNL     1      34.126 -23.614 -15.720  0.00  0.00    -0.242 NA
ATOM      3  C   UNL     1      34.284 -21.245 -18.669  0.00  0.00    +0.018 A 
ATOM      4  C   UNL     1      33.077 -20.858 -19.254  0.00  0.00    +0.057 A 
ATOM      5  C   UNL     1      33.969 -22.129 -17.589  0.00  0.00    +0.036 A 
ATOM      6  C   UNL     1      32.581 -22.256 -17.545  0.00  0.00    +0.060 A 
ATOM      7  C   UNL     1      33.013 -19.987 -20.348  0.00  0.00    +0.017 C 
ATOM      8  C   UNL     1      34.218 -19.498 -20.861  0.00  0.00    +0.003 C 
ATOM      9  C   UNL     1      35.487 -20.737 -19.204  0.00  0.00    +0.002 C 
ATOM     10  C   UNL     1      35.437 -19.867 -20.298  0.00  0.00    +0.000 C 
ATOM     11  C   UNL     1      34.729 -22.832 -16.647  0.00  0.00    +0.100 C 
ATOM     12  C   UNL     1      31.932 -23.052 -16.605  0.00  0.00    +0.038 C 
ATOM     13  C   UNL     1      32.776 -23.703 -15.721  0.00  0.00    +0.100 C 
ATOM     14  H   UNL     1      31.110 -21.384 -18.758  0.00  0.00    +0.166 HD
ENDROOT
BRANCH   8  17
ATOM     15  F   UNL     1      34.195 -15.969 -25.103  0.00  0.00    -0.183 F 
ATOM     16  N   UNL     1      34.755 -16.433 -22.918  0.00  0.00    -0.216 NA
ATOM     17  C   UNL     1      34.196 -18.595 -21.991  0.00  0.00    +0.019 C 
ATOM     18  C   UNL     1      33.627 -18.974 -23.203  0.00  0.00    +0.005 C 
ATOM     19  C   UNL     1      34.742 -17.325 -21.902  0.00  0.00    +0.101 C 
ATOM     20  C   UNL     1      33.622 -18.085 -24.271  0.00  0.00    +0.050 C 
ATOM     21  C   UNL     1      34.193 -16.838 -24.079  0.00  0.00    +0.222 C 
ENDBRANCH   8  17
TORSDOF 1
ENDMDL
MODEL 2
REMARK VINA RESULT:     -11.5      0.769      1.181
REMARK  Name = 70957463
REMARK  1 active torsions:
REMARK  status: ('A' for Active; 'I' for Inactive)
REMARK    1  A    between atoms: C_8  and  C_17
REMARK                            x       y       z     vdW  Elec       q    Type
REMARK                         _______ _______ _______ _____ _____    ______ ____
ROOT
ATOM      1  N   UNL     1      32.286 -21.294 -18.884  0.00  0.00    -0.353 N 
ATOM      2  N   UNL     1      34.480 -23.402 -16.131  0.00  0.00    -0.242 NA
ATOM      3  C   UNL     1      34.483 -20.935 -19.002  0.00  0.00    +0.018 A 
ATOM      4  C   UNL     1      33.253 -20.596 -19.566  0.00  0.00    +0.057 A 
ATOM      5  C   UNL     1      34.226 -21.870 -17.949  0.00  0.00    +0.036 A 
ATOM      6  C   UNL     1      32.848 -22.074 -17.900  0.00  0.00    +0.060 A 
ATOM      7  C   UNL     1      33.132 -19.696 -20.631  0.00  0.00    +0.017 C 
ATOM      8  C   UNL     1      34.304 -19.126 -21.136  0.00  0.00    +0.003 C 
ATOM      9  C   UNL     1      35.653 -20.346 -19.528  0.00  0.00    +0.002 C 
ATOM     10  C   UNL     1      35.546 -19.445 -20.593  0.00  0.00    +0.000 C 
ATOM     11  C   UNL     1      35.032 -22.559 -17.036  0.00  0.00    +0.100 C 
ATOM     12  C   UNL     1      32.251 -22.933 -16.982  0.00  0.00    +0.038 C 
ATOM     13  C   UNL     1      33.137 -23.565 -16.125  0.00  0.00    +0.100 C 
ATOM     14  H   UNL     1      31.321 -21.245 -19.074  0.00  0.00    +0.166 HD
ENDROOT
BRANCH   8  17
ATOM     15  F   UNL     1      33.944 -15.644 -25.401  0.00  0.00    -0.183 F 
ATOM     16  N   UNL     1      33.597 -17.747 -24.529  0.00  0.00    -0.216 NA
ATOM     17  C   UNL     1      34.224 -18.189 -22.236  0.00  0.00    +0.019 C 
ATOM     18  C   UNL     1      34.666 -16.878 -22.097  0.00  0.00    +0.005 C 
ATOM     19  C   UNL     1      33.702 -18.570 -23.461  0.00  0.00    +0.101 C 
ATOM     20  C   UNL     1      34.576 -16.001 -23.172  0.00  0.00    +0.050 C 
ATOM     21  C   UNL     1      34.038 -16.480 -24.355  0.00  0.00    +0.222 C 
ENDBRANCH   8  17
TORSDOF 1
ENDMDL
MODEL 3
REMARK VINA RESULT:     -11.3      3.402      8.409
REMARK  Name = 70957463
REMARK  1 active torsions:
REMARK  status: ('A' for Active; 'I' for Inactive)
REMARK    1  A    between atoms: C_8  and  C_17
REMARK                            x       y       z     vdW  Elec       q    Type
REMARK                         _______ _______ _______ _____ _____    ______ ____
ROOT
ATOM      1  N   UNL     1      33.966 -14.083 -22.033  0.00  0.00    -0.353 N 
ATOM      2  N   UNL     1      32.794 -12.761 -25.737  0.00  0.00    -0.242 NA
ATOM      3  C   UNL     1      33.760 -15.700 -23.555  0.00  0.00    +0.018 A 
ATOM      4  C   UNL     1      34.089 -15.439 -22.224  0.00  0.00    +0.057 A 
ATOM      5  C   UNL     1      33.435 -14.449 -24.167  0.00  0.00    +0.036 A 
ATOM      6  C   UNL     1      33.572 -13.460 -23.194  0.00  0.00    +0.060 A 
ATOM      7  C   UNL     1      34.461 -16.445 -21.325  0.00  0.00    +0.017 C 
ATOM      8  C   UNL     1      34.501 -17.758 -21.802  0.00  0.00    +0.003 C 
ATOM      9  C   UNL     1      33.807 -17.034 -24.012  0.00  0.00    +0.002 C 
ATOM     10  C   UNL     1      34.179 -18.050 -23.125  0.00  0.00    +0.000 C 
ATOM     11  C   UNL     1      33.037 -14.063 -25.453  0.00  0.00    +0.100 C 
ATOM     12  C   UNL     1      33.330 -12.115 -23.455  0.00  0.00    +0.038 C 
ATOM     13  C   UNL     1      32.942 -11.841 -24.756  0.00  0.00    +0.100 C 
ATOM     14  H   UNL     1      34.138 -13.621 -21.181  0.00  0.00    +0.166 HD
ENDROOT
BRANCH   8  17
ATOM     15  F   UNL     1      36.062 -21.793 -18.376  0.00  0.00    -0.183 F 
ATOM     16  N   UNL     1      36.586 -19.888 -19.559  0.00  0.00    -0.216 NA
ATOM     17  C   UNL     1      34.880 -18.830 -20.905  0.00  0.00    +0.019 C 
ATOM     18  C   UNL     1      33.965 -19.804 -20.524  0.00  0.00    +0.005 C 
ATOM     19  C   UNL     1      36.166 -18.916 -20.399  0.00  0.00    +0.101 C 
ATOM     20  C   UNL     1      34.358 -20.821 -19.661  0.00  0.00    +0.050 C 
ATOM     21  C   UNL     1      35.668 -20.817 -19.210  0.00  0.00    +0.222 C 
ENDBRANCH   8  17
TORSDOF 1
ENDMDL
MODEL 4
REMARK VINA RESULT:     -11.1      1.915      3.279
REMARK  Name = 70957463
REMARK  1 active torsions:
REMARK  status: ('A' for Active; 'I' for Inactive)
REMARK    1  A    between atoms: C_8  and  C_17
REMARK                            x       y       z     vdW  Elec       q    Type
REMARK                         _______ _______ _______ _____ _____    ______ ____
ROOT
ATOM      1  N   UNL     1      37.006 -21.948 -16.414  0.00  0.00    -0.353 N 
ATOM      2  N   UNL     1      35.019 -24.515 -13.905  0.00  0.00    -0.242 NA
ATOM      3  C   UNL     1      34.882 -22.314 -16.982  0.00  0.00    +0.018 A 
ATOM      4  C   UNL     1      36.042 -21.626 -17.338  0.00  0.00    +0.057 A 
ATOM      5  C   UNL     1      35.179 -23.068 -15.802  0.00  0.00    +0.036 A 
ATOM      6  C   UNL     1      36.510 -22.819 -15.472  0.00  0.00    +0.060 A 
ATOM      7  C   UNL     1      36.109 -20.783 -18.454  0.00  0.00    +0.017 C 
ATOM      8  C   UNL     1      34.954 -20.640 -19.229  0.00  0.00    +0.003 C 
ATOM      9  C   UNL     1      33.729 -22.154 -17.780  0.00  0.00    +0.002 C 
ATOM     10  C   UNL     1      33.782 -21.315 -18.898  0.00  0.00    +0.000 C 
ATOM     11  C   UNL     1      34.444 -23.936 -14.986  0.00  0.00    +0.100 C 
ATOM     12  C   UNL     1      37.128 -23.398 -14.369  0.00  0.00    +0.038 C 
ATOM     13  C   UNL     1      36.315 -24.240 -13.628  0.00  0.00    +0.100 C 
ATOM     14  H   UNL     1      37.928 -21.601 -16.423  0.00  0.00    +0.166 HD
ENDROOT
BRANCH   8  17
ATOM     15  F   UNL     1      34.938 -17.394 -23.691  0.00  0.00    -0.183 F 
ATOM     16  N   UNL     1      33.847 -18.909 -22.343  0.00  0.00    -0.216 NA
ATOM     17  C   UNL     1      34.981 -19.780 -20.393  0.00  0.00    +0.019 C 
ATOM     18  C   UNL     1      36.102 -19.014 -20.694  0.00  0.00    +0.005 C 
ATOM     19  C   UNL     1      33.890 -19.692 -21.241  0.00  0.00    +0.101 C 
ATOM     20  C   UNL     1      36.097 -18.197 -21.818  0.00  0.00    +0.050 C 
ATOM     21  C   UNL     1      34.956 -18.180 -22.603  0.00  0.00    +0.222 C 
ENDBRANCH   8  17
TORSDOF 1
ENDMDL
MODEL 5
REMARK VINA RESULT:     -11.1      1.384      2.353
REMARK  Name = 70957463
REMARK  1 active torsions:
REMARK  status: ('A' for Active; 'I' for Inactive)
REMARK    1  A    between atoms: C_8  and  C_17
REMARK                            x       y       z     vdW  Elec       q    Type
REMARK                         _______ _______ _______ _____ _____    ______ ____
ROOT
ATOM      1  N   UNL     1      36.401 -20.932 -17.986  0.00  0.00    -0.353 N 
ATOM      2  N   UNL     1      34.498 -23.624 -15.542  0.00  0.00    -0.242 NA
ATOM      3  C   UNL     1      34.265 -21.291 -18.515  0.00  0.00    +0.018 A 
ATOM      4  C   UNL     1      35.411 -20.578 -18.870  0.00  0.00    +0.057 A 
ATOM      5  C   UNL     1      34.598 -22.093 -17.378  0.00  0.00    +0.036 A 
ATOM      6  C   UNL     1      35.935 -21.848 -17.071  0.00  0.00    +0.060 A 
ATOM      7  C   UNL     1      35.443 -19.687 -19.950  0.00  0.00    +0.017 C 
ATOM      8  C   UNL     1      34.268 -19.520 -20.688  0.00  0.00    +0.003 C 
ATOM      9  C   UNL     1      33.092 -21.106 -19.277  0.00  0.00    +0.002 C 
ATOM     10  C   UNL     1      33.109 -20.218 -20.358  0.00  0.00    +0.000 C 
ATOM     11  C   UNL     1      33.891 -23.002 -16.582  0.00  0.00    +0.100 C 
ATOM     12  C   UNL     1      36.586 -22.470 -16.010  0.00  0.00    +0.038 C 
ATOM     13  C   UNL     1      35.798 -23.350 -15.287  0.00  0.00    +0.100 C 
ATOM     14  H   UNL     1      37.320 -20.578 -18.003  0.00  0.00    +0.166 HD
ENDROOT
BRANCH   8  17
ATOM     15  F   UNL     1      34.170 -16.134 -25.044  0.00  0.00    -0.183 F 
ATOM     16  N   UNL     1      33.661 -18.179 -24.116  0.00  0.00    -0.216 NA
ATOM     17  C   UNL     1      34.258 -18.609 -21.813  0.00  0.00    +0.019 C 
ATOM     18  C   UNL     1      34.804 -17.334 -21.709  0.00  0.00    +0.005 C 
ATOM     19  C   UNL     1      33.704 -18.980 -23.027  0.00  0.00    +0.101 C 
ATOM     20  C   UNL     1      34.779 -16.482 -22.806  0.00  0.00    +0.050 C 
ATOM     21  C   UNL     1      34.201 -16.947 -23.976  0.00  0.00    +0.222 C 
ENDBRANCH   8  17
TORSDOF 1
ENDMDL
MODEL 6
REMARK VINA RESULT:     -10.8      3.929      7.951
REMARK  Name = 70957463
REMARK  1 active torsions:
REMARK  status: ('A' for Active; 'I' for Inactive)
REMARK    1  A    between atoms: C_8  and  C_17
REMARK                            x       y       z     vdW  Elec       q    Type
REMARK                         _______ _______ _______ _____ _____    ______ ____
ROOT
ATOM      1  N   UNL     1      36.551 -19.364 -19.895  0.00  0.00    -0.353 N 
ATOM      2  N   UNL     1      33.893 -18.516 -22.905  0.00  0.00    -0.242 NA
ATOM      3  C   UNL     1      34.604 -20.437 -19.721  0.00  0.00    +0.018 A 
ATOM      4  C   UNL     1      35.851 -20.257 -19.121  0.00  0.00    +0.057 A 
ATOM      5  C   UNL     1      34.574 -19.617 -20.893  0.00  0.00    +0.036 A 
ATOM      6  C   UNL     1      35.801 -18.960 -20.975  0.00  0.00    +0.060 A 
ATOM      7  C   UNL     1      36.225 -20.915 -17.943  0.00  0.00    +0.017 C 
ATOM      8  C   UNL     1      35.296 -21.783 -17.362  0.00  0.00    +0.003 C 
ATOM      9  C   UNL     1      33.684 -21.318 -19.115  0.00  0.00    +0.002 C 
ATOM     10  C   UNL     1      34.044 -21.982 -17.938  0.00  0.00    +0.000 C 
ATOM     11  C   UNL     1      33.622 -19.371 -21.890  0.00  0.00    +0.100 C 
ATOM     12  C   UNL     1      36.109 -18.077 -22.005  0.00  0.00    +0.038 C 
ATOM     13  C   UNL     1      35.100 -17.904 -22.938  0.00  0.00    +0.100 C 
ATOM     14  H   UNL     1      37.466 -19.054 -19.704  0.00  0.00    +0.166 HD
ENDROOT
BRANCH   8  17
ATOM     15  F   UNL     1      36.729 -24.399 -12.719  0.00  0.00    -0.183 F 
ATOM     16  N   UNL     1      37.299 -23.003 -14.460  0.00  0.00    -0.216 NA
ATOM     17  C   UNL     1      35.642 -22.482 -16.142  0.00  0.00    +0.019 C 
ATOM     18  C   UNL     1      34.712 -23.278 -15.483  0.00  0.00    +0.005 C 
ATOM     19  C   UNL     1      36.910 -22.379 -15.595  0.00  0.00    +0.101 C 
ATOM     20  C   UNL     1      35.073 -23.937 -14.313  0.00  0.00    +0.050 C 
ATOM     21  C   UNL     1      36.367 -23.768 -13.848  0.00  0.00    +0.222 C 
ENDBRANCH   8  17
TORSDOF 1
ENDMDL
MODEL 7
REMARK VINA RESULT:     -10.7      5.720     10.087
REMARK  Name = 70957463
REMARK  1 active torsions:
REMARK  status: ('A' for Active; 'I' for Inactive)
REMARK    1  A    between atoms: C_8  and  C_17
REMARK                            x       y       z     vdW  Elec       q    Type
REMARK                         _______ _______ _______ _____ _____    ______ ____
ROOT
ATOM      1  N   UNL     1      33.061 -10.851 -23.571  0.00  0.00    -0.353 N 
ATOM      2  N   UNL     1      30.524  -8.175 -21.772  0.00  0.00    -0.242 NA
ATOM      3  C   UNL     1      32.142 -11.596 -21.681  0.00  0.00    +0.018 A 
ATOM      4  C   UNL     1      33.011 -11.929 -22.721  0.00  0.00    +0.057 A 
ATOM      5  C   UNL     1      31.663 -10.271 -21.934  0.00  0.00    +0.036 A 
ATOM      6  C   UNL     1      32.254  -9.834 -23.119  0.00  0.00    +0.060 A 
ATOM      7  C   UNL     1      33.666 -13.164 -22.793  0.00  0.00    +0.017 C 
ATOM      8  C   UNL     1      33.424 -14.087 -21.772  0.00  0.00    +0.003 C 
ATOM      9  C   UNL     1      31.915 -12.544 -20.662  0.00  0.00    +0.002 C 
ATOM     10  C   UNL     1      32.562 -13.783 -20.721  0.00  0.00    +0.000 C 
ATOM     11  C   UNL     1      30.787  -9.405 -21.270  0.00  0.00    +0.100 C 
ATOM     12  C   UNL     1      32.003  -8.576 -23.660  0.00  0.00    +0.038 C 
ATOM     13  C   UNL     1      31.122  -7.798 -22.925  0.00  0.00    +0.100 C 
ATOM     14  H   UNL     1      33.600 -10.812 -24.394  0.00  0.00    +0.166 HD
ENDROOT
BRANCH   8  17
ATOM     15  F   UNL     1      35.935 -19.001 -21.782  0.00  0.00    -0.183 F 
ATOM     16  N   UNL     1      35.086 -17.215 -20.601  0.00  0.00    -0.216 NA
ATOM     17  C   UNL     1      34.082 -15.376 -21.807  0.00  0.00    +0.019 C 
ATOM     18  C   UNL     1      34.343 -16.015 -23.014  0.00  0.00    +0.005 C 
ATOM     19  C   UNL     1      34.469 -16.012 -20.640  0.00  0.00    +0.101 C 
ATOM     20  C   UNL     1      34.976 -17.253 -23.016  0.00  0.00    +0.050 C 
ATOM     21  C   UNL     1      35.323 -17.806 -21.794  0.00  0.00    +0.222 C 
ENDBRANCH   8  17
TORSDOF 1
ENDMDL
MODEL 8
REMARK VINA RESULT:     -10.7      5.471      9.628
REMARK  Name = 70957463
REMARK  1 active torsions:
REMARK  status: ('A' for Active; 'I' for Inactive)
REMARK    1  A    between atoms: C_8  and  C_17
REMARK                            x       y       z     vdW  Elec       q    Type
REMARK                         _______ _______ _______ _____ _____    ______ ____
ROOT
ATOM      1  N   UNL     1      31.847 -11.733 -20.494  0.00  0.00    -0.353 N 
ATOM      2  N   UNL     1      31.108  -8.425 -22.807  0.00  0.00    -0.242 NA
ATOM      3  C   UNL     1      32.625 -11.886 -22.578  0.00  0.00    +0.018 A 
ATOM      4  C   UNL     1      32.522 -12.559 -21.360  0.00  0.00    +0.057 A 
ATOM      5  C   UNL     1      31.986 -10.616 -22.418  0.00  0.00    +0.036 A 
ATOM      6  C   UNL     1      31.511 -10.550 -21.109  0.00  0.00    +0.060 A 
ATOM      7  C   UNL     1      33.045 -13.842 -21.158  0.00  0.00    +0.017 C 
ATOM      8  C   UNL     1      33.694 -14.455 -22.234  0.00  0.00    +0.003 C 
ATOM      9  C   UNL     1      33.283 -12.526 -23.649  0.00  0.00    +0.002 C 
ATOM     10  C   UNL     1      33.812 -13.808 -23.462  0.00  0.00    +0.000 C 
ATOM     11  C   UNL     1      31.766  -9.519 -23.260  0.00  0.00    +0.100 C 
ATOM     12  C   UNL     1      30.833  -9.440 -20.614  0.00  0.00    +0.038 C 
ATOM     13  C   UNL     1      30.668  -8.411 -21.527  0.00  0.00    +0.100 C 
ATOM     14  H   UNL     1      31.633 -11.957 -19.559  0.00  0.00    +0.166 HD
ENDROOT
BRANCH   8  17
ATOM     15  F   UNL     1      35.816 -19.492 -21.481  0.00  0.00    -0.183 F 
ATOM     16  N   UNL     1      35.157 -17.470 -20.597  0.00  0.00    -0.216 NA
ATOM     17  C   UNL     1      34.248 -15.782 -22.069  0.00  0.00    +0.019 C 
ATOM     18  C   UNL     1      34.409 -16.633 -23.156  0.00  0.00    +0.005 C 
ATOM     19  C   UNL     1      34.634 -16.244 -20.822  0.00  0.00    +0.101 C 
ATOM     20  C   UNL     1      34.944 -17.902 -22.966  0.00  0.00    +0.050 C 
ATOM     21  C   UNL     1      35.299 -18.269 -21.679  0.00  0.00    +0.222 C 
ENDBRANCH   8  17
TORSDOF 1
ENDMDL
MODEL 9
REMARK VINA RESULT:     -10.7      5.385      8.223
REMARK  Name = 70957463
REMARK  1 active torsions:
REMARK  status: ('A' for Active; 'I' for Inactive)
REMARK    1  A    between atoms: C_8  and  C_17
REMARK                            x       y       z     vdW  Elec       q    Type
REMARK                         _______ _______ _______ _____ _____    ______ ____
ROOT
ATOM      1  N   UNL     1      34.202 -15.212 -20.709  0.00  0.00    -0.353 N 
ATOM      2  N   UNL     1      35.112 -18.400 -23.127  0.00  0.00    -0.242 NA
ATOM      3  C   UNL     1      33.663 -14.914 -22.852  0.00  0.00    +0.018 A 
ATOM      4  C   UNL     1      33.646 -14.317 -21.591  0.00  0.00    +0.057 A 
ATOM      5  C   UNL     1      34.250 -16.210 -22.702  0.00  0.00    +0.036 A 
ATOM      6  C   UNL     1      34.575 -16.367 -21.355  0.00  0.00    +0.060 A 
ATOM      7  C   UNL     1      33.135 -13.032 -21.369  0.00  0.00    +0.017 C 
ATOM      8  C   UNL     1      32.624 -12.338 -22.469  0.00  0.00    +0.003 C 
ATOM      9  C   UNL     1      33.142 -14.192 -23.947  0.00  0.00    +0.002 C 
ATOM     10  C   UNL     1      32.627 -12.908 -23.740  0.00  0.00    +0.000 C 
ATOM     11  C   UNL     1      34.535 -17.262 -23.580  0.00  0.00    +0.100 C 
ATOM     12  C   UNL     1      35.168 -17.524 -20.859  0.00  0.00    +0.038 C 
ATOM     13  C   UNL     1      35.407 -18.502 -21.810  0.00  0.00    +0.100 C 
ATOM     14  H   UNL     1      34.316 -15.050 -19.745  0.00  0.00    +0.166 HD
ENDROOT
BRANCH   8  17
ATOM     15  F   UNL     1      30.630  -7.228 -21.869  0.00  0.00    -0.183 F 
ATOM     16  N   UNL     1      31.879  -8.735 -23.083  0.00  0.00    -0.216 NA
ATOM     17  C   UNL     1      32.087 -11.007 -22.284  0.00  0.00    +0.019 C 
ATOM     18  C   UNL     1      31.291 -10.701 -21.186  0.00  0.00    +0.005 C 
ATOM     19  C   UNL     1      32.349  -9.998 -23.195  0.00  0.00    +0.101 C 
ATOM     20  C   UNL     1      30.789  -9.414 -21.035  0.00  0.00    +0.050 C 
ATOM     21  C   UNL     1      31.108  -8.476 -22.002  0.00  0.00    +0.222 C 
ENDBRANCH   8  17
TORSDOF 1
ENDMDL
