MODEL 1
REMARK VINA RESULT:     -11.1      0.000      0.000
REMARK  Name = 6918331
REMARK  7 active torsions:
REMARK  status: ('A' for Active; 'I' for Inactive)
REMARK    1  A    between atoms: C_1  and  C_2
REMARK    2  A    between atoms: C_1  and  N_19
REMARK    3  A    between atoms: C_3  and  O_17
REMARK    4  A    between atoms: C_5  and  N_8
REMARK    5  A    between atoms: C_12  and  C_16
REMARK    6  A    between atoms: N_19  and  C_23
REMARK    7  A    between atoms: C_24  and  C_30
REMARK                            x       y       z     vdW  Elec       q    Type
REMARK                         _______ _______ _______ _____ _____    ______ ____
ROOT
ATOM      1  C   UNL     1      32.172  -8.368 -22.886  0.00  0.00    -0.051 C 
ENDROOT
BRANCH   1   2
ATOM      2  C   UNL     1      31.970  -9.799 -22.464  0.00  0.00    -0.008 C 
ATOM      3  C   UNL     1      31.307 -10.092 -21.278  0.00  0.00    +0.133 C 
ATOM      4  C   UNL     1      32.456 -10.813 -23.278  0.00  0.00    +0.016 C 
ATOM      5  C   UNL     1      32.276 -12.144 -22.901  0.00  0.00    +0.086 C 
ATOM      6  C   UNL     1      31.129 -11.423 -20.902  0.00  0.00    +0.038 C 
ATOM      7  C   UNL     1      31.612 -12.449 -21.713  0.00  0.00    +0.022 C 
BRANCH   5   8
ATOM      8  N   UNL     1      32.756 -13.162 -23.705  0.00  0.00    -0.188 N 
ATOM      9  N   UNL     1      32.512 -13.201 -25.026  0.00  0.00    -0.039 NA
ATOM     10  N   UNL     1      33.742 -14.961 -24.426  0.00  0.00    -0.104 NA
ATOM     11  N   UNL     1      33.117 -14.300 -25.459  0.00  0.00    -0.022 NA
ATOM     12  C   UNL     1      33.508 -14.242 -23.352  0.00  0.00    +0.260 A 
BRANCH  12  16
ATOM     13  F   UNL     1      34.547 -13.438 -21.377  0.00  0.00    -0.163 F 
ATOM     14  F   UNL     1      32.947 -14.890 -21.139  0.00  0.00    -0.163 F 
ATOM     15  F   UNL     1      34.880 -15.522 -21.927  0.00  0.00    -0.163 F 
ATOM     16  C   UNL     1      33.959 -14.515 -21.977  0.00  0.00    +0.454 C 
ENDBRANCH  12  16
ENDBRANCH   5   8
BRANCH   3  17
ATOM     17  O   UNL     1      30.828  -9.102 -20.474  0.00  0.00    -0.472 OA
ATOM     18  C   UNL     1      31.222  -9.132 -19.104  0.00  0.00    +0.252 C 
ENDBRANCH   3  17
ENDBRANCH   1   2
BRANCH   1  19
ATOM     19  N   UNL     1      31.026  -7.853 -23.618  0.00  0.00    +0.387 N 
ATOM     20  H   UNL     1      31.275  -7.749 -24.601  0.00  0.00    -0.084 HD
ATOM     21  H   UNL     1      30.251  -8.507 -23.516  0.00  0.00    -0.084 HD
BRANCH  19  23
ATOM     22  N   UNL     1      30.416  -4.109 -23.509  0.00  0.00    +0.386 N 
ATOM     23  C   UNL     1      30.618  -6.553 -23.086  0.00  0.00    -0.077 C 
ATOM     24  C   UNL     1      30.791  -5.403 -24.120  0.00  0.00    -0.058 C 
ATOM     25  C   UNL     1      31.290  -6.279 -21.734  0.00  0.00    -0.025 C 
ATOM     26  C   UNL     1      30.928  -4.889 -21.221  0.00  0.00    -0.026 C 
ATOM     27  C   UNL     1      31.168  -3.825 -22.286  0.00  0.00    -0.081 C 
ATOM     28  H   UNL     1      29.421  -4.129 -23.283  0.00  0.00    -0.084 HD
ATOM     29  H   UNL     1      30.632  -3.374 -24.183  0.00  0.00    -0.084 HD
BRANCH  24  30
ATOM     30  C   UNL     1      32.080  -5.273 -24.927  0.00  0.00    -0.044 C 
ATOM     31  C   UNL     1      32.106  -5.685 -26.256  0.00  0.00    -0.006 C 
ATOM     32  C   UNL     1      33.218  -4.743 -24.329  0.00  0.00    -0.006 C 
ATOM     33  C   UNL     1      33.284  -5.566 -26.994  0.00  0.00    -0.000 C 
ATOM     34  C   UNL     1      34.396  -4.624 -25.067  0.00  0.00    -0.000 C 
ATOM     35  C   UNL     1      34.429  -5.036 -26.400  0.00  0.00    -0.000 C 
ENDBRANCH  24  30
ENDBRANCH  19  23
ENDBRANCH   1  19
TORSDOF 7
ENDMDL
MODEL 2
REMARK VINA RESULT:     -10.8     14.093     17.062
REMARK  Name = 6918331
REMARK  7 active torsions:
REMARK  status: ('A' for Active; 'I' for Inactive)
REMARK    1  A    between atoms: C_1  and  C_2
REMARK    2  A    between atoms: C_1  and  N_19
REMARK    3  A    between atoms: C_3  and  O_17
REMARK    4  A    between atoms: C_5  and  N_8
REMARK    5  A    between atoms: C_12  and  C_16
REMARK    6  A    between atoms: N_19  and  C_23
REMARK    7  A    between atoms: C_24  and  C_30
REMARK                            x       y       z     vdW  Elec       q    Type
REMARK                         _______ _______ _______ _____ _____    ______ ____
ROOT
ATOM      1  C   UNL     1      33.074 -23.103 -17.019  0.00  0.00    -0.051 C 
ENDROOT
BRANCH   1   2
ATOM      2  C   UNL     1      34.428 -22.604 -16.586  0.00  0.00    -0.008 C 
ATOM      3  C   UNL     1      35.170 -21.780 -17.423  0.00  0.00    +0.133 C 
ATOM      4  C   UNL     1      34.915 -22.982 -15.342  0.00  0.00    +0.016 C 
ATOM      5  C   UNL     1      36.166 -22.528 -14.926  0.00  0.00    +0.086 C 
ATOM      6  C   UNL     1      36.422 -21.327 -17.006  0.00  0.00    +0.038 C 
ATOM      7  C   UNL     1      36.920 -21.700 -15.758  0.00  0.00    +0.022 C 
BRANCH   5   8
ATOM      8  N   UNL     1      36.661 -22.898 -13.688  0.00  0.00    -0.188 N 
ATOM      9  N   UNL     1      36.305 -22.260 -12.560  0.00  0.00    -0.039 NA
ATOM     10  N   UNL     1      37.738 -23.902 -12.089  0.00  0.00    -0.104 NA
ATOM     11  N   UNL     1      36.966 -22.877 -11.589  0.00  0.00    -0.022 NA
ATOM     12  C   UNL     1      37.535 -23.897 -13.386  0.00  0.00    +0.260 A 
BRANCH  12  16
ATOM     13  F   UNL     1      37.200 -25.450 -15.148  0.00  0.00    -0.163 F 
ATOM     14  F   UNL     1      38.945 -24.161 -15.277  0.00  0.00    -0.163 F 
ATOM     15  F   UNL     1      38.893 -25.776 -13.813  0.00  0.00    -0.163 F 
ATOM     16  C   UNL     1      38.130 -24.800 -14.387  0.00  0.00    +0.454 C 
ENDBRANCH  12  16
ENDBRANCH   5   8
BRANCH   3  17
ATOM     17  O   UNL     1      34.700 -21.405 -18.645  0.00  0.00    -0.472 OA
ATOM     18  C   UNL     1      35.638 -20.836 -19.555  0.00  0.00    +0.252 C 
ENDBRANCH   3  17
ENDBRANCH   1   2
BRANCH   1  19
ATOM     19  N   UNL     1      32.012 -22.595 -16.166  0.00  0.00    +0.387 N 
ATOM     20  H   UNL     1      32.314 -21.718 -15.741  0.00  0.00    -0.084 HD
ATOM     21  H   UNL     1      31.179 -22.445 -16.734  0.00  0.00    -0.084 HD
BRANCH  19  23
ATOM     22  N   UNL     1      30.025 -25.153 -14.189  0.00  0.00    +0.386 N 
ATOM     23  C   UNL     1      31.697 -23.556 -15.110  0.00  0.00    -0.077 C 
ATOM     24  C   UNL     1      30.313 -24.236 -15.314  0.00  0.00    -0.058 C 
ATOM     25  C   UNL     1      31.881 -22.925 -13.723  0.00  0.00    -0.025 C 
ATOM     26  C   UNL     1      31.473 -23.901 -12.625  0.00  0.00    -0.026 C 
ATOM     27  C   UNL     1      30.089 -24.485 -12.888  0.00  0.00    -0.081 C 
ATOM     28  H   UNL     1      30.708 -25.910 -14.201  0.00  0.00    -0.084 HD
ATOM     29  H   UNL     1      29.075 -25.504 -14.311  0.00  0.00    -0.084 HD
BRANCH  24  30
ATOM     30  C   UNL     1      29.083 -23.402 -15.667  0.00  0.00    -0.044 C 
ATOM     31  C   UNL     1      28.333 -23.722 -16.794  0.00  0.00    -0.006 C 
ATOM     32  C   UNL     1      28.722 -22.329 -14.858  0.00  0.00    -0.006 C 
ATOM     33  C   UNL     1      27.210 -22.960 -17.117  0.00  0.00    -0.000 C 
ATOM     34  C   UNL     1      27.598 -21.569 -15.180  0.00  0.00    -0.000 C 
ATOM     35  C   UNL     1      26.842 -21.883 -16.310  0.00  0.00    -0.000 C 
ENDBRANCH  24  30
ENDBRANCH  19  23
ENDBRANCH   1  19
TORSDOF 7
ENDMDL
MODEL 3
REMARK VINA RESULT:     -10.7      1.221      2.823
REMARK  Name = 6918331
REMARK  7 active torsions:
REMARK  status: ('A' for Active; 'I' for Inactive)
REMARK    1  A    between atoms: C_1  and  C_2
REMARK    2  A    between atoms: C_1  and  N_19
REMARK    3  A    between atoms: C_3  and  O_17
REMARK    4  A    between atoms: C_5  and  N_8
REMARK    5  A    between atoms: C_12  and  C_16
REMARK    6  A    between atoms: N_19  and  C_23
REMARK    7  A    between atoms: C_24  and  C_30
REMARK                            x       y       z     vdW  Elec       q    Type
REMARK                         _______ _______ _______ _____ _____    ______ ____
ROOT
ATOM      1  C   UNL     1      32.981  -8.562 -23.250  0.00  0.00    -0.051 C 
ENDROOT
BRANCH   1   2
ATOM      2  C   UNL     1      32.430  -9.860 -22.722  0.00  0.00    -0.008 C 
ATOM      3  C   UNL     1      31.433  -9.855 -21.754  0.00  0.00    +0.133 C 
ATOM      4  C   UNL     1      32.935 -11.054 -23.218  0.00  0.00    +0.016 C 
ATOM      5  C   UNL     1      32.435 -12.265 -22.740  0.00  0.00    +0.086 C 
ATOM      6  C   UNL     1      30.934 -11.067 -21.276  0.00  0.00    +0.038 C 
ATOM      7  C   UNL     1      31.434 -12.271 -21.768  0.00  0.00    +0.022 C 
BRANCH   5   8
ATOM      8  N   UNL     1      32.932 -13.460 -23.228  0.00  0.00    -0.188 N 
ATOM      9  N   UNL     1      32.858 -13.782 -24.531  0.00  0.00    -0.039 NA
ATOM     10  N   UNL     1      33.855 -15.421 -23.395  0.00  0.00    -0.104 NA
ATOM     11  N   UNL     1      33.423 -14.979 -24.625  0.00  0.00    -0.022 NA
ATOM     12  C   UNL     1      33.542 -14.469 -22.547  0.00  0.00    +0.260 A 
BRANCH  12  16
ATOM     13  F   UNL     1      34.452 -13.331 -20.675  0.00  0.00    -0.163 F 
ATOM     14  F   UNL     1      32.644 -14.494 -20.350  0.00  0.00    -0.163 F 
ATOM     15  F   UNL     1      34.544 -15.509 -20.685  0.00  0.00    -0.163 F 
ATOM     16  C   UNL     1      33.788 -14.449 -21.095  0.00  0.00    +0.454 C 
ENDBRANCH  12  16
ENDBRANCH   5   8
BRANCH   3  17
ATOM     17  O   UNL     1      30.932  -8.688 -21.262  0.00  0.00    -0.472 OA
ATOM     18  C   UNL     1      31.174  -8.408 -19.885  0.00  0.00    +0.252 C 
ENDBRANCH   3  17
ENDBRANCH   1   2
BRANCH   1  19
ATOM     19  N   UNL     1      32.004  -7.848 -24.055  0.00  0.00    +0.387 N 
ATOM     20  H   UNL     1      31.649  -8.470 -24.782  0.00  0.00    -0.084 HD
ATOM     21  H   UNL     1      31.243  -7.538 -23.451  0.00  0.00    -0.084 HD
BRANCH  19  23
ATOM     22  N   UNL     1      33.550  -4.395 -24.350  0.00  0.00    +0.386 N 
ATOM     23  C   UNL     1      32.613  -6.676 -24.684  0.00  0.00    -0.077 C 
ATOM     24  C   UNL     1      32.992  -5.574 -23.653  0.00  0.00    -0.058 C 
ATOM     25  C   UNL     1      31.749  -6.167 -25.846  0.00  0.00    -0.025 C 
ATOM     26  C   UNL     1      32.342  -4.897 -26.447  0.00  0.00    -0.026 C 
ATOM     27  C   UNL     1      32.644  -3.863 -25.369  0.00  0.00    -0.081 C 
ATOM     28  H   UNL     1      34.425  -4.664 -24.800  0.00  0.00    -0.084 HD
ATOM     29  H   UNL     1      33.697  -3.664 -23.653  0.00  0.00    -0.084 HD
BRANCH  24  30
ATOM     30  C   UNL     1      32.003  -5.151 -22.570  0.00  0.00    -0.044 C 
ATOM     31  C   UNL     1      30.758  -4.646 -22.932  0.00  0.00    -0.006 C 
ATOM     32  C   UNL     1      32.352  -5.273 -21.229  0.00  0.00    -0.006 C 
ATOM     33  C   UNL     1      29.853  -4.259 -21.944  0.00  0.00    -0.000 C 
ATOM     34  C   UNL     1      31.447  -4.887 -20.240  0.00  0.00    -0.000 C 
ATOM     35  C   UNL     1      30.198  -4.379 -20.598  0.00  0.00    -0.000 C 
ENDBRANCH  24  30
ENDBRANCH  19  23
ENDBRANCH   1  19
TORSDOF 7
ENDMDL
MODEL 4
REMARK VINA RESULT:     -10.4      9.139     14.750
REMARK  Name = 6918331
REMARK  7 active torsions:
REMARK  status: ('A' for Active; 'I' for Inactive)
REMARK    1  A    between atoms: C_1  and  C_2
REMARK    2  A    between atoms: C_1  and  N_19
REMARK    3  A    between atoms: C_3  and  O_17
REMARK    4  A    between atoms: C_5  and  N_8
REMARK    5  A    between atoms: C_12  and  C_16
REMARK    6  A    between atoms: N_19  and  C_23
REMARK    7  A    between atoms: C_24  and  C_30
REMARK                            x       y       z     vdW  Elec       q    Type
REMARK                         _______ _______ _______ _____ _____    ______ ____
ROOT
ATOM      1  C   UNL     1      32.607 -21.538 -18.565  0.00  0.00    -0.051 C 
ENDROOT
BRANCH   1   2
ATOM      2  C   UNL     1      33.696 -20.901 -19.389  0.00  0.00    -0.008 C 
ATOM      3  C   UNL     1      35.027 -21.040 -19.016  0.00  0.00    +0.133 C 
ATOM      4  C   UNL     1      33.344 -20.179 -20.521  0.00  0.00    +0.016 C 
ATOM      5  C   UNL     1      34.340 -19.584 -21.295  0.00  0.00    +0.086 C 
ATOM      6  C   UNL     1      36.023 -20.444 -19.790  0.00  0.00    +0.038 C 
ATOM      7  C   UNL     1      35.680 -19.717 -20.929  0.00  0.00    +0.022 C 
BRANCH   5   8
ATOM      8  N   UNL     1      34.001 -18.862 -22.425  0.00  0.00    -0.188 N 
ATOM      9  N   UNL     1      33.350 -19.423 -23.459  0.00  0.00    -0.039 NA
ATOM     10  N   UNL     1      33.750 -17.271 -23.885  0.00  0.00    -0.104 NA
ATOM     11  N   UNL     1      33.200 -18.447 -24.345  0.00  0.00    -0.022 NA
ATOM     12  C   UNL     1      34.239 -17.549 -22.699  0.00  0.00    +0.260 A 
BRANCH  12  16
ATOM     13  F   UNL     1      34.928 -15.333 -22.206  0.00  0.00    -0.163 F 
ATOM     14  F   UNL     1      34.394 -16.606 -20.526  0.00  0.00    -0.163 F 
ATOM     15  F   UNL     1      36.248 -16.965 -21.615  0.00  0.00    -0.163 F 
ATOM     16  C   UNL     1      34.935 -16.631 -21.781  0.00  0.00    +0.454 C 
ENDBRANCH  12  16
ENDBRANCH   5   8
BRANCH   3  17
ATOM     17  O   UNL     1      35.379 -21.747 -17.906  0.00  0.00    -0.472 OA
ATOM     18  C   UNL     1      36.519 -21.290 -17.181  0.00  0.00    +0.252 C 
ENDBRANCH   3  17
ENDBRANCH   1   2
BRANCH   1  19
ATOM     19  N   UNL     1      33.149 -22.379 -17.511  0.00  0.00    +0.387 N 
ATOM     20  H   UNL     1      33.250 -23.332 -17.861  0.00  0.00    -0.084 HD
ATOM     21  H   UNL     1      34.055 -22.008 -17.228  0.00  0.00    -0.084 HD
BRANCH  19  23
ATOM     22  N   UNL     1      32.086 -22.346 -13.868  0.00  0.00    +0.386 N 
ATOM     23  C   UNL     1      32.259 -22.387 -16.350  0.00  0.00    -0.077 C 
ATOM     24  C   UNL     1      33.031 -22.277 -15.004  0.00  0.00    -0.058 C 
ATOM     25  C   UNL     1      31.286 -23.573 -16.414  0.00  0.00    -0.025 C 
ATOM     26  C   UNL     1      30.416 -23.627 -15.163  0.00  0.00    -0.026 C 
ATOM     27  C   UNL     1      31.260 -23.554 -13.896  0.00  0.00    -0.081 C 
ATOM     28  H   UNL     1      31.474 -21.531 -13.902  0.00  0.00    -0.084 HD
ATOM     29  H   UNL     1      32.636 -22.367 -13.009  0.00  0.00    -0.084 HD
BRANCH  24  30
ATOM     30  C   UNL     1      34.263 -23.142 -14.744  0.00  0.00    -0.044 C 
ATOM     31  C   UNL     1      35.378 -22.585 -14.126  0.00  0.00    -0.006 C 
ATOM     32  C   UNL     1      34.260 -24.480 -15.124  0.00  0.00    -0.006 C 
ATOM     33  C   UNL     1      36.503 -23.374 -13.888  0.00  0.00    -0.000 C 
ATOM     34  C   UNL     1      35.385 -25.269 -14.885  0.00  0.00    -0.000 C 
ATOM     35  C   UNL     1      36.507 -24.716 -14.267  0.00  0.00    -0.000 C 
ENDBRANCH  24  30
ENDBRANCH  19  23
ENDBRANCH   1  19
TORSDOF 7
ENDMDL
MODEL 5
REMARK VINA RESULT:     -10.3     14.535     17.434
REMARK  Name = 6918331
REMARK  7 active torsions:
REMARK  status: ('A' for Active; 'I' for Inactive)
REMARK    1  A    between atoms: C_1  and  C_2
REMARK    2  A    between atoms: C_1  and  N_19
REMARK    3  A    between atoms: C_3  and  O_17
REMARK    4  A    between atoms: C_5  and  N_8
REMARK    5  A    between atoms: C_12  and  C_16
REMARK    6  A    between atoms: N_19  and  C_23
REMARK    7  A    between atoms: C_24  and  C_30
REMARK                            x       y       z     vdW  Elec       q    Type
REMARK                         _______ _______ _______ _____ _____    ______ ____
ROOT
ATOM      1  C   UNL     1      32.898 -23.214 -16.819  0.00  0.00    -0.051 C 
ENDROOT
BRANCH   1   2
ATOM      2  C   UNL     1      34.259 -23.101 -16.184  0.00  0.00    -0.008 C 
ATOM      3  C   UNL     1      35.160 -22.141 -16.627  0.00  0.00    +0.133 C 
ATOM      4  C   UNL     1      34.593 -23.971 -15.155  0.00  0.00    +0.016 C 
ATOM      5  C   UNL     1      35.849 -23.879 -14.556  0.00  0.00    +0.086 C 
ATOM      6  C   UNL     1      36.417 -22.050 -16.028  0.00  0.00    +0.038 C 
ATOM      7  C   UNL     1      36.761 -22.919 -14.993  0.00  0.00    +0.022 C 
BRANCH   5   8
ATOM      8  N   UNL     1      36.192 -24.741 -13.530  0.00  0.00    -0.188 N 
ATOM      9  N   UNL     1      36.698 -25.964 -13.767  0.00  0.00    -0.039 NA
ATOM     10  N   UNL     1      36.527 -25.620 -11.570  0.00  0.00    -0.104 NA
ATOM     11  N   UNL     1      36.900 -26.494 -12.567  0.00  0.00    -0.022 NA
ATOM     12  C   UNL     1      36.093 -24.545 -12.186  0.00  0.00    +0.260 A 
BRANCH  12  16
ATOM     13  F   UNL     1      36.322 -22.205 -11.869  0.00  0.00    -0.163 F 
ATOM     14  F   UNL     1      34.303 -23.004 -11.958  0.00  0.00    -0.163 F 
ATOM     15  F   UNL     1      35.546 -23.386 -10.208  0.00  0.00    -0.163 F 
ATOM     16  C   UNL     1      35.576 -23.310 -11.571  0.00  0.00    +0.454 C 
ENDBRANCH  12  16
ENDBRANCH   5   8
BRANCH   3  17
ATOM     17  O   UNL     1      34.840 -21.284 -17.636  0.00  0.00    -0.472 OA
ATOM     18  C   UNL     1      35.729 -21.234 -18.750  0.00  0.00    +0.252 C 
ENDBRANCH   3  17
ENDBRANCH   1   2
BRANCH   1  19
ATOM     19  N   UNL     1      31.865 -22.611 -15.993  0.00  0.00    +0.387 N 
ATOM     20  H   UNL     1      32.218 -21.739 -15.597  0.00  0.00    -0.084 HD
ATOM     21  H   UNL     1      31.045 -22.430 -16.572  0.00  0.00    -0.084 HD
BRANCH  19  23
ATOM     22  N   UNL     1      29.761 -25.065 -14.005  0.00  0.00    +0.386 N 
ATOM     23  C   UNL     1      31.484 -23.512 -14.905  0.00  0.00    -0.077 C 
ATOM     24  C   UNL     1      30.119 -24.212 -15.160  0.00  0.00    -0.058 C 
ATOM     25  C   UNL     1      31.574 -22.800 -13.548  0.00  0.00    -0.025 C 
ATOM     26  C   UNL     1      31.098 -23.715 -12.425  0.00  0.00    -0.026 C 
ATOM     27  C   UNL     1      29.737 -24.323 -12.743  0.00  0.00    -0.081 C 
ATOM     28  H   UNL     1      30.447 -25.817 -13.928  0.00  0.00    -0.084 HD
ATOM     29  H   UNL     1      28.822 -25.429 -14.168  0.00  0.00    -0.084 HD
BRANCH  24  30
ATOM     30  C   UNL     1      28.912 -23.409 -15.640  0.00  0.00    -0.044 C 
ATOM     31  C   UNL     1      28.516 -22.274 -14.940  0.00  0.00    -0.006 C 
ATOM     32  C   UNL     1      28.218 -23.818 -16.774  0.00  0.00    -0.006 C 
ATOM     33  C   UNL     1      27.414 -21.540 -15.378  0.00  0.00    -0.000 C 
ATOM     34  C   UNL     1      27.116 -23.083 -17.213  0.00  0.00    -0.000 C 
ATOM     35  C   UNL     1      26.714 -21.944 -16.514  0.00  0.00    -0.000 C 
ENDBRANCH  24  30
ENDBRANCH  19  23
ENDBRANCH   1  19
TORSDOF 7
ENDMDL
MODEL 6
REMARK VINA RESULT:     -10.2     15.023     17.752
REMARK  Name = 6918331
REMARK  7 active torsions:
REMARK  status: ('A' for Active; 'I' for Inactive)
REMARK    1  A    between atoms: C_1  and  C_2
REMARK    2  A    between atoms: C_1  and  N_19
REMARK    3  A    between atoms: C_3  and  O_17
REMARK    4  A    between atoms: C_5  and  N_8
REMARK    5  A    between atoms: C_12  and  C_16
REMARK    6  A    between atoms: N_19  and  C_23
REMARK    7  A    between atoms: C_24  and  C_30
REMARK                            x       y       z     vdW  Elec       q    Type
REMARK                         _______ _______ _______ _____ _____    ______ ____
ROOT
ATOM      1  C   UNL     1      33.785 -23.608 -14.241  0.00  0.00    -0.051 C 
ENDROOT
BRANCH   1   2
ATOM      2  C   UNL     1      32.906 -23.120 -15.362  0.00  0.00    -0.008 C 
ATOM      3  C   UNL     1      33.467 -22.735 -16.574  0.00  0.00    +0.133 C 
ATOM      4  C   UNL     1      31.533 -23.063 -15.162  0.00  0.00    +0.016 C 
ATOM      5  C   UNL     1      30.706 -22.614 -16.191  0.00  0.00    +0.086 C 
ATOM      6  C   UNL     1      32.638 -22.285 -17.602  0.00  0.00    +0.038 C 
ATOM      7  C   UNL     1      31.258 -22.225 -17.411  0.00  0.00    +0.022 C 
BRANCH   5   8
ATOM      8  N   UNL     1      29.337 -22.553 -16.002  0.00  0.00    -0.188 N 
ATOM      9  N   UNL     1      28.589 -21.569 -16.530  0.00  0.00    -0.039 NA
ATOM     10  N   UNL     1      27.297 -22.974 -15.377  0.00  0.00    -0.104 NA
ATOM     11  N   UNL     1      27.347 -21.832 -16.144  0.00  0.00    -0.022 NA
ATOM     12  C   UNL     1      28.536 -23.403 -15.301  0.00  0.00    +0.260 A 
BRANCH  12  16
ATOM     13  F   UNL     1      29.753 -25.438 -15.385  0.00  0.00    -0.163 F 
ATOM     14  F   UNL     1      29.841 -24.302 -13.534  0.00  0.00    -0.163 F 
ATOM     15  F   UNL     1      28.008 -25.349 -14.080  0.00  0.00    -0.163 F 
ATOM     16  C   UNL     1      29.027 -24.596 -14.591  0.00  0.00    +0.454 C 
ENDBRANCH  12  16
ENDBRANCH   5   8
BRANCH   3  17
ATOM     17  O   UNL     1      34.812 -22.787 -16.778  0.00  0.00    -0.472 OA
ATOM     18  C   UNL     1      35.420 -21.652 -17.391  0.00  0.00    +0.252 C 
ENDBRANCH   3  17
ENDBRANCH   1   2
BRANCH   1  19
ATOM     19  N   UNL     1      34.841 -22.658 -13.929  0.00  0.00    +0.387 N 
ATOM     20  H   UNL     1      35.642 -22.837 -14.534  0.00  0.00    -0.084 HD
ATOM     21  H   UNL     1      34.487 -21.713 -14.080  0.00  0.00    -0.084 HD
BRANCH  19  23
ATOM     22  N   UNL     1      37.160 -22.900 -10.935  0.00  0.00    +0.386 N 
ATOM     23  C   UNL     1      35.255 -22.789 -12.533  0.00  0.00    -0.077 C 
ATOM     24  C   UNL     1      36.798 -22.706 -12.356  0.00  0.00    -0.058 C 
ATOM     25  C   UNL     1      34.621 -24.030 -11.888  0.00  0.00    -0.025 C 
ATOM     26  C   UNL     1      35.119 -24.211 -10.458  0.00  0.00    -0.026 C 
ATOM     27  C   UNL     1      36.641 -24.155 -10.389  0.00  0.00    -0.081 C 
ATOM     28  H   UNL     1      36.778 -22.125 -10.391  0.00  0.00    -0.084 HD
ATOM     29  H   UNL     1      38.177 -22.933 -10.876  0.00  0.00    -0.084 HD
BRANCH  24  30
ATOM     30  C   UNL     1      37.727 -23.502 -13.270  0.00  0.00    -0.044 C 
ATOM     31  C   UNL     1      37.818 -23.172 -14.618  0.00  0.00    -0.006 C 
ATOM     32  C   UNL     1      38.477 -24.550 -12.746  0.00  0.00    -0.006 C 
ATOM     33  C   UNL     1      38.666 -23.899 -15.453  0.00  0.00    -0.000 C 
ATOM     34  C   UNL     1      39.327 -25.276 -13.581  0.00  0.00    -0.000 C 
ATOM     35  C   UNL     1      39.421 -24.951 -14.935  0.00  0.00    -0.000 C 
ENDBRANCH  24  30
ENDBRANCH  19  23
ENDBRANCH   1  19
TORSDOF 7
ENDMDL
MODEL 7
REMARK VINA RESULT:     -10.2     12.557     15.977
REMARK  Name = 6918331
REMARK  7 active torsions:
REMARK  status: ('A' for Active; 'I' for Inactive)
REMARK    1  A    between atoms: C_1  and  C_2
REMARK    2  A    between atoms: C_1  and  N_19
REMARK    3  A    between atoms: C_3  and  O_17
REMARK    4  A    between atoms: C_5  and  N_8
REMARK    5  A    between atoms: C_12  and  C_16
REMARK    6  A    between atoms: N_19  and  C_23
REMARK    7  A    between atoms: C_24  and  C_30
REMARK                            x       y       z     vdW  Elec       q    Type
REMARK                         _______ _______ _______ _____ _____    ______ ____
ROOT
ATOM      1  C   UNL     1      31.960 -22.414 -16.917  0.00  0.00    -0.051 C 
ENDROOT
BRANCH   1   2
ATOM      2  C   UNL     1      31.937 -23.135 -15.595  0.00  0.00    -0.008 C 
ATOM      3  C   UNL     1      30.776 -23.761 -15.160  0.00  0.00    +0.133 C 
ATOM      4  C   UNL     1      33.093 -23.160 -14.825  0.00  0.00    +0.016 C 
ATOM      5  C   UNL     1      33.088 -23.824 -13.599  0.00  0.00    +0.086 C 
ATOM      6  C   UNL     1      30.772 -24.425 -13.932  0.00  0.00    +0.038 C 
ATOM      7  C   UNL     1      31.928 -24.456 -13.152  0.00  0.00    +0.022 C 
BRANCH   5   8
ATOM      8  N   UNL     1      34.233 -23.856 -12.824  0.00  0.00    -0.188 N 
ATOM      9  N   UNL     1      34.293 -23.265 -11.618  0.00  0.00    -0.039 NA
ATOM     10  N   UNL     1      36.247 -24.228 -12.094  0.00  0.00    -0.104 NA
ATOM     11  N   UNL     1      35.524 -23.496 -11.179  0.00  0.00    -0.022 NA
ATOM     12  C   UNL     1      35.433 -24.439 -13.102  0.00  0.00    +0.260 A 
BRANCH  12  16
ATOM     13  F   UNL     1      36.019 -26.492 -14.135  0.00  0.00    -0.163 F 
ATOM     14  F   UNL     1      34.678 -25.175 -15.228  0.00  0.00    -0.163 F 
ATOM     15  F   UNL     1      36.784 -24.652 -15.020  0.00  0.00    -0.163 F 
ATOM     16  C   UNL     1      35.720 -25.175 -14.344  0.00  0.00    +0.454 C 
ENDBRANCH  12  16
ENDBRANCH   5   8
BRANCH   3  17
ATOM     17  O   UNL     1      29.639 -23.741 -15.909  0.00  0.00    -0.472 OA
ATOM     18  C   UNL     1      28.413 -24.022 -15.236  0.00  0.00    +0.252 C 
ENDBRANCH   3  17
ENDBRANCH   1   2
BRANCH   1  19
ATOM     19  N   UNL     1      32.862 -23.049 -17.864  0.00  0.00    +0.387 N 
ATOM     20  H   UNL     1      33.760 -23.218 -17.410  0.00  0.00    -0.084 HD
ATOM     21  H   UNL     1      32.450 -23.929 -18.171  0.00  0.00    -0.084 HD
BRANCH  19  23
ATOM     22  N   UNL     1      34.715 -20.980 -20.450  0.00  0.00    +0.386 N 
ATOM     23  C   UNL     1      33.069 -22.192 -19.031  0.00  0.00    -0.077 C 
ATOM     24  C   UNL     1      34.573 -21.892 -19.294  0.00  0.00    -0.058 C 
ATOM     25  C   UNL     1      32.189 -20.937 -18.952  0.00  0.00    -0.025 C 
ATOM     26  C   UNL     1      32.466 -20.006 -20.128  0.00  0.00    -0.026 C 
ATOM     27  C   UNL     1      33.959 -19.738 -20.283  0.00  0.00    -0.081 C 
ATOM     28  H   UNL     1      34.378 -21.457 -21.287  0.00  0.00    -0.084 HD
ATOM     29  H   UNL     1      35.702 -20.734 -20.530  0.00  0.00    -0.084 HD
BRANCH  24  30
ATOM     30  C   UNL     1      35.491 -21.472 -18.150  0.00  0.00    -0.044 C 
ATOM     31  C   UNL     1      36.330 -20.373 -18.307  0.00  0.00    -0.006 C 
ATOM     32  C   UNL     1      35.482 -22.189 -16.958  0.00  0.00    -0.006 C 
ATOM     33  C   UNL     1      37.170 -19.988 -17.262  0.00  0.00    -0.000 C 
ATOM     34  C   UNL     1      36.322 -21.803 -15.913  0.00  0.00    -0.000 C 
ATOM     35  C   UNL     1      37.166 -20.703 -16.065  0.00  0.00    -0.000 C 
ENDBRANCH  24  30
ENDBRANCH  19  23
ENDBRANCH   1  19
TORSDOF 7
ENDMDL
MODEL 8
REMARK VINA RESULT:     -10.1     10.823     15.557
REMARK  Name = 6918331
REMARK  7 active torsions:
REMARK  status: ('A' for Active; 'I' for Inactive)
REMARK    1  A    between atoms: C_1  and  C_2
REMARK    2  A    between atoms: C_1  and  N_19
REMARK    3  A    between atoms: C_3  and  O_17
REMARK    4  A    between atoms: C_5  and  N_8
REMARK    5  A    between atoms: C_12  and  C_16
REMARK    6  A    between atoms: N_19  and  C_23
REMARK    7  A    between atoms: C_24  and  C_30
REMARK                            x       y       z     vdW  Elec       q    Type
REMARK                         _______ _______ _______ _____ _____    ______ ____
ROOT
ATOM      1  C   UNL     1      34.732 -22.778 -17.378  0.00  0.00    -0.051 C 
ENDROOT
BRANCH   1   2
ATOM      2  C   UNL     1      34.173 -21.813 -18.391  0.00  0.00    -0.008 C 
ATOM      3  C   UNL     1      32.807 -21.771 -18.637  0.00  0.00    +0.133 C 
ATOM      4  C   UNL     1      35.046 -20.974 -19.070  0.00  0.00    +0.016 C 
ATOM      5  C   UNL     1      34.544 -20.075 -20.011  0.00  0.00    +0.086 C 
ATOM      6  C   UNL     1      32.306 -20.872 -19.579  0.00  0.00    +0.038 C 
ATOM      7  C   UNL     1      33.174 -20.024 -20.266  0.00  0.00    +0.022 C 
BRANCH   5   8
ATOM      8  N   UNL     1      35.405 -19.233 -20.692  0.00  0.00    -0.188 N 
ATOM      9  N   UNL     1      36.552 -18.794 -20.146  0.00  0.00    -0.039 NA
ATOM     10  N   UNL     1      36.321 -17.966 -22.203  0.00  0.00    -0.104 NA
ATOM     11  N   UNL     1      37.105 -18.022 -21.073  0.00  0.00    -0.022 NA
ATOM     12  C   UNL     1      35.277 -18.720 -21.947  0.00  0.00    +0.260 A 
BRANCH  12  16
ATOM     13  F   UNL     1      34.357 -20.031 -23.697  0.00  0.00    -0.163 F 
ATOM     14  F   UNL     1      32.991 -19.323 -22.162  0.00  0.00    -0.163 F 
ATOM     15  F   UNL     1      33.815 -17.920 -23.614  0.00  0.00    -0.163 F 
ATOM     16  C   UNL     1      34.134 -18.996 -22.835  0.00  0.00    +0.454 C 
ENDBRANCH  12  16
ENDBRANCH   5   8
BRANCH   3  17
ATOM     17  O   UNL     1      31.944 -22.592 -17.976  0.00  0.00    -0.472 OA
ATOM     18  C   UNL     1      31.188 -22.017 -16.913  0.00  0.00    +0.252 C 
ENDBRANCH   3  17
ENDBRANCH   1   2
BRANCH   1  19
ATOM     19  N   UNL     1      35.426 -22.089 -16.302  0.00  0.00    +0.387 N 
ATOM     20  H   UNL     1      36.388 -22.422 -16.255  0.00  0.00    -0.084 HD
ATOM     21  H   UNL     1      35.407 -21.087 -16.487  0.00  0.00    -0.084 HD
BRANCH  19  23
ATOM     22  N   UNL     1      35.062 -22.791 -12.590  0.00  0.00    +0.386 N 
ATOM     23  C   UNL     1      34.768 -22.343 -15.020  0.00  0.00    -0.077 C 
ATOM     24  C   UNL     1      35.779 -22.480 -13.846  0.00  0.00    -0.058 C 
ATOM     25  C   UNL     1      33.784 -23.516 -15.133  0.00  0.00    -0.025 C 
ATOM     26  C   UNL     1      33.161 -23.833 -13.778  0.00  0.00    -0.026 C 
ATOM     27  C   UNL     1      34.228 -23.989 -12.700  0.00  0.00    -0.081 C 
ATOM     28  H   UNL     1      34.466 -21.999 -12.349  0.00  0.00    -0.084 HD
ATOM     29  H   UNL     1      35.762 -22.966 -11.869  0.00  0.00    -0.084 HD
BRANCH  24  30
ATOM     30  C   UNL     1      37.026 -23.350 -13.993  0.00  0.00    -0.044 C 
ATOM     31  C   UNL     1      37.813 -23.241 -15.135  0.00  0.00    -0.006 C 
ATOM     32  C   UNL     1      37.365 -24.245 -12.984  0.00  0.00    -0.006 C 
ATOM     33  C   UNL     1      38.951 -24.035 -15.270  0.00  0.00    -0.000 C 
ATOM     34  C   UNL     1      38.504 -25.040 -13.119  0.00  0.00    -0.000 C 
ATOM     35  C   UNL     1      39.297 -24.935 -14.262  0.00  0.00    -0.000 C 
ENDBRANCH  24  30
ENDBRANCH  19  23
ENDBRANCH   1  19
TORSDOF 7
ENDMDL
MODEL 9
REMARK VINA RESULT:     -10.0     12.202     15.711
REMARK  Name = 6918331
REMARK  7 active torsions:
REMARK  status: ('A' for Active; 'I' for Inactive)
REMARK    1  A    between atoms: C_1  and  C_2
REMARK    2  A    between atoms: C_1  and  N_19
REMARK    3  A    between atoms: C_3  and  O_17
REMARK    4  A    between atoms: C_5  and  N_8
REMARK    5  A    between atoms: C_12  and  C_16
REMARK    6  A    between atoms: N_19  and  C_23
REMARK    7  A    between atoms: C_24  and  C_30
REMARK                            x       y       z     vdW  Elec       q    Type
REMARK                         _______ _______ _______ _____ _____    ______ ____
ROOT
ATOM      1  C   UNL     1      32.357 -22.437 -17.141  0.00  0.00    -0.051 C 
ENDROOT
BRANCH   1   2
ATOM      2  C   UNL     1      32.737 -23.012 -15.802  0.00  0.00    -0.008 C 
ATOM      3  C   UNL     1      31.910 -22.828 -14.701  0.00  0.00    +0.133 C 
ATOM      4  C   UNL     1      33.923 -23.725 -15.691  0.00  0.00    +0.016 C 
ATOM      5  C   UNL     1      34.289 -24.265 -14.458  0.00  0.00    +0.086 C 
ATOM      6  C   UNL     1      32.277 -23.367 -13.468  0.00  0.00    +0.038 C 
ATOM      7  C   UNL     1      33.465 -24.086 -13.346  0.00  0.00    +0.022 C 
BRANCH   5   8
ATOM      8  N   UNL     1      35.468 -24.977 -14.336  0.00  0.00    -0.188 N 
ATOM      9  N   UNL     1      35.710 -26.083 -15.061  0.00  0.00    -0.039 NA
ATOM     10  N   UNL     1      37.442 -25.654 -13.724  0.00  0.00    -0.104 NA
ATOM     11  N   UNL     1      36.915 -26.490 -14.683  0.00  0.00    -0.022 NA
ATOM     12  C   UNL     1      36.533 -24.727 -13.525  0.00  0.00    +0.260 A 
BRANCH  12  16
ATOM     13  F   UNL     1      36.223 -22.405 -13.153  0.00  0.00    -0.163 F 
ATOM     14  F   UNL     1      35.816 -23.742 -11.488  0.00  0.00    -0.163 F 
ATOM     15  F   UNL     1      37.872 -23.389 -12.121  0.00  0.00    -0.163 F 
ATOM     16  C   UNL     1      36.606 -23.590 -12.592  0.00  0.00    +0.454 C 
ENDBRANCH  12  16
ENDBRANCH   5   8
BRANCH   3  17
ATOM     17  O   UNL     1      30.745 -22.129 -14.802  0.00  0.00    -0.472 OA
ATOM     18  C   UNL     1      29.532 -22.865 -14.657  0.00  0.00    +0.252 C 
ENDBRANCH   3  17
ENDBRANCH   1   2
BRANCH   1  19
ATOM     19  N   UNL     1      33.156 -23.000 -18.217  0.00  0.00    +0.387 N 
ATOM     20  H   UNL     1      34.087 -23.220 -17.865  0.00  0.00    -0.084 HD
ATOM     21  H   UNL     1      32.698 -23.845 -18.558  0.00  0.00    -0.084 HD
BRANCH  19  23
ATOM     22  N   UNL     1      34.795 -20.628 -20.685  0.00  0.00    +0.386 N 
ATOM     23  C   UNL     1      33.273 -22.049 -19.323  0.00  0.00    -0.077 C 
ATOM     24  C   UNL     1      34.745 -21.630 -19.597  0.00  0.00    -0.058 C 
ATOM     25  C   UNL     1      32.315 -20.866 -19.130  0.00  0.00    -0.025 C 
ATOM     26  C   UNL     1      32.497 -19.835 -20.240  0.00  0.00    -0.026 C 
ATOM     27  C   UNL     1      33.964 -19.456 -20.409  0.00  0.00    -0.081 C 
ATOM     28  H   UNL     1      34.468 -21.065 -21.547  0.00  0.00    -0.084 HD
ATOM     29  H   UNL     1      35.761 -20.311 -20.769  0.00  0.00    -0.084 HD
BRANCH  24  30
ATOM     30  C   UNL     1      35.666 -21.232 -18.446  0.00  0.00    -0.044 C 
ATOM     31  C   UNL     1      35.798 -22.074 -17.346  0.00  0.00    -0.006 C 
ATOM     32  C   UNL     1      36.367 -20.032 -18.506  0.00  0.00    -0.006 C 
ATOM     33  C   UNL     1      36.639 -21.711 -16.294  0.00  0.00    -0.000 C 
ATOM     34  C   UNL     1      37.209 -19.670 -17.454  0.00  0.00    -0.000 C 
ATOM     35  C   UNL     1      37.344 -20.508 -16.348  0.00  0.00    -0.000 C 
ENDBRANCH  24  30
ENDBRANCH  19  23
ENDBRANCH   1  19
TORSDOF 7
ENDMDL
