MODEL 1
REMARK VINA RESULT:     -11.1      0.000      0.000
REMARK  Name = 447110
REMARK  9 active torsions:
REMARK  status: ('A' for Active; 'I' for Inactive)
REMARK    1  A    between atoms: C_1  and  C_2
REMARK    2  A    between atoms: C_1  and  N_15
REMARK    3  A    between atoms: C_1  and  P_26
REMARK    4  A    between atoms: C_5  and  C_10
REMARK    5  A    between atoms: C_16  and  O_18
REMARK    6  A    between atoms: O_18  and  C_19
REMARK    7  A    between atoms: C_19  and  C_20
REMARK    8  A    between atoms: P_26  and  O_28
REMARK    9  A    between atoms: P_26  and  O_30
REMARK                            x       y       z     vdW  Elec       q    Type
REMARK                         _______ _______ _______ _____ _____    ______ ____
ROOT
ATOM      1  C   UNL     1      35.443 -22.236 -15.336  0.00  0.00    +0.202 C 
ENDROOT
BRANCH   1   2
ATOM      2  C   UNL     1      34.117 -22.818 -14.898  0.00  0.00    +0.007 C 
ATOM      3  C   UNL     1      34.007 -23.379 -13.637  0.00  0.00    -0.002 C 
ATOM      4  C   UNL     1      33.040 -22.775 -15.768  0.00  0.00    -0.002 C 
ATOM      5  C   UNL     1      31.689 -23.880 -14.098  0.00  0.00    +0.031 C 
ATOM      6  C   UNL     1      32.783 -23.915 -13.235  0.00  0.00    +0.002 C 
ATOM      7  C   UNL     1      31.817 -23.311 -15.364  0.00  0.00    +0.002 C 
BRANCH   5  10
ATOM      8  N   UNL     1      29.492 -24.922 -14.606  0.00  0.00    -0.343 N 
ATOM      9  N   UNL     1      30.111 -24.495 -12.393  0.00  0.00    -0.285 NA
ATOM     10  C   UNL     1      30.414 -24.440 -13.678  0.00  0.00    +0.117 C 
ATOM     11  H   UNL     1      28.636 -25.298 -14.299  0.00  0.00    +0.144 HD
ATOM     12  H   UNL     1      29.699 -24.889 -15.568  0.00  0.00    +0.144 HD
ATOM     13  H   UNL     1      29.248 -24.873 -12.106  0.00  0.00    +0.188 HD
ENDBRANCH   5  10
ENDBRANCH   1   2
BRANCH   1  15
ATOM     14  O   UNL     1      36.837 -20.192 -16.860  0.00  0.00    -0.226 OA
ATOM     15  N   UNL     1      35.538 -22.111 -16.786  0.00  0.00    -0.258 N 
ATOM     16  C   UNL     1      36.229 -21.099 -17.419  0.00  0.00    +0.403 C 
ATOM     17  H   UNL     1      35.083 -22.785 -17.342  0.00  0.00    +0.154 HD
BRANCH  16  18
ATOM     18  O   UNL     1      36.134 -21.252 -18.772  0.00  0.00    -0.430 OA
BRANCH  18  19
ATOM     19  C   UNL     1      34.865 -20.923 -19.350  0.00  0.00    +0.237 C 
BRANCH  19  20
ATOM     20  C   UNL     1      35.062 -19.870 -20.400  0.00  0.00    +0.021 C 
ATOM     21  C   UNL     1      36.266 -19.176 -20.462  0.00  0.00    -0.001 C 
ATOM     22  C   UNL     1      34.039 -19.597 -21.302  0.00  0.00    -0.001 C 
ATOM     23  C   UNL     1      36.449 -18.198 -21.438  0.00  0.00    -0.000 C 
ATOM     24  C   UNL     1      34.223 -18.618 -22.279  0.00  0.00    -0.000 C 
ATOM     25  C   UNL     1      35.428 -17.917 -22.347  0.00  0.00    -0.000 C 
ENDBRANCH  19  20
ENDBRANCH  18  19
ENDBRANCH  16  18
ENDBRANCH   1  15
BRANCH   1  26
ATOM     26  P   UNL     1      36.913 -23.130 -14.821  0.00  0.00    +0.359 P 
ATOM     27  O   UNL     1      37.270 -22.955 -13.374  0.00  0.00    -0.256 OA
BRANCH  26  28
ATOM     28  O   UNL     1      38.059 -22.670 -15.865  0.00  0.00    -0.322 OA
ATOM     29  H   UNL     1      37.687 -22.640 -16.761  0.00  0.00    +0.220 HD
ENDBRANCH  26  28
BRANCH  26  30
ATOM     30  O   UNL     1      36.604 -24.656 -15.258  0.00  0.00    -0.322 OA
ATOM     31  H   UNL     1      37.263 -24.946 -15.908  0.00  0.00    +0.220 HD
ENDBRANCH  26  30
ENDBRANCH   1  26
TORSDOF 9
ENDMDL
MODEL 2
REMARK VINA RESULT:     -11.1      0.052      1.368
REMARK  Name = 447110
REMARK  9 active torsions:
REMARK  status: ('A' for Active; 'I' for Inactive)
REMARK    1  A    between atoms: C_1  and  C_2
REMARK    2  A    between atoms: C_1  and  N_15
REMARK    3  A    between atoms: C_1  and  P_26
REMARK    4  A    between atoms: C_5  and  C_10
REMARK    5  A    between atoms: C_16  and  O_18
REMARK    6  A    between atoms: O_18  and  C_19
REMARK    7  A    between atoms: C_19  and  C_20
REMARK    8  A    between atoms: P_26  and  O_28
REMARK    9  A    between atoms: P_26  and  O_30
REMARK                            x       y       z     vdW  Elec       q    Type
REMARK                         _______ _______ _______ _____ _____    ______ ____
ROOT
ATOM      1  C   UNL     1      35.501 -22.242 -15.333  0.00  0.00    +0.202 C 
ENDROOT
BRANCH   1   2
ATOM      2  C   UNL     1      34.168 -22.817 -14.907  0.00  0.00    +0.007 C 
ATOM      3  C   UNL     1      33.100 -22.774 -15.788  0.00  0.00    -0.002 C 
ATOM      4  C   UNL     1      34.045 -23.375 -13.646  0.00  0.00    -0.002 C 
ATOM      5  C   UNL     1      31.730 -23.870 -14.127  0.00  0.00    +0.031 C 
ATOM      6  C   UNL     1      31.871 -23.304 -15.394  0.00  0.00    +0.002 C 
ATOM      7  C   UNL     1      32.815 -23.905 -13.253  0.00  0.00    +0.002 C 
BRANCH   5  10
ATOM      8  N   UNL     1      29.508 -24.847 -14.654  0.00  0.00    -0.343 N 
ATOM      9  N   UNL     1      30.155 -24.522 -12.433  0.00  0.00    -0.285 NA
ATOM     10  C   UNL     1      30.448 -24.421 -13.717  0.00  0.00    +0.117 C 
ATOM     11  H   UNL     1      28.647 -25.219 -14.355  0.00  0.00    +0.144 HD
ATOM     12  H   UNL     1      29.707 -24.779 -15.616  0.00  0.00    +0.144 HD
ATOM     13  H   UNL     1      29.287 -24.895 -12.153  0.00  0.00    +0.188 HD
ENDBRANCH   5  10
ENDBRANCH   1   2
BRANCH   1  15
ATOM     14  O   UNL     1      36.845 -20.146 -16.833  0.00  0.00    -0.226 OA
ATOM     15  N   UNL     1      35.603 -22.104 -16.782  0.00  0.00    -0.258 N 
ATOM     16  C   UNL     1      36.269 -21.067 -17.403  0.00  0.00    +0.403 C 
ATOM     17  H   UNL     1      35.174 -22.788 -17.346  0.00  0.00    +0.154 HD
BRANCH  16  18
ATOM     18  O   UNL     1      36.189 -21.214 -18.758  0.00  0.00    -0.430 OA
BRANCH  18  19
ATOM     19  C   UNL     1      34.914 -20.924 -19.343  0.00  0.00    +0.237 C 
BRANCH  19  20
ATOM     20  C   UNL     1      35.086 -19.871 -20.397  0.00  0.00    +0.021 C 
ATOM     21  C   UNL     1      34.042 -19.598 -21.275  0.00  0.00    -0.001 C 
ATOM     22  C   UNL     1      36.288 -19.178 -20.488  0.00  0.00    -0.001 C 
ATOM     23  C   UNL     1      34.202 -18.619 -22.254  0.00  0.00    -0.000 C 
ATOM     24  C   UNL     1      36.448 -18.198 -21.468  0.00  0.00    -0.000 C 
ATOM     25  C   UNL     1      35.404 -17.919 -22.352  0.00  0.00    -0.000 C 
ENDBRANCH  19  20
ENDBRANCH  18  19
ENDBRANCH  16  18
ENDBRANCH   1  15
BRANCH   1  26
ATOM     26  P   UNL     1      36.961 -23.155 -14.821  0.00  0.00    +0.359 P 
ATOM     27  O   UNL     1      37.317 -22.991 -13.373  0.00  0.00    -0.256 OA
BRANCH  26  28
ATOM     28  O   UNL     1      38.113 -22.701 -15.860  0.00  0.00    -0.322 OA
ATOM     29  H   UNL     1      38.630 -23.476 -16.129  0.00  0.00    +0.220 HD
ENDBRANCH  26  28
BRANCH  26  30
ATOM     30  O   UNL     1      36.637 -24.674 -15.267  0.00  0.00    -0.322 OA
ATOM     31  H   UNL     1      37.406 -25.048 -15.726  0.00  0.00    +0.220 HD
ENDBRANCH  26  30
ENDBRANCH   1  26
TORSDOF 9
ENDMDL
MODEL 3
REMARK VINA RESULT:     -10.6      3.400      5.106
REMARK  Name = 447110
REMARK  9 active torsions:
REMARK  status: ('A' for Active; 'I' for Inactive)
REMARK    1  A    between atoms: C_1  and  C_2
REMARK    2  A    between atoms: C_1  and  N_15
REMARK    3  A    between atoms: C_1  and  P_26
REMARK    4  A    between atoms: C_5  and  C_10
REMARK    5  A    between atoms: C_16  and  O_18
REMARK    6  A    between atoms: O_18  and  C_19
REMARK    7  A    between atoms: C_19  and  C_20
REMARK    8  A    between atoms: P_26  and  O_28
REMARK    9  A    between atoms: P_26  and  O_30
REMARK                            x       y       z     vdW  Elec       q    Type
REMARK                         _______ _______ _______ _____ _____    ______ ____
ROOT
ATOM      1  C   UNL     1      34.138 -24.011 -15.002  0.00  0.00    +0.202 C 
ENDROOT
BRANCH   1   2
ATOM      2  C   UNL     1      35.612 -24.279 -14.790  0.00  0.00    +0.007 C 
ATOM      3  C   UNL     1      36.030 -25.564 -14.489  0.00  0.00    -0.002 C 
ATOM      4  C   UNL     1      36.511 -23.233 -14.906  0.00  0.00    -0.002 C 
ATOM      5  C   UNL     1      38.309 -24.767 -14.407  0.00  0.00    +0.031 C 
ATOM      6  C   UNL     1      37.390 -25.809 -14.295  0.00  0.00    +0.002 C 
ATOM      7  C   UNL     1      37.871 -23.479 -14.712  0.00  0.00    +0.002 C 
BRANCH   5  10
ATOM      8  N   UNL     1      40.214 -26.320 -14.051  0.00  0.00    -0.343 N 
ATOM      9  N   UNL     1      40.578 -24.015 -14.158  0.00  0.00    -0.285 NA
ATOM     10  C   UNL     1      39.727 -25.024 -14.204  0.00  0.00    +0.117 C 
ATOM     11  H   UNL     1      41.178 -26.471 -13.915  0.00  0.00    +0.144 HD
ATOM     12  H   UNL     1      39.595 -27.086 -14.080  0.00  0.00    +0.144 HD
ATOM     13  H   UNL     1      41.538 -24.186 -14.020  0.00  0.00    +0.188 HD
ENDBRANCH   5  10
ENDBRANCH   1   2
BRANCH   1  15
ATOM     14  O   UNL     1      33.051 -23.974 -17.697  0.00  0.00    -0.226 OA
ATOM     15  N   UNL     1      33.905 -22.852 -15.856  0.00  0.00    -0.258 N 
ATOM     16  C   UNL     1      33.380 -22.938 -17.129  0.00  0.00    +0.403 C 
ATOM     17  H   UNL     1      34.136 -21.961 -15.505  0.00  0.00    +0.154 HD
BRANCH  16  18
ATOM     18  O   UNL     1      33.283 -21.689 -17.672  0.00  0.00    -0.430 OA
BRANCH  18  19
ATOM     19  C   UNL     1      32.976 -21.639 -19.071  0.00  0.00    +0.237 C 
BRANCH  19  20
ATOM     20  C   UNL     1      33.909 -20.676 -19.743  0.00  0.00    +0.021 C 
ATOM     21  C   UNL     1      33.399 -19.704 -20.597  0.00  0.00    -0.001 C 
ATOM     22  C   UNL     1      35.277 -20.765 -19.506  0.00  0.00    -0.001 C 
ATOM     23  C   UNL     1      34.267 -18.809 -21.221  0.00  0.00    -0.000 C 
ATOM     24  C   UNL     1      36.145 -19.869 -20.131  0.00  0.00    -0.000 C 
ATOM     25  C   UNL     1      35.640 -18.891 -20.990  0.00  0.00    -0.000 C 
ENDBRANCH  19  20
ENDBRANCH  18  19
ENDBRANCH  16  18
ENDBRANCH   1  15
BRANCH   1  26
ATOM     26  P   UNL     1      33.158 -23.737 -13.521  0.00  0.00    +0.359 P 
ATOM     27  O   UNL     1      33.958 -23.671 -12.254  0.00  0.00    -0.256 OA
BRANCH  26  28
ATOM     28  O   UNL     1      32.032 -24.896 -13.555  0.00  0.00    -0.322 OA
ATOM     29  H   UNL     1      31.855 -25.201 -12.651  0.00  0.00    +0.220 HD
ENDBRANCH  26  28
BRANCH  26  30
ATOM     30  O   UNL     1      32.322 -22.396 -13.861  0.00  0.00    -0.322 OA
ATOM     31  H   UNL     1      31.409 -22.496 -13.547  0.00  0.00    +0.220 HD
ENDBRANCH  26  30
ENDBRANCH   1  26
TORSDOF 9
ENDMDL
MODEL 4
REMARK VINA RESULT:     -10.5      1.167      1.905
REMARK  Name = 447110
REMARK  9 active torsions:
REMARK  status: ('A' for Active; 'I' for Inactive)
REMARK    1  A    between atoms: C_1  and  C_2
REMARK    2  A    between atoms: C_1  and  N_15
REMARK    3  A    between atoms: C_1  and  P_26
REMARK    4  A    between atoms: C_5  and  C_10
REMARK    5  A    between atoms: C_16  and  O_18
REMARK    6  A    between atoms: O_18  and  C_19
REMARK    7  A    between atoms: C_19  and  C_20
REMARK    8  A    between atoms: P_26  and  O_28
REMARK    9  A    between atoms: P_26  and  O_30
REMARK                            x       y       z     vdW  Elec       q    Type
REMARK                         _______ _______ _______ _____ _____    ______ ____
ROOT
ATOM      1  C   UNL     1      34.732 -22.462 -15.502  0.00  0.00    +0.202 C 
ENDROOT
BRANCH   1   2
ATOM      2  C   UNL     1      33.235 -22.648 -15.380  0.00  0.00    +0.007 C 
ATOM      3  C   UNL     1      32.677 -22.831 -14.126  0.00  0.00    -0.002 C 
ATOM      4  C   UNL     1      32.457 -22.629 -16.524  0.00  0.00    -0.002 C 
ATOM      5  C   UNL     1      30.497 -22.986 -15.157  0.00  0.00    +0.031 C 
ATOM      6  C   UNL     1      31.296 -23.002 -14.014  0.00  0.00    +0.002 C 
ATOM      7  C   UNL     1      31.077 -22.800 -16.411  0.00  0.00    +0.002 C 
BRANCH   5  10
ATOM      8  N   UNL     1      28.178 -22.101 -15.221  0.00  0.00    -0.343 N 
ATOM      9  N   UNL     1      28.565 -24.357 -14.751  0.00  0.00    -0.285 NA
ATOM     10  C   UNL     1      29.058 -23.166 -15.039  0.00  0.00    +0.117 C 
ATOM     11  H   UNL     1      27.207 -22.245 -15.138  0.00  0.00    +0.144 HD
ATOM     12  H   UNL     1      28.525 -21.205 -15.435  0.00  0.00    +0.144 HD
ATOM     13  H   UNL     1      27.591 -24.480 -14.671  0.00  0.00    +0.188 HD
ENDBRANCH   5  10
ENDBRANCH   1   2
BRANCH   1  15
ATOM     14  O   UNL     1      36.777 -20.616 -16.428  0.00  0.00    -0.226 OA
ATOM     15  N   UNL     1      35.144 -22.200 -16.877  0.00  0.00    -0.258 N 
ATOM     16  C   UNL     1      36.132 -21.299 -17.217  0.00  0.00    +0.403 C 
ATOM     17  H   UNL     1      34.691 -22.691 -17.600  0.00  0.00    +0.154 HD
BRANCH  16  18
ATOM     18  O   UNL     1      36.288 -21.277 -18.573  0.00  0.00    -0.430 OA
BRANCH  18  19
ATOM     19  C   UNL     1      35.079 -21.208 -19.339  0.00  0.00    +0.237 C 
BRANCH  19  20
ATOM     20  C   UNL     1      35.165 -20.050 -20.288  0.00  0.00    +0.021 C 
ATOM     21  C   UNL     1      34.073 -19.732 -21.088  0.00  0.00    -0.001 C 
ATOM     22  C   UNL     1      36.337 -19.304 -20.360  0.00  0.00    -0.001 C 
ATOM     23  C   UNL     1      34.153 -18.655 -21.970  0.00  0.00    -0.000 C 
ATOM     24  C   UNL     1      36.417 -18.227 -21.243  0.00  0.00    -0.000 C 
ATOM     25  C   UNL     1      35.325 -17.902 -22.048  0.00  0.00    -0.000 C 
ENDBRANCH  19  20
ENDBRANCH  18  19
ENDBRANCH  16  18
ENDBRANCH   1  15
BRANCH   1  26
ATOM     26  P   UNL     1      35.753 -23.825 -14.933  0.00  0.00    +0.359 P 
ATOM     27  O   UNL     1      35.291 -25.178 -15.390  0.00  0.00    -0.256 OA
BRANCH  26  28
ATOM     28  O   UNL     1      35.829 -23.639 -13.329  0.00  0.00    -0.322 OA
ATOM     29  H   UNL     1      36.209 -22.771 -13.122  0.00  0.00    +0.220 HD
ENDBRANCH  26  28
BRANCH  26  30
ATOM     30  O   UNL     1      37.239 -23.420 -15.425  0.00  0.00    -0.322 OA
ATOM     31  H   UNL     1      37.264 -23.398 -16.394  0.00  0.00    +0.220 HD
ENDBRANCH  26  30
ENDBRANCH   1  26
TORSDOF 9
ENDMDL
MODEL 5
REMARK VINA RESULT:     -10.4      3.239      4.414
REMARK  Name = 447110
REMARK  9 active torsions:
REMARK  status: ('A' for Active; 'I' for Inactive)
REMARK    1  A    between atoms: C_1  and  C_2
REMARK    2  A    between atoms: C_1  and  N_15
REMARK    3  A    between atoms: C_1  and  P_26
REMARK    4  A    between atoms: C_5  and  C_10
REMARK    5  A    between atoms: C_16  and  O_18
REMARK    6  A    between atoms: O_18  and  C_19
REMARK    7  A    between atoms: C_19  and  C_20
REMARK    8  A    between atoms: P_26  and  O_28
REMARK    9  A    between atoms: P_26  and  O_30
REMARK                            x       y       z     vdW  Elec       q    Type
REMARK                         _______ _______ _______ _____ _____    ______ ____
ROOT
ATOM      1  C   UNL     1      33.008 -23.167 -16.365  0.00  0.00    +0.202 C 
ENDROOT
BRANCH   1   2
ATOM      2  C   UNL     1      34.147 -23.285 -15.376  0.00  0.00    +0.007 C 
ATOM      3  C   UNL     1      35.216 -22.410 -15.468  0.00  0.00    -0.002 C 
ATOM      4  C   UNL     1      34.094 -24.264 -14.399  0.00  0.00    -0.002 C 
ATOM      5  C   UNL     1      36.229 -23.500 -13.565  0.00  0.00    +0.031 C 
ATOM      6  C   UNL     1      36.266 -22.519 -14.555  0.00  0.00    +0.002 C 
ATOM      7  C   UNL     1      35.144 -24.372 -13.486  0.00  0.00    +0.002 C 
BRANCH   5  10
ATOM      8  N   UNL     1      37.123 -23.418 -11.249  0.00  0.00    -0.343 N 
ATOM      9  N   UNL     1      38.540 -23.905 -13.042  0.00  0.00    -0.285 NA
ATOM     10  C   UNL     1      37.324 -23.614 -12.614  0.00  0.00    +0.117 C 
ATOM     11  H   UNL     1      37.878 -23.501 -10.623  0.00  0.00    +0.144 HD
ATOM     12  H   UNL     1      36.225 -23.199 -10.910  0.00  0.00    +0.144 HD
ATOM     13  H   UNL     1      39.283 -23.982 -12.401  0.00  0.00    +0.188 HD
ENDBRANCH   5  10
ENDBRANCH   1   2
BRANCH   1  15
ATOM     14  O   UNL     1      33.401 -23.542 -19.220  0.00  0.00    -0.226 OA
ATOM     15  N   UNL     1      33.260 -22.145 -17.375  0.00  0.00    -0.258 N 
ATOM     16  C   UNL     1      33.432 -22.425 -18.715  0.00  0.00    +0.403 C 
ATOM     17  H   UNL     1      33.309 -21.205 -17.084  0.00  0.00    +0.154 HD
BRANCH  16  18
ATOM     18  O   UNL     1      33.649 -21.266 -19.404  0.00  0.00    -0.430 OA
BRANCH  18  19
ATOM     19  C   UNL     1      35.012 -20.830 -19.478  0.00  0.00    +0.237 C 
BRANCH  19  20
ATOM     20  C   UNL     1      35.130 -19.769 -20.532  0.00  0.00    +0.021 C 
ATOM     21  C   UNL     1      36.308 -19.040 -20.645  0.00  0.00    -0.001 C 
ATOM     22  C   UNL     1      34.060 -19.526 -21.387  0.00  0.00    -0.001 C 
ATOM     23  C   UNL     1      36.419 -18.055 -21.626  0.00  0.00    -0.000 C 
ATOM     24  C   UNL     1      34.171 -18.540 -22.368  0.00  0.00    -0.000 C 
ATOM     25  C   UNL     1      35.351 -17.804 -22.487  0.00  0.00    -0.000 C 
ENDBRANCH  19  20
ENDBRANCH  18  19
ENDBRANCH  16  18
ENDBRANCH   1  15
BRANCH   1  26
ATOM     26  P   UNL     1      31.392 -22.792 -15.676  0.00  0.00    +0.359 P 
ATOM     27  O   UNL     1      31.430 -21.985 -14.412  0.00  0.00    -0.256 OA
BRANCH  26  28
ATOM     28  O   UNL     1      30.660 -24.228 -15.546  0.00  0.00    -0.322 OA
ATOM     29  H   UNL     1      29.699 -24.099 -15.518  0.00  0.00    +0.220 HD
ENDBRANCH  26  28
BRANCH  26  30
ATOM     30  O   UNL     1      30.610 -22.087 -16.903  0.00  0.00    -0.322 OA
ATOM     31  H   UNL     1      29.744 -21.774 -16.597  0.00  0.00    +0.220 HD
ENDBRANCH  26  30
ENDBRANCH   1  26
TORSDOF 9
ENDMDL
MODEL 6
REMARK VINA RESULT:     -10.1      2.590      3.500
REMARK  Name = 447110
REMARK  9 active torsions:
REMARK  status: ('A' for Active; 'I' for Inactive)
REMARK    1  A    between atoms: C_1  and  C_2
REMARK    2  A    between atoms: C_1  and  N_15
REMARK    3  A    between atoms: C_1  and  P_26
REMARK    4  A    between atoms: C_5  and  C_10
REMARK    5  A    between atoms: C_16  and  O_18
REMARK    6  A    between atoms: O_18  and  C_19
REMARK    7  A    between atoms: C_19  and  C_20
REMARK    8  A    between atoms: P_26  and  O_28
REMARK    9  A    between atoms: P_26  and  O_30
REMARK                            x       y       z     vdW  Elec       q    Type
REMARK                         _______ _______ _______ _____ _____    ______ ____
ROOT
ATOM      1  C   UNL     1      32.981 -22.778 -14.576  0.00  0.00    +0.202 C 
ENDROOT
BRANCH   1   2
ATOM      2  C   UNL     1      31.532 -22.676 -15.002  0.00  0.00    +0.007 C 
ATOM      3  C   UNL     1      31.219 -22.706 -16.350  0.00  0.00    -0.002 C 
ATOM      4  C   UNL     1      30.551 -22.556 -14.033  0.00  0.00    -0.002 C 
ATOM      5  C   UNL     1      28.882 -22.492 -15.778  0.00  0.00    +0.031 C 
ATOM      6  C   UNL     1      29.883 -22.613 -16.741  0.00  0.00    +0.002 C 
ATOM      7  C   UNL     1      29.215 -22.463 -14.425  0.00  0.00    +0.002 C 
BRANCH   5  10
ATOM      8  N   UNL     1      26.523 -21.849 -15.344  0.00  0.00    -0.343 N 
ATOM      9  N   UNL     1      27.121 -22.830 -17.378  0.00  0.00    -0.285 NA
ATOM     10  C   UNL     1      27.489 -22.394 -16.187  0.00  0.00    +0.117 C 
ATOM     11  H   UNL     1      25.586 -21.791 -15.642  0.00  0.00    +0.144 HD
ATOM     12  H   UNL     1      26.777 -21.520 -14.451  0.00  0.00    +0.144 HD
ATOM     13  H   UNL     1      26.178 -22.764 -17.657  0.00  0.00    +0.188 HD
ENDBRANCH   5  10
ENDBRANCH   1   2
BRANCH   1  15
ATOM     14  O   UNL     1      35.591 -21.545 -14.919  0.00  0.00    -0.226 OA
ATOM     15  N   UNL     1      33.882 -22.896 -15.717  0.00  0.00    -0.258 N 
ATOM     16  C   UNL     1      35.110 -22.269 -15.785  0.00  0.00    +0.403 C 
ATOM     17  H   UNL     1      33.599 -23.452 -16.479  0.00  0.00    +0.154 HD
BRANCH  16  18
ATOM     18  O   UNL     1      35.716 -22.570 -16.970  0.00  0.00    -0.430 OA
BRANCH  18  19
ATOM     19  C   UNL     1      36.257 -21.460 -17.695  0.00  0.00    +0.237 C 
BRANCH  19  20
ATOM     20  C   UNL     1      35.251 -20.998 -18.709  0.00  0.00    +0.021 C 
ATOM     21  C   UNL     1      35.651 -20.164 -19.746  0.00  0.00    -0.001 C 
ATOM     22  C   UNL     1      33.927 -21.410 -18.600  0.00  0.00    -0.001 C 
ATOM     23  C   UNL     1      34.716 -19.736 -20.688  0.00  0.00    -0.000 C 
ATOM     24  C   UNL     1      32.991 -20.982 -19.543  0.00  0.00    -0.000 C 
ATOM     25  C   UNL     1      33.386 -20.144 -20.587  0.00  0.00    -0.000 C 
ENDBRANCH  19  20
ENDBRANCH  18  19
ENDBRANCH  16  18
ENDBRANCH   1  15
BRANCH   1  26
ATOM     26  P   UNL     1      33.394 -24.137 -13.478  0.00  0.00    +0.359 P 
ATOM     27  O   UNL     1      33.791 -23.717 -12.094  0.00  0.00    -0.256 OA
BRANCH  26  28
ATOM     28  O   UNL     1      34.514 -24.985 -14.279  0.00  0.00    -0.322 OA
ATOM     29  H   UNL     1      34.194 -25.890 -14.422  0.00  0.00    +0.220 HD
ENDBRANCH  26  28
BRANCH  26  30
ATOM     30  O   UNL     1      32.090 -25.090 -13.544  0.00  0.00    -0.322 OA
ATOM     31  H   UNL     1      31.525 -24.920 -12.774  0.00  0.00    +0.220 HD
ENDBRANCH  26  30
ENDBRANCH   1  26
TORSDOF 9
ENDMDL
MODEL 7
REMARK VINA RESULT:      -9.7      5.248      7.797
REMARK  Name = 447110
REMARK  9 active torsions:
REMARK  status: ('A' for Active; 'I' for Inactive)
REMARK    1  A    between atoms: C_1  and  C_2
REMARK    2  A    between atoms: C_1  and  N_15
REMARK    3  A    between atoms: C_1  and  P_26
REMARK    4  A    between atoms: C_5  and  C_10
REMARK    5  A    between atoms: C_16  and  O_18
REMARK    6  A    between atoms: O_18  and  C_19
REMARK    7  A    between atoms: C_19  and  C_20
REMARK    8  A    between atoms: P_26  and  O_28
REMARK    9  A    between atoms: P_26  and  O_30
REMARK                            x       y       z     vdW  Elec       q    Type
REMARK                         _______ _______ _______ _____ _____    ______ ____
ROOT
ATOM      1  C   UNL     1      34.586 -18.520 -22.517  0.00  0.00    +0.202 C 
ENDROOT
BRANCH   1   2
ATOM      2  C   UNL     1      34.215 -19.434 -21.369  0.00  0.00    +0.007 C 
ATOM      3  C   UNL     1      32.890 -19.525 -20.977  0.00  0.00    -0.002 C 
ATOM      4  C   UNL     1      35.209 -20.161 -20.737  0.00  0.00    -0.002 C 
ATOM      5  C   UNL     1      33.539 -21.107 -19.271  0.00  0.00    +0.031 C 
ATOM      6  C   UNL     1      32.550 -20.368 -19.919  0.00  0.00    +0.002 C 
ATOM      7  C   UNL     1      34.868 -21.004 -19.679  0.00  0.00    +0.002 C 
BRANCH   5  10
ATOM      8  N   UNL     1      31.852 -22.199 -17.810  0.00  0.00    -0.343 N 
ATOM      9  N   UNL     1      34.131 -22.596 -17.479  0.00  0.00    -0.285 NA
ATOM     10  C   UNL     1      33.183 -21.986 -18.167  0.00  0.00    +0.117 C 
ATOM     11  H   UNL     1      31.634 -22.798 -17.060  0.00  0.00    +0.144 HD
ATOM     12  H   UNL     1      31.131 -21.752 -18.309  0.00  0.00    +0.144 HD
ATOM     13  H   UNL     1      33.892 -23.190 -16.731  0.00  0.00    +0.188 HD
ENDBRANCH   5  10
ENDBRANCH   1   2
BRANCH   1  15
ATOM     14  O   UNL     1      35.331 -16.949 -20.188  0.00  0.00    -0.226 OA
ATOM     15  N   UNL     1      34.261 -17.126 -22.238  0.00  0.00    -0.258 N 
ATOM     16  C   UNL     1      34.665 -16.463 -21.097  0.00  0.00    +0.403 C 
ATOM     17  H   UNL     1      33.724 -16.632 -22.899  0.00  0.00    +0.154 HD
BRANCH  16  18
ATOM     18  O   UNL     1      34.207 -15.178 -21.124  0.00  0.00    -0.430 OA
BRANCH  18  19
ATOM     19  C   UNL     1      34.105 -14.579 -22.421  0.00  0.00    +0.237 C 
BRANCH  19  20
ATOM     20  C   UNL     1      33.283 -13.327 -22.321  0.00  0.00    +0.021 C 
ATOM     21  C   UNL     1      32.441 -13.142 -21.230  0.00  0.00    -0.001 C 
ATOM     22  C   UNL     1      33.372 -12.364 -23.320  0.00  0.00    -0.001 C 
ATOM     23  C   UNL     1      31.679 -11.979 -21.136  0.00  0.00    -0.000 C 
ATOM     24  C   UNL     1      32.608 -11.200 -23.226  0.00  0.00    -0.000 C 
ATOM     25  C   UNL     1      31.761 -11.007 -22.133  0.00  0.00    -0.000 C 
ENDBRANCH  19  20
ENDBRANCH  18  19
ENDBRANCH  16  18
ENDBRANCH   1  15
BRANCH   1  26
ATOM     26  P   UNL     1      33.835 -18.893 -24.105  0.00  0.00    +0.359 P 
ATOM     27  O   UNL     1      34.400 -20.104 -24.787  0.00  0.00    -0.256 OA
BRANCH  26  28
ATOM     28  O   UNL     1      33.957 -17.519 -24.948  0.00  0.00    -0.322 OA
ATOM     29  H   UNL     1      33.223 -17.462 -25.580  0.00  0.00    +0.220 HD
ENDBRANCH  26  28
BRANCH  26  30
ATOM     30  O   UNL     1      32.256 -18.984 -23.768  0.00  0.00    -0.322 OA
ATOM     31  H   UNL     1      31.951 -18.132 -23.418  0.00  0.00    +0.220 HD
ENDBRANCH  26  30
ENDBRANCH   1  26
TORSDOF 9
ENDMDL
MODEL 8
REMARK VINA RESULT:      -9.6      2.858      8.010
REMARK  Name = 447110
REMARK  9 active torsions:
REMARK  status: ('A' for Active; 'I' for Inactive)
REMARK    1  A    between atoms: C_1  and  C_2
REMARK    2  A    between atoms: C_1  and  N_15
REMARK    3  A    between atoms: C_1  and  P_26
REMARK    4  A    between atoms: C_5  and  C_10
REMARK    5  A    between atoms: C_16  and  O_18
REMARK    6  A    between atoms: O_18  and  C_19
REMARK    7  A    between atoms: C_19  and  C_20
REMARK    8  A    between atoms: P_26  and  O_28
REMARK    9  A    between atoms: P_26  and  O_30
REMARK                            x       y       z     vdW  Elec       q    Type
REMARK                         _______ _______ _______ _____ _____    ______ ____
ROOT
ATOM      1  C   UNL     1      35.242 -21.692 -18.256  0.00  0.00    +0.202 C 
ENDROOT
BRANCH   1   2
ATOM      2  C   UNL     1      35.090 -20.671 -19.363  0.00  0.00    +0.007 C 
ATOM      3  C   UNL     1      36.214 -20.022 -19.844  0.00  0.00    -0.002 C 
ATOM      4  C   UNL     1      33.829 -20.411 -19.872  0.00  0.00    -0.002 C 
ATOM      5  C   UNL     1      34.810 -18.807 -21.389  0.00  0.00    +0.031 C 
ATOM      6  C   UNL     1      36.072 -19.082 -20.865  0.00  0.00    +0.002 C 
ATOM      7  C   UNL     1      33.688 -19.471 -20.893  0.00  0.00    +0.002 C 
BRANCH   5  10
ATOM      8  N   UNL     1      33.862 -18.077 -23.566  0.00  0.00    -0.343 N 
ATOM      9  N   UNL     1      35.299 -16.671 -22.375  0.00  0.00    -0.285 NA
ATOM     10  C   UNL     1      34.663 -17.826 -22.453  0.00  0.00    +0.117 C 
ATOM     11  H   UNL     1      33.776 -17.398 -24.274  0.00  0.00    +0.144 HD
ATOM     12  H   UNL     1      33.381 -18.932 -23.643  0.00  0.00    +0.144 HD
ATOM     13  H   UNL     1      35.202 -16.005 -23.094  0.00  0.00    +0.188 HD
ENDBRANCH   5  10
ENDBRANCH   1   2
BRANCH   1  15
ATOM     14  O   UNL     1      33.352 -23.742 -19.076  0.00  0.00    -0.226 OA
ATOM     15  N   UNL     1      33.965 -22.029 -17.638  0.00  0.00    -0.258 N 
ATOM     16  C   UNL     1      33.133 -23.027 -18.104  0.00  0.00    +0.403 C 
ATOM     17  H   UNL     1      33.681 -21.516 -16.846  0.00  0.00    +0.154 HD
BRANCH  16  18
ATOM     18  O   UNL     1      32.018 -23.101 -17.319  0.00  0.00    -0.430 OA
BRANCH  18  19
ATOM     19  C   UNL     1      32.205 -22.777 -15.937  0.00  0.00    +0.237 C 
BRANCH  19  20
ATOM     20  C   UNL     1      31.148 -23.466 -15.124  0.00  0.00    +0.021 C 
ATOM     21  C   UNL     1      29.853 -23.564 -15.620  0.00  0.00    -0.001 C 
ATOM     22  C   UNL     1      31.474 -24.001 -13.882  0.00  0.00    -0.001 C 
ATOM     23  C   UNL     1      28.872 -24.205 -14.866  0.00  0.00    -0.000 C 
ATOM     24  C   UNL     1      30.492 -24.642 -13.127  0.00  0.00    -0.000 C 
ATOM     25  C   UNL     1      29.189 -24.744 -13.619  0.00  0.00    -0.000 C 
ENDBRANCH  19  20
ENDBRANCH  18  19
ENDBRANCH  16  18
ENDBRANCH   1  15
BRANCH   1  26
ATOM     26  P   UNL     1      36.340 -21.245 -16.907  0.00  0.00    +0.359 P 
ATOM     27  O   UNL     1      36.996 -19.904 -17.061  0.00  0.00    -0.256 OA
BRANCH  26  28
ATOM     28  O   UNL     1      37.361 -22.492 -16.779  0.00  0.00    -0.322 OA
ATOM     29  H   UNL     1      36.989 -23.154 -16.175  0.00  0.00    +0.220 HD
ENDBRANCH  26  28
BRANCH  26  30
ATOM     30  O   UNL     1      35.409 -21.392 -15.593  0.00  0.00    -0.322 OA
ATOM     31  H   UNL     1      34.498 -21.589 -15.863  0.00  0.00    +0.220 HD
ENDBRANCH  26  30
ENDBRANCH   1  26
TORSDOF 9
ENDMDL
MODEL 9
REMARK VINA RESULT:      -9.6      3.542      4.381
REMARK  Name = 447110
REMARK  9 active torsions:
REMARK  status: ('A' for Active; 'I' for Inactive)
REMARK    1  A    between atoms: C_1  and  C_2
REMARK    2  A    between atoms: C_1  and  N_15
REMARK    3  A    between atoms: C_1  and  P_26
REMARK    4  A    between atoms: C_5  and  C_10
REMARK    5  A    between atoms: C_16  and  O_18
REMARK    6  A    between atoms: O_18  and  C_19
REMARK    7  A    between atoms: C_19  and  C_20
REMARK    8  A    between atoms: P_26  and  O_28
REMARK    9  A    between atoms: P_26  and  O_30
REMARK                            x       y       z     vdW  Elec       q    Type
REMARK                         _______ _______ _______ _____ _____    ______ ____
ROOT
ATOM      1  C   UNL     1      31.753 -23.164 -16.183  0.00  0.00    +0.202 C 
ENDROOT
BRANCH   1   2
ATOM      2  C   UNL     1      32.701 -23.304 -15.012  0.00  0.00    +0.007 C 
ATOM      3  C   UNL     1      32.323 -24.072 -13.923  0.00  0.00    -0.002 C 
ATOM      4  C   UNL     1      33.927 -22.662 -15.054  0.00  0.00    -0.002 C 
ATOM      5  C   UNL     1      34.436 -23.560 -12.870  0.00  0.00    +0.031 C 
ATOM      6  C   UNL     1      33.197 -24.200 -12.844  0.00  0.00    +0.002 C 
ATOM      7  C   UNL     1      34.801 -22.791 -13.974  0.00  0.00    +0.002 C 
BRANCH   5  10
ATOM      8  N   UNL     1      36.567 -23.021 -11.714  0.00  0.00    -0.343 N 
ATOM      9  N   UNL     1      35.022 -24.467 -10.724  0.00  0.00    -0.285 NA
ATOM     10  C   UNL     1      35.346 -23.693 -11.744  0.00  0.00    +0.117 C 
ATOM     11  H   UNL     1      37.168 -23.125 -10.941  0.00  0.00    +0.144 HD
ATOM     12  H   UNL     1      36.828 -22.440 -12.466  0.00  0.00    +0.144 HD
ATOM     13  H   UNL     1      35.637 -24.560  -9.960  0.00  0.00    +0.188 HD
ENDBRANCH   5  10
ENDBRANCH   1   2
BRANCH   1  15
ATOM     14  O   UNL     1      33.226 -23.123 -18.689  0.00  0.00    -0.226 OA
ATOM     15  N   UNL     1      32.072 -22.009 -17.015  0.00  0.00    -0.258 N 
ATOM     16  C   UNL     1      32.780 -22.092 -18.196  0.00  0.00    +0.403 C 
ATOM     17  H   UNL     1      31.765 -21.122 -16.716  0.00  0.00    +0.154 HD
BRANCH  16  18
ATOM     18  O   UNL     1      32.916 -20.848 -18.740  0.00  0.00    -0.430 OA
BRANCH  18  19
ATOM     19  C   UNL     1      32.887 -20.785 -20.171  0.00  0.00    +0.237 C 
BRANCH  19  20
ATOM     20  C   UNL     1      34.020 -19.924 -20.647  0.00  0.00    +0.021 C 
ATOM     21  C   UNL     1      35.252 -19.990 -20.006  0.00  0.00    -0.001 C 
ATOM     22  C   UNL     1      33.827 -19.068 -21.726  0.00  0.00    -0.001 C 
ATOM     23  C   UNL     1      36.304 -19.191 -20.449  0.00  0.00    -0.000 C 
ATOM     24  C   UNL     1      34.880 -18.268 -22.170  0.00  0.00    -0.000 C 
ATOM     25  C   UNL     1      36.120 -18.329 -21.531  0.00  0.00    -0.000 C 
ENDBRANCH  19  20
ENDBRANCH  18  19
ENDBRANCH  16  18
ENDBRANCH   1  15
BRANCH   1  26
ATOM     26  P   UNL     1      30.009 -23.018 -15.783  0.00  0.00    +0.359 P 
ATOM     27  O   UNL     1      29.296 -24.330 -15.633  0.00  0.00    -0.256 OA
BRANCH  26  28
ATOM     28  O   UNL     1      29.407 -22.045 -16.925  0.00  0.00    -0.322 OA
ATOM     29  H   UNL     1      28.459 -22.219 -17.032  0.00  0.00    +0.220 HD
ENDBRANCH  26  28
BRANCH  26  30
ATOM     30  O   UNL     1      29.998 -22.090 -14.460  0.00  0.00    -0.322 OA
ATOM     31  H   UNL     1      29.314 -22.406 -13.849  0.00  0.00    +0.220 HD
ENDBRANCH  26  30
ENDBRANCH   1  26
TORSDOF 9
ENDMDL
