MODEL 1
REMARK VINA RESULT:     -12.6      0.000      0.000
REMARK  Name = 24812758
REMARK  9 active torsions:
REMARK  status: ('A' for Active; 'I' for Inactive)
REMARK    1  A    between atoms: C_1  and  C_11
REMARK    2  A    between atoms: C_4  and  C_23
REMARK    3  A    between atoms: C_9  and  O_14
REMARK    4  A    between atoms: C_10  and  O_16
REMARK    5  A    between atoms: C_12  and  O_18
REMARK    6  A    between atoms: C_13  and  C_20
REMARK    7  A    between atoms: C_20  and  O_21
REMARK    8  A    between atoms: C_23  and  C_25
REMARK    9  A    between atoms: C_27  and  C_30
REMARK                            x       y       z     vdW  Elec       q    Type
REMARK                         _______ _______ _______ _____ _____    ______ ____
ROOT
ATOM      1  C   UNL     1      34.084 -23.048 -14.608  0.00  0.00    +0.007 C 
ATOM      2  C   UNL     1      34.043 -23.122 -16.000  0.00  0.00    -0.006 C 
ATOM      3  C   UNL     1      32.936 -22.703 -13.894  0.00  0.00    -0.002 C 
ATOM      4  C   UNL     1      32.856 -22.851 -16.679  0.00  0.00    -0.021 C 
ATOM      5  C   UNL     1      31.708 -22.506 -15.965  0.00  0.00    -0.025 C 
ATOM      6  C   UNL     1      31.748 -22.432 -14.573  0.00  0.00    -0.005 C 
ATOM      7  C   UNL     1      30.424 -22.212 -16.670  0.00  0.00    +0.031 C 
ENDROOT
BRANCH   1  11
ATOM      8  O   UNL     1      36.404 -23.520 -14.849  0.00  0.00    -0.347 OA
ATOM      9  C   UNL     1      35.254 -24.584 -12.973  0.00  0.00    +0.171 C 
ATOM     10  C   UNL     1      36.610 -24.956 -12.365  0.00  0.00    +0.169 C 
ATOM     11  C   UNL     1      35.375 -23.343 -13.870  0.00  0.00    +0.167 C 
ATOM     12  C   UNL     1      37.705 -24.994 -13.429  0.00  0.00    +0.169 C 
ATOM     13  C   UNL     1      37.694 -23.713 -14.267  0.00  0.00    +0.174 C 
BRANCH   9  14
ATOM     14  O   UNL     1      34.335 -24.299 -11.919  0.00  0.00    -0.379 OA
ATOM     15  H   UNL     1      34.682 -23.574 -11.375  0.00  0.00    +0.211 HD
ENDBRANCH   9  14
BRANCH  10  16
ATOM     16  O   UNL     1      36.524 -26.253 -11.773  0.00  0.00    -0.379 OA
ATOM     17  H   UNL     1      35.593 -26.494 -11.655  0.00  0.00    +0.211 HD
ENDBRANCH  10  16
BRANCH  12  18
ATOM     18  O   UNL     1      38.974 -25.129 -12.795  0.00  0.00    -0.379 OA
ATOM     19  H   UNL     1      39.140 -24.353 -12.236  0.00  0.00    +0.211 HD
ENDBRANCH  12  18
BRANCH  13  20
ATOM     20  C   UNL     1      38.706 -23.774 -15.406  0.00  0.00    +0.169 C 
BRANCH  20  21
ATOM     21  O   UNL     1      39.203 -25.097 -15.498  0.00  0.00    -0.379 OA
ATOM     22  H   UNL     1      39.141 -25.527 -14.631  0.00  0.00    +0.211 HD
ENDBRANCH  20  21
ENDBRANCH  13  20
ENDBRANCH   1  11
BRANCH   4  23
ATOM     23  C   UNL     1      32.837 -22.937 -18.170  0.00  0.00    +0.059 C 
BRANCH  23  25
ATOM     24  S   UNL     1      32.941 -20.803 -19.963  0.00  0.00    -0.091 S 
ATOM     25  C   UNL     1      33.679 -21.880 -18.855  0.00  0.00    +0.012 C 
ATOM     26  C   UNL     1      35.027 -21.635 -18.714  0.00  0.00    +0.003 C 
ATOM     27  C   UNL     1      34.427 -20.005 -20.258  0.00  0.00    +0.029 C 
ATOM     28  C   UNL     1      35.460 -20.548 -19.528  0.00  0.00    +0.007 C 
BRANCH  27  30
ATOM     29  F   UNL     1      34.531 -15.756 -23.863  0.00  0.00    -0.204 F 
ATOM     30  C   UNL     1      34.454 -18.904 -21.193  0.00  0.00    +0.006 C 
ATOM     31  C   UNL     1      34.054 -19.100 -22.515  0.00  0.00    +0.003 C 
ATOM     32  C   UNL     1      34.881 -17.643 -20.773  0.00  0.00    +0.003 C 
ATOM     33  C   UNL     1      34.080 -18.037 -23.416  0.00  0.00    +0.030 C 
ATOM     34  C   UNL     1      34.907 -16.581 -21.675  0.00  0.00    +0.030 C 
ATOM     35  C   UNL     1      34.506 -16.777 -22.997  0.00  0.00    +0.140 C 
ENDBRANCH  27  30
ENDBRANCH  23  25
ENDBRANCH   4  23
TORSDOF 9
ENDMDL
MODEL 2
REMARK VINA RESULT:     -12.0      2.785      5.026
REMARK  Name = 24812758
REMARK  9 active torsions:
REMARK  status: ('A' for Active; 'I' for Inactive)
REMARK    1  A    between atoms: C_1  and  C_11
REMARK    2  A    between atoms: C_4  and  C_23
REMARK    3  A    between atoms: C_9  and  O_14
REMARK    4  A    between atoms: C_10  and  O_16
REMARK    5  A    between atoms: C_12  and  O_18
REMARK    6  A    between atoms: C_13  and  C_20
REMARK    7  A    between atoms: C_20  and  O_21
REMARK    8  A    between atoms: C_23  and  C_25
REMARK    9  A    between atoms: C_27  and  C_30
REMARK                            x       y       z     vdW  Elec       q    Type
REMARK                         _______ _______ _______ _____ _____    ______ ____
ROOT
ATOM      1  C   UNL     1      33.398 -22.840 -15.694  0.00  0.00    +0.007 C 
ATOM      2  C   UNL     1      33.925 -22.673 -16.974  0.00  0.00    -0.006 C 
ATOM      3  C   UNL     1      34.098 -22.366 -14.584  0.00  0.00    -0.002 C 
ATOM      4  C   UNL     1      35.152 -22.032 -17.146  0.00  0.00    -0.021 C 
ATOM      5  C   UNL     1      35.852 -21.559 -16.036  0.00  0.00    -0.025 C 
ATOM      6  C   UNL     1      35.324 -21.726 -14.755  0.00  0.00    -0.005 C 
ATOM      7  C   UNL     1      37.167 -20.869 -16.193  0.00  0.00    +0.031 C 
ENDROOT
BRANCH   1  11
ATOM      8  O   UNL     1      31.043 -22.654 -15.986  0.00  0.00    -0.347 OA
ATOM      9  C   UNL     1      31.814 -23.918 -14.042  0.00  0.00    +0.171 C 
ATOM     10  C   UNL     1      30.399 -24.472 -13.852  0.00  0.00    +0.169 C 
ATOM     11  C   UNL     1      32.064 -23.536 -15.508  0.00  0.00    +0.167 C 
ATOM     12  C   UNL     1      29.356 -23.566 -14.502  0.00  0.00    +0.169 C 
ATOM     13  C   UNL     1      29.742 -23.242 -15.947  0.00  0.00    +0.174 C 
BRANCH   9  14
ATOM     14  O   UNL     1      32.759 -24.919 -13.663  0.00  0.00    -0.379 OA
ATOM     15  H   UNL     1      33.485 -24.938 -14.305  0.00  0.00    +0.211 HD
ENDBRANCH   9  14
BRANCH  10  16
ATOM     16  O   UNL     1      30.104 -24.554 -12.457  0.00  0.00    -0.379 OA
ATOM     17  H   UNL     1      30.812 -24.125 -11.950  0.00  0.00    +0.211 HD
ENDBRANCH  10  16
BRANCH  12  18
ATOM     18  O   UNL     1      28.090 -24.221 -14.490  0.00  0.00    -0.379 OA
ATOM     19  H   UNL     1      28.221 -25.178 -14.580  0.00  0.00    +0.211 HD
ENDBRANCH  12  18
BRANCH  13  20
ATOM     20  C   UNL     1      28.773 -22.250 -16.583  0.00  0.00    +0.169 C 
BRANCH  20  21
ATOM     21  O   UNL     1      27.775 -22.977 -17.278  0.00  0.00    -0.379 OA
ATOM     22  H   UNL     1      27.755 -23.891 -16.953  0.00  0.00    +0.211 HD
ENDBRANCH  20  21
ENDBRANCH  13  20
ENDBRANCH   1  11
BRANCH   4  23
ATOM     23  C   UNL     1      35.697 -21.864 -18.526  0.00  0.00    +0.059 C 
BRANCH  23  25
ATOM     24  S   UNL     1      35.660 -19.865 -20.471  0.00  0.00    -0.091 S 
ATOM     25  C   UNL     1      34.870 -20.946 -19.402  0.00  0.00    +0.012 C 
ATOM     26  C   UNL     1      33.499 -20.840 -19.481  0.00  0.00    +0.003 C 
ATOM     27  C   UNL     1      34.167 -19.252 -21.040  0.00  0.00    +0.029 C 
ATOM     28  C   UNL     1      33.092 -19.858 -20.430  0.00  0.00    +0.007 C 
BRANCH  27  30
ATOM     29  F   UNL     1      34.200 -15.256 -24.925  0.00  0.00    -0.204 F 
ATOM     30  C   UNL     1      34.176 -18.216 -22.047  0.00  0.00    +0.006 C 
ATOM     31  C   UNL     1      33.731 -18.496 -23.340  0.00  0.00    +0.003 C 
ATOM     32  C   UNL     1      34.628 -16.936 -21.727  0.00  0.00    +0.003 C 
ATOM     33  C   UNL     1      33.739 -17.496 -24.311  0.00  0.00    +0.030 C 
ATOM     34  C   UNL     1      34.636 -15.936 -22.699  0.00  0.00    +0.030 C 
ATOM     35  C   UNL     1      34.192 -16.216 -23.992  0.00  0.00    +0.140 C 
ENDBRANCH  27  30
ENDBRANCH  23  25
ENDBRANCH   4  23
TORSDOF 9
ENDMDL
MODEL 3
REMARK VINA RESULT:     -11.6     11.779     16.665
REMARK  Name = 24812758
REMARK  9 active torsions:
REMARK  status: ('A' for Active; 'I' for Inactive)
REMARK    1  A    between atoms: C_1  and  C_11
REMARK    2  A    between atoms: C_4  and  C_23
REMARK    3  A    between atoms: C_9  and  O_14
REMARK    4  A    between atoms: C_10  and  O_16
REMARK    5  A    between atoms: C_12  and  O_18
REMARK    6  A    between atoms: C_13  and  C_20
REMARK    7  A    between atoms: C_20  and  O_21
REMARK    8  A    between atoms: C_23  and  C_25
REMARK    9  A    between atoms: C_27  and  C_30
REMARK                            x       y       z     vdW  Elec       q    Type
REMARK                         _______ _______ _______ _____ _____    ______ ____
ROOT
ATOM      1  C   UNL     1      32.160  -6.628 -21.714  0.00  0.00    +0.007 C 
ATOM      2  C   UNL     1      31.612  -7.836 -22.145  0.00  0.00    -0.006 C 
ATOM      3  C   UNL     1      32.391  -6.412 -20.355  0.00  0.00    -0.002 C 
ATOM      4  C   UNL     1      31.294  -8.828 -21.219  0.00  0.00    -0.021 C 
ATOM      5  C   UNL     1      31.525  -8.613 -19.859  0.00  0.00    -0.025 C 
ATOM      6  C   UNL     1      32.073  -7.405 -19.428  0.00  0.00    -0.005 C 
ATOM      7  C   UNL     1      31.194  -9.660 -18.848  0.00  0.00    +0.031 C 
ENDROOT
BRANCH   1  11
ATOM      8  O   UNL     1      31.460  -4.571 -22.686  0.00  0.00    -0.347 OA
ATOM      9  C   UNL     1      32.673  -6.118 -24.138  0.00  0.00    +0.171 C 
ATOM     10  C   UNL     1      32.861  -4.995 -25.162  0.00  0.00    +0.169 C 
ATOM     11  C   UNL     1      32.505  -5.549 -22.721  0.00  0.00    +0.167 C 
ATOM     12  C   UNL     1      31.804  -3.905 -24.992  0.00  0.00    +0.169 C 
ATOM     13  C   UNL     1      31.722  -3.452 -23.533  0.00  0.00    +0.174 C 
BRANCH   9  14
ATOM     14  O   UNL     1      33.825  -6.962 -24.158  0.00  0.00    -0.379 OA
ATOM     15  H   UNL     1      33.638  -7.775 -23.663  0.00  0.00    +0.211 HD
ENDBRANCH   9  14
BRANCH  10  16
ATOM     16  O   UNL     1      32.736  -5.529 -26.481  0.00  0.00    -0.379 OA
ATOM     17  H   UNL     1      32.054  -6.219 -26.488  0.00  0.00    +0.211 HD
ENDBRANCH  10  16
BRANCH  12  18
ATOM     18  O   UNL     1      32.142  -2.790 -25.812  0.00  0.00    -0.379 OA
ATOM     19  H   UNL     1      31.568  -2.039 -25.589  0.00  0.00    +0.211 HD
ENDBRANCH  12  18
BRANCH  13  20
ATOM     20  C   UNL     1      30.598  -2.443 -23.317  0.00  0.00    +0.169 C 
BRANCH  20  21
ATOM     21  O   UNL     1      29.694  -2.535 -24.404  0.00  0.00    -0.379 OA
ATOM     22  H   UNL     1      30.142  -2.269 -25.222  0.00  0.00    +0.211 HD
ENDBRANCH  20  21
ENDBRANCH  13  20
ENDBRANCH   1  11
BRANCH   4  23
ATOM     23  C   UNL     1      30.709 -10.114 -21.704  0.00  0.00    +0.059 C 
BRANCH  23  25
ATOM     24  S   UNL     1      31.872 -12.639 -21.478  0.00  0.00    -0.091 S 
ATOM     25  C   UNL     1      31.738 -11.099 -22.217  0.00  0.00    +0.012 C 
ATOM     26  C   UNL     1      32.635 -10.942 -23.250  0.00  0.00    +0.003 C 
ATOM     27  C   UNL     1      33.134 -13.098 -22.540  0.00  0.00    +0.029 C 
ATOM     28  C   UNL     1      33.444 -12.100 -23.438  0.00  0.00    +0.007 C 
BRANCH  27  30
ATOM     29  F   UNL     1      35.396 -18.164 -22.007  0.00  0.00    -0.204 F 
ATOM     30  C   UNL     1      33.720 -14.411 -22.402  0.00  0.00    +0.006 C 
ATOM     31  C   UNL     1      34.003 -15.172 -23.537  0.00  0.00    +0.003 C 
ATOM     32  C   UNL     1      34.003 -14.919 -21.134  0.00  0.00    +0.003 C 
ATOM     33  C   UNL     1      34.569 -16.439 -23.404  0.00  0.00    +0.030 C 
ATOM     34  C   UNL     1      34.569 -16.186 -21.001  0.00  0.00    +0.030 C 
ATOM     35  C   UNL     1      34.852 -16.947 -22.136  0.00  0.00    +0.140 C 
ENDBRANCH  27  30
ENDBRANCH  23  25
ENDBRANCH   4  23
TORSDOF 9
ENDMDL
MODEL 4
REMARK VINA RESULT:     -11.6      1.149      1.997
REMARK  Name = 24812758
REMARK  9 active torsions:
REMARK  status: ('A' for Active; 'I' for Inactive)
REMARK    1  A    between atoms: C_1  and  C_11
REMARK    2  A    between atoms: C_4  and  C_23
REMARK    3  A    between atoms: C_9  and  O_14
REMARK    4  A    between atoms: C_10  and  O_16
REMARK    5  A    between atoms: C_12  and  O_18
REMARK    6  A    between atoms: C_13  and  C_20
REMARK    7  A    between atoms: C_20  and  O_21
REMARK    8  A    between atoms: C_23  and  C_25
REMARK    9  A    between atoms: C_27  and  C_30
REMARK                            x       y       z     vdW  Elec       q    Type
REMARK                         _______ _______ _______ _____ _____    ______ ____
ROOT
ATOM      1  C   UNL     1      34.005 -23.768 -14.600  0.00  0.00    +0.007 C 
ATOM      2  C   UNL     1      33.919 -23.728 -15.992  0.00  0.00    -0.006 C 
ATOM      3  C   UNL     1      32.980 -23.231 -13.822  0.00  0.00    -0.002 C 
ATOM      4  C   UNL     1      32.808 -23.151 -16.606  0.00  0.00    -0.021 C 
ATOM      5  C   UNL     1      31.782 -22.614 -15.828  0.00  0.00    -0.025 C 
ATOM      6  C   UNL     1      31.868 -22.654 -14.436  0.00  0.00    -0.005 C 
ATOM      7  C   UNL     1      30.581 -21.992 -16.461  0.00  0.00    +0.031 C 
ENDROOT
BRANCH   1  11
ATOM      8  O   UNL     1      35.861 -23.377 -13.162  0.00  0.00    -0.347 OA
ATOM      9  C   UNL     1      36.184 -25.005 -14.957  0.00  0.00    +0.171 C 
ATOM     10  C   UNL     1      37.468 -25.487 -14.277  0.00  0.00    +0.169 C 
ATOM     11  C   UNL     1      35.214 -24.395 -13.933  0.00  0.00    +0.167 C 
ATOM     12  C   UNL     1      38.045 -24.414 -13.354  0.00  0.00    +0.169 C 
ATOM     13  C   UNL     1      36.969 -23.874 -12.410  0.00  0.00    +0.174 C 
BRANCH   9  14
ATOM     14  O   UNL     1      35.546 -26.116 -15.585  0.00  0.00    -0.379 OA
ATOM     15  H   UNL     1      35.205 -26.720 -14.906  0.00  0.00    +0.211 HD
ENDBRANCH   9  14
BRANCH  10  16
ATOM     16  O   UNL     1      38.448 -25.786 -15.271  0.00  0.00    -0.379 OA
ATOM     17  H   UNL     1      39.232 -25.233 -15.131  0.00  0.00    +0.211 HD
ENDBRANCH  10  16
BRANCH  12  18
ATOM     18  O   UNL     1      39.105 -24.975 -12.585  0.00  0.00    -0.379 OA
ATOM     19  H   UNL     1      39.287 -24.405 -11.820  0.00  0.00    +0.211 HD
ENDBRANCH  12  18
BRANCH  13  20
ATOM     20  C   UNL     1      37.492 -22.726 -11.553  0.00  0.00    +0.169 C 
BRANCH  20  21
ATOM     21  O   UNL     1      37.187 -21.504 -12.202  0.00  0.00    -0.379 OA
ATOM     22  H   UNL     1      36.258 -21.276 -12.043  0.00  0.00    +0.211 HD
ENDBRANCH  20  21
ENDBRANCH  13  20
ENDBRANCH   1  11
BRANCH   4  23
ATOM     23  C   UNL     1      32.736 -23.121 -18.097  0.00  0.00    +0.059 C 
BRANCH  23  25
ATOM     24  S   UNL     1      32.907 -21.017 -19.920  0.00  0.00    -0.091 S 
ATOM     25  C   UNL     1      33.589 -22.040 -18.729  0.00  0.00    +0.012 C 
ATOM     26  C   UNL     1      34.907 -21.731 -18.476  0.00  0.00    +0.003 C 
ATOM     27  C   UNL     1      34.376 -20.158 -20.102  0.00  0.00    +0.029 C 
ATOM     28  C   UNL     1      35.364 -20.640 -19.272  0.00  0.00    +0.007 C 
BRANCH  27  30
ATOM     29  F   UNL     1      34.617 -15.973 -23.774  0.00  0.00    -0.204 F 
ATOM     30  C   UNL     1      34.438 -19.073 -21.054  0.00  0.00    +0.006 C 
ATOM     31  C   UNL     1      35.002 -17.852 -20.683  0.00  0.00    +0.003 C 
ATOM     32  C   UNL     1      33.935 -19.247 -22.343  0.00  0.00    +0.003 C 
ATOM     33  C   UNL     1      35.063 -16.805 -21.602  0.00  0.00    +0.030 C 
ATOM     34  C   UNL     1      33.996 -18.199 -23.261  0.00  0.00    +0.030 C 
ATOM     35  C   UNL     1      34.559 -16.978 -22.891  0.00  0.00    +0.140 C 
ENDBRANCH  27  30
ENDBRANCH  23  25
ENDBRANCH   4  23
TORSDOF 9
ENDMDL
MODEL 5
REMARK VINA RESULT:     -11.6     11.896     16.721
REMARK  Name = 24812758
REMARK  9 active torsions:
REMARK  status: ('A' for Active; 'I' for Inactive)
REMARK    1  A    between atoms: C_1  and  C_11
REMARK    2  A    between atoms: C_4  and  C_23
REMARK    3  A    between atoms: C_9  and  O_14
REMARK    4  A    between atoms: C_10  and  O_16
REMARK    5  A    between atoms: C_12  and  O_18
REMARK    6  A    between atoms: C_13  and  C_20
REMARK    7  A    between atoms: C_20  and  O_21
REMARK    8  A    between atoms: C_23  and  C_25
REMARK    9  A    between atoms: C_27  and  C_30
REMARK                            x       y       z     vdW  Elec       q    Type
REMARK                         _______ _______ _______ _____ _____    ______ ____
ROOT
ATOM      1  C   UNL     1      31.265  -6.731 -22.177  0.00  0.00    +0.007 C 
ATOM      2  C   UNL     1      30.855  -8.062 -22.256  0.00  0.00    -0.006 C 
ATOM      3  C   UNL     1      31.815  -6.240 -20.992  0.00  0.00    -0.002 C 
ATOM      4  C   UNL     1      30.995  -8.902 -21.151  0.00  0.00    -0.021 C 
ATOM      5  C   UNL     1      31.544  -8.410 -19.967  0.00  0.00    -0.025 C 
ATOM      6  C   UNL     1      31.954  -7.080 -19.888  0.00  0.00    -0.005 C 
ATOM      7  C   UNL     1      31.705  -9.290 -18.770  0.00  0.00    +0.031 C 
ENDROOT
BRANCH   1  11
ATOM      8  O   UNL     1      32.277  -5.979 -24.195  0.00  0.00    -0.347 OA
ATOM      9  C   UNL     1      30.934  -4.350 -22.965  0.00  0.00    +0.171 C 
ATOM     10  C   UNL     1      30.944  -3.430 -24.189  0.00  0.00    +0.169 C 
ATOM     11  C   UNL     1      31.113  -5.819 -23.377  0.00  0.00    +0.167 C 
ATOM     12  C   UNL     1      32.129  -3.736 -25.104  0.00  0.00    +0.169 C 
ATOM     13  C   UNL     1      32.206  -5.233 -25.411  0.00  0.00    +0.174 C 
BRANCH   9  14
ATOM     14  O   UNL     1      29.682  -4.214 -22.292  0.00  0.00    -0.379 OA
ATOM     15  H   UNL     1      29.717  -3.449 -21.696  0.00  0.00    +0.211 HD
ENDBRANCH   9  14
BRANCH  10  16
ATOM     16  O   UNL     1      31.056  -2.072 -23.761  0.00  0.00    -0.379 OA
ATOM     17  H   UNL     1      30.596  -1.960 -22.915  0.00  0.00    +0.211 HD
ENDBRANCH  10  16
BRANCH  12  18
ATOM     18  O   UNL     1      31.981  -3.014 -26.324  0.00  0.00    -0.379 OA
ATOM     19  H   UNL     1      32.266  -2.095 -26.191  0.00  0.00    +0.211 HD
ENDBRANCH  12  18
BRANCH  13  20
ATOM     20  C   UNL     1      33.444  -5.579 -26.233  0.00  0.00    +0.169 C 
BRANCH  20  21
ATOM     21  O   UNL     1      33.101  -5.530 -27.606  0.00  0.00    -0.379 OA
ATOM     22  H   UNL     1      33.873  -5.250 -28.123  0.00  0.00    +0.211 HD
ENDBRANCH  20  21
ENDBRANCH  13  20
ENDBRANCH   1  11
BRANCH   4  23
ATOM     23  C   UNL     1      30.550 -10.323 -21.259  0.00  0.00    +0.059 C 
BRANCH  23  25
ATOM     24  S   UNL     1      31.827 -12.802 -21.186  0.00  0.00    -0.091 S 
ATOM     25  C   UNL     1      31.589 -11.246 -21.861  0.00  0.00    +0.012 C 
ATOM     26  C   UNL     1      32.421 -11.016 -22.934  0.00  0.00    +0.003 C 
ATOM     27  C   UNL     1      33.046 -13.171 -22.329  0.00  0.00    +0.029 C 
ATOM     28  C   UNL     1      33.266 -12.131 -23.205  0.00  0.00    +0.007 C 
BRANCH  27  30
ATOM     29  F   UNL     1      35.542 -18.148 -22.097  0.00  0.00    -0.204 F 
ATOM     30  C   UNL     1      33.693 -14.461 -22.269  0.00  0.00    +0.006 C 
ATOM     31  C   UNL     1      34.063 -15.111 -23.446  0.00  0.00    +0.003 C 
ATOM     32  C   UNL     1      33.948 -15.056 -21.034  0.00  0.00    +0.003 C 
ATOM     33  C   UNL     1      34.687 -16.357 -23.389  0.00  0.00    +0.030 C 
ATOM     34  C   UNL     1      34.573 -16.302 -20.976  0.00  0.00    +0.030 C 
ATOM     35  C   UNL     1      34.943 -16.952 -22.153  0.00  0.00    +0.140 C 
ENDBRANCH  27  30
ENDBRANCH  23  25
ENDBRANCH   4  23
TORSDOF 9
ENDMDL
MODEL 6
REMARK VINA RESULT:     -11.1      1.355      2.290
REMARK  Name = 24812758
REMARK  9 active torsions:
REMARK  status: ('A' for Active; 'I' for Inactive)
REMARK    1  A    between atoms: C_1  and  C_11
REMARK    2  A    between atoms: C_4  and  C_23
REMARK    3  A    between atoms: C_9  and  O_14
REMARK    4  A    between atoms: C_10  and  O_16
REMARK    5  A    between atoms: C_12  and  O_18
REMARK    6  A    between atoms: C_13  and  C_20
REMARK    7  A    between atoms: C_20  and  O_21
REMARK    8  A    between atoms: C_23  and  C_25
REMARK    9  A    between atoms: C_27  and  C_30
REMARK                            x       y       z     vdW  Elec       q    Type
REMARK                         _______ _______ _______ _____ _____    ______ ____
ROOT
ATOM      1  C   UNL     1      34.446 -22.403 -16.181  0.00  0.00    +0.007 C 
ATOM      2  C   UNL     1      35.025 -22.223 -17.437  0.00  0.00    -0.006 C 
ATOM      3  C   UNL     1      33.061 -22.323 -16.034  0.00  0.00    -0.002 C 
ATOM      4  C   UNL     1      34.220 -21.964 -18.546  0.00  0.00    -0.021 C 
ATOM      5  C   UNL     1      32.835 -21.884 -18.399  0.00  0.00    -0.025 C 
ATOM      6  C   UNL     1      32.256 -22.063 -17.143  0.00  0.00    -0.005 C 
ATOM      7  C   UNL     1      31.952 -21.607 -19.571  0.00  0.00    +0.031 C 
ENDROOT
BRANCH   1  11
ATOM      8  O   UNL     1      36.496 -23.358 -15.441  0.00  0.00    -0.347 OA
ATOM      9  C   UNL     1      34.591 -23.529 -13.920  0.00  0.00    +0.171 C 
ATOM     10  C   UNL     1      35.541 -23.936 -12.790  0.00  0.00    +0.169 C 
ATOM     11  C   UNL     1      35.321 -22.685 -14.976  0.00  0.00    +0.167 C 
ATOM     12  C   UNL     1      36.841 -24.519 -13.340  0.00  0.00    +0.169 C 
ATOM     13  C   UNL     1      37.445 -23.595 -14.400  0.00  0.00    +0.174 C 
BRANCH   9  14
ATOM     14  O   UNL     1      33.525 -22.753 -13.373  0.00  0.00    -0.379 OA
ATOM     15  H   UNL     1      33.255 -23.129 -12.520  0.00  0.00    +0.211 HD
ENDBRANCH   9  14
BRANCH  10  16
ATOM     16  O   UNL     1      34.917 -24.935 -11.982  0.00  0.00    -0.379 OA
ATOM     17  H   UNL     1      34.841 -24.614 -11.070  0.00  0.00    +0.211 HD
ENDBRANCH  10  16
BRANCH  12  18
ATOM     18  O   UNL     1      37.773 -24.682 -12.274  0.00  0.00    -0.379 OA
ATOM     19  H   UNL     1      37.341 -24.466 -11.432  0.00  0.00    +0.211 HD
ENDBRANCH  12  18
BRANCH  13  20
ATOM     20  C   UNL     1      38.686 -24.207 -15.043  0.00  0.00    +0.169 C 
BRANCH  20  21
ATOM     21  O   UNL     1      38.534 -25.615 -15.066  0.00  0.00    -0.379 OA
ATOM     22  H   UNL     1      39.270 -26.012 -15.557  0.00  0.00    +0.211 HD
ENDBRANCH  20  21
ENDBRANCH  13  20
ENDBRANCH   1  11
BRANCH   4  23
ATOM     23  C   UNL     1      34.862 -21.775 -19.881  0.00  0.00    +0.059 C 
BRANCH  23  25
ATOM     24  S   UNL     1      34.076 -19.378 -21.070  0.00  0.00    -0.091 S 
ATOM     25  C   UNL     1      35.200 -20.333 -20.200  0.00  0.00    +0.012 C 
ATOM     26  C   UNL     1      36.337 -19.628 -19.876  0.00  0.00    +0.003 C 
ATOM     27  C   UNL     1      35.112 -18.016 -21.017  0.00  0.00    +0.029 C 
ATOM     28  C   UNL     1      36.287 -18.285 -20.350  0.00  0.00    +0.007 C 
BRANCH  27  30
ATOM     29  F   UNL     1      33.453 -13.272 -23.426  0.00  0.00    -0.204 F 
ATOM     30  C   UNL     1      34.682 -16.787 -21.642  0.00  0.00    +0.006 C 
ATOM     31  C   UNL     1      34.307 -15.698 -20.854  0.00  0.00    +0.003 C 
ATOM     32  C   UNL     1      34.641 -16.687 -23.033  0.00  0.00    +0.003 C 
ATOM     33  C   UNL     1      33.892 -14.511 -21.456  0.00  0.00    +0.030 C 
ATOM     34  C   UNL     1      34.226 -15.501 -23.635  0.00  0.00    +0.030 C 
ATOM     35  C   UNL     1      33.851 -14.412 -22.847  0.00  0.00    +0.140 C 
ENDBRANCH  27  30
ENDBRANCH  23  25
ENDBRANCH   4  23
TORSDOF 9
ENDMDL
MODEL 7
REMARK VINA RESULT:     -10.7      2.121      4.438
REMARK  Name = 24812758
REMARK  9 active torsions:
REMARK  status: ('A' for Active; 'I' for Inactive)
REMARK    1  A    between atoms: C_1  and  C_11
REMARK    2  A    between atoms: C_4  and  C_23
REMARK    3  A    between atoms: C_9  and  O_14
REMARK    4  A    between atoms: C_10  and  O_16
REMARK    5  A    between atoms: C_12  and  O_18
REMARK    6  A    between atoms: C_13  and  C_20
REMARK    7  A    between atoms: C_20  and  O_21
REMARK    8  A    between atoms: C_23  and  C_25
REMARK    9  A    between atoms: C_27  and  C_30
REMARK                            x       y       z     vdW  Elec       q    Type
REMARK                         _______ _______ _______ _____ _____    ______ ____
ROOT
ATOM      1  C   UNL     1      34.151 -22.039 -17.658  0.00  0.00    +0.007 C 
ATOM      2  C   UNL     1      35.099 -21.471 -18.508  0.00  0.00    -0.006 C 
ATOM      3  C   UNL     1      32.791 -21.853 -17.906  0.00  0.00    -0.002 C 
ATOM      4  C   UNL     1      34.689 -20.718 -19.608  0.00  0.00    -0.021 C 
ATOM      5  C   UNL     1      33.328 -20.533 -19.857  0.00  0.00    -0.025 C 
ATOM      6  C   UNL     1      32.380 -21.100 -19.006  0.00  0.00    -0.005 C 
ATOM      7  C   UNL     1      32.863 -19.731 -21.028  0.00  0.00    +0.031 C 
ENDROOT
BRANCH   1  11
ATOM      8  O   UNL     1      33.497 -22.933 -15.551  0.00  0.00    -0.347 OA
ATOM      9  C   UNL     1      35.832 -22.249 -15.778  0.00  0.00    +0.171 C 
ATOM     10  C   UNL     1      36.168 -22.998 -14.485  0.00  0.00    +0.169 C 
ATOM     11  C   UNL     1      34.598 -22.857 -16.462  0.00  0.00    +0.167 C 
ATOM     12  C   UNL     1      34.929 -23.178 -13.610  0.00  0.00    +0.169 C 
ATOM     13  C   UNL     1      33.770 -23.762 -14.421  0.00  0.00    +0.174 C 
BRANCH   9  14
ATOM     14  O   UNL     1      36.942 -22.344 -16.671  0.00  0.00    -0.379 OA
ATOM     15  H   UNL     1      37.596 -22.962 -16.309  0.00  0.00    +0.211 HD
ENDBRANCH   9  14
BRANCH  10  16
ATOM     16  O   UNL     1      37.130 -22.250 -13.740  0.00  0.00    -0.379 OA
ATOM     17  H   UNL     1      37.801 -22.852 -13.381  0.00  0.00    +0.211 HD
ENDBRANCH  10  16
BRANCH  12  18
ATOM     18  O   UNL     1      35.238 -24.057 -12.532  0.00  0.00    -0.379 OA
ATOM     19  H   UNL     1      34.497 -24.669 -12.391  0.00  0.00    +0.211 HD
ENDBRANCH  12  18
BRANCH  13  20
ATOM     20  C   UNL     1      32.490 -23.849 -13.597  0.00  0.00    +0.169 C 
BRANCH  20  21
ATOM     21  O   UNL     1      32.555 -22.885 -12.560  0.00  0.00    -0.379 OA
ATOM     22  H   UNL     1      33.111 -22.143 -12.843  0.00  0.00    +0.211 HD
ENDBRANCH  20  21
ENDBRANCH  13  20
ENDBRANCH   1  11
BRANCH   4  23
ATOM     23  C   UNL     1      35.722 -20.120 -20.505  0.00  0.00    +0.059 C 
BRANCH  23  25
ATOM     24  S   UNL     1      35.069 -17.420 -20.755  0.00  0.00    -0.091 S 
ATOM     25  C   UNL     1      35.196 -19.006 -21.387  0.00  0.00    +0.012 C 
ATOM     26  C   UNL     1      34.781 -19.075 -22.699  0.00  0.00    +0.003 C 
ATOM     27  C   UNL     1      34.458 -16.820 -22.237  0.00  0.00    +0.029 C 
ATOM     28  C   UNL     1      34.353 -17.808 -23.192  0.00  0.00    +0.007 C 
BRANCH  27  30
ATOM     29  F   UNL     1      33.181 -11.410 -22.633  0.00  0.00    -0.204 F 
ATOM     30  C   UNL     1      34.127 -15.418 -22.340  0.00  0.00    +0.006 C 
ATOM     31  C   UNL     1      33.991 -14.647 -21.185  0.00  0.00    +0.003 C 
ATOM     32  C   UNL     1      33.943 -14.834 -23.594  0.00  0.00    +0.003 C 
ATOM     33  C   UNL     1      33.672 -13.293 -21.284  0.00  0.00    +0.030 C 
ATOM     34  C   UNL     1      33.623 -13.481 -23.693  0.00  0.00    +0.030 C 
ATOM     35  C   UNL     1      33.488 -12.710 -22.538  0.00  0.00    +0.140 C 
ENDBRANCH  27  30
ENDBRANCH  23  25
ENDBRANCH   4  23
TORSDOF 9
ENDMDL
MODEL 8
REMARK VINA RESULT:     -10.7      6.194     10.294
REMARK  Name = 24812758
REMARK  9 active torsions:
REMARK  status: ('A' for Active; 'I' for Inactive)
REMARK    1  A    between atoms: C_1  and  C_11
REMARK    2  A    between atoms: C_4  and  C_23
REMARK    3  A    between atoms: C_9  and  O_14
REMARK    4  A    between atoms: C_10  and  O_16
REMARK    5  A    between atoms: C_12  and  O_18
REMARK    6  A    between atoms: C_13  and  C_20
REMARK    7  A    between atoms: C_20  and  O_21
REMARK    8  A    between atoms: C_23  and  C_25
REMARK    9  A    between atoms: C_27  and  C_30
REMARK                            x       y       z     vdW  Elec       q    Type
REMARK                         _______ _______ _______ _____ _____    ______ ____
ROOT
ATOM      1  C   UNL     1      35.290 -18.845 -21.402  0.00  0.00    +0.007 C 
ATOM      2  C   UNL     1      34.604 -20.041 -21.194  0.00  0.00    -0.006 C 
ATOM      3  C   UNL     1      36.282 -18.445 -20.506  0.00  0.00    -0.002 C 
ATOM      4  C   UNL     1      34.908 -20.837 -20.090  0.00  0.00    -0.021 C 
ATOM      5  C   UNL     1      35.900 -20.437 -19.194  0.00  0.00    -0.025 C 
ATOM      6  C   UNL     1      36.586 -19.241 -19.403  0.00  0.00    -0.005 C 
ATOM      7  C   UNL     1      36.245 -21.272 -18.005  0.00  0.00    +0.031 C 
ENDROOT
BRANCH   1  11
ATOM      8  O   UNL     1      34.581 -16.688 -22.116  0.00  0.00    -0.347 OA
ATOM      9  C   UNL     1      33.839 -18.589 -23.460  0.00  0.00    +0.171 C 
ATOM     10  C   UNL     1      33.412 -17.626 -24.570  0.00  0.00    +0.169 C 
ATOM     11  C   UNL     1      34.959 -17.980 -22.602  0.00  0.00    +0.167 C 
ATOM     12  C   UNL     1      33.156 -16.224 -24.021  0.00  0.00    +0.169 C 
ATOM     13  C   UNL     1      34.333 -15.752 -23.165  0.00  0.00    +0.174 C 
BRANCH   9  14
ATOM     14  O   UNL     1      34.322 -19.795 -24.051  0.00  0.00    -0.379 OA
ATOM     15  H   UNL     1      33.737 -20.531 -23.811  0.00  0.00    +0.211 HD
ENDBRANCH   9  14
BRANCH  10  16
ATOM     16  O   UNL     1      32.201 -18.095 -25.165  0.00  0.00    -0.379 OA
ATOM     17  H   UNL     1      31.441 -17.707 -24.703  0.00  0.00    +0.211 HD
ENDBRANCH  10  16
BRANCH  12  18
ATOM     18  O   UNL     1      32.973 -15.319 -25.107  0.00  0.00    -0.379 OA
ATOM     19  H   UNL     1      33.815 -15.202 -25.575  0.00  0.00    +0.211 HD
ENDBRANCH  12  18
BRANCH  13  20
ATOM     20  C   UNL     1      34.055 -14.400 -22.517  0.00  0.00    +0.169 C 
BRANCH  20  21
ATOM     21  O   UNL     1      34.140 -14.548 -21.111  0.00  0.00    -0.379 OA
ATOM     22  H   UNL     1      33.513 -13.944 -20.683  0.00  0.00    +0.211 HD
ENDBRANCH  20  21
ENDBRANCH  13  20
ENDBRANCH   1  11
BRANCH   4  23
ATOM     23  C   UNL     1      34.161 -22.114 -19.888  0.00  0.00    +0.059 C 
BRANCH  23  25
ATOM     24  S   UNL     1      33.149 -23.079 -17.475  0.00  0.00    -0.091 S 
ATOM     25  C   UNL     1      33.083 -22.030 -18.827  0.00  0.00    +0.012 C 
ATOM     26  C   UNL     1      31.994 -21.189 -18.776  0.00  0.00    +0.003 C 
ATOM     27  C   UNL     1      31.717 -22.409 -16.818  0.00  0.00    +0.029 C 
ATOM     28  C   UNL     1      31.202 -21.409 -17.612  0.00  0.00    +0.007 C 
BRANCH  27  30
ATOM     29  F   UNL     1      29.773 -24.409 -11.992  0.00  0.00    -0.204 F 
ATOM     30  C   UNL     1      31.213 -22.928 -15.567  0.00  0.00    +0.006 C 
ATOM     31  C   UNL     1      31.739 -22.469 -14.359  0.00  0.00    +0.003 C 
ATOM     32  C   UNL     1      30.200 -23.887 -15.567  0.00  0.00    +0.003 C 
ATOM     33  C   UNL     1      31.253 -22.969 -13.152  0.00  0.00    +0.030 C 
ATOM     34  C   UNL     1      29.714 -24.387 -14.359  0.00  0.00    +0.030 C 
ATOM     35  C   UNL     1      30.240 -23.928 -13.151  0.00  0.00    +0.140 C 
ENDBRANCH  27  30
ENDBRANCH  23  25
ENDBRANCH   4  23
TORSDOF 9
ENDMDL
MODEL 9
REMARK VINA RESULT:     -10.5      5.846     10.219
REMARK  Name = 24812758
REMARK  9 active torsions:
REMARK  status: ('A' for Active; 'I' for Inactive)
REMARK    1  A    between atoms: C_1  and  C_11
REMARK    2  A    between atoms: C_4  and  C_23
REMARK    3  A    between atoms: C_9  and  O_14
REMARK    4  A    between atoms: C_10  and  O_16
REMARK    5  A    between atoms: C_12  and  O_18
REMARK    6  A    between atoms: C_13  and  C_20
REMARK    7  A    between atoms: C_20  and  O_21
REMARK    8  A    between atoms: C_23  and  C_25
REMARK    9  A    between atoms: C_27  and  C_30
REMARK                            x       y       z     vdW  Elec       q    Type
REMARK                         _______ _______ _______ _____ _____    ______ ____
ROOT
ATOM      1  C   UNL     1      34.194 -19.221 -20.709  0.00  0.00    +0.007 C 
ATOM      2  C   UNL     1      35.193 -20.034 -20.174  0.00  0.00    -0.006 C 
ATOM      3  C   UNL     1      32.854 -19.479 -20.418  0.00  0.00    -0.002 C 
ATOM      4  C   UNL     1      34.853 -21.106 -19.349  0.00  0.00    -0.021 C 
ATOM      5  C   UNL     1      33.513 -21.364 -19.058  0.00  0.00    -0.025 C 
ATOM      6  C   UNL     1      32.514 -20.551 -19.593  0.00  0.00    -0.005 C 
ATOM      7  C   UNL     1      33.124 -22.505 -18.177  0.00  0.00    +0.031 C 
ENDROOT
BRANCH   1  11
ATOM      8  O   UNL     1      34.096 -16.858 -20.978  0.00  0.00    -0.347 OA
ATOM      9  C   UNL     1      33.967 -18.203 -23.014  0.00  0.00    +0.171 C 
ATOM     10  C   UNL     1      34.216 -16.945 -23.850  0.00  0.00    +0.169 C 
ATOM     11  C   UNL     1      34.563 -18.057 -21.606  0.00  0.00    +0.167 C 
ATOM     12  C   UNL     1      33.833 -15.682 -23.081  0.00  0.00    +0.169 C 
ATOM     13  C   UNL     1      34.470 -15.678 -21.690  0.00  0.00    +0.174 C 
BRANCH   9  14
ATOM     14  O   UNL     1      34.583 -19.318 -23.658  0.00  0.00    -0.379 OA
ATOM     15  H   UNL     1      35.546 -19.256 -23.561  0.00  0.00    +0.211 HD
ENDBRANCH   9  14
BRANCH  10  16
ATOM     16  O   UNL     1      33.422 -16.997 -25.036  0.00  0.00    -0.379 OA
ATOM     17  H   UNL     1      32.910 -16.178 -25.120  0.00  0.00    +0.211 HD
ENDBRANCH  10  16
BRANCH  12  18
ATOM     18  O   UNL     1      34.279 -14.537 -23.804  0.00  0.00    -0.379 OA
ATOM     19  H   UNL     1      34.073 -14.650 -24.746  0.00  0.00    +0.211 HD
ENDBRANCH  12  18
BRANCH  13  20
ATOM     20  C   UNL     1      34.014 -14.481 -20.863  0.00  0.00    +0.169 C 
BRANCH  20  21
ATOM     21  O   UNL     1      32.888 -13.899 -21.494  0.00  0.00    -0.379 OA
ATOM     22  H   UNL     1      33.118 -13.012 -21.814  0.00  0.00    +0.211 HD
ENDBRANCH  20  21
ENDBRANCH  13  20
ENDBRANCH   1  11
BRANCH   4  23
ATOM     23  C   UNL     1      35.940 -21.963 -18.788  0.00  0.00    +0.059 C 
BRANCH  23  25
ATOM     24  S   UNL     1      35.476 -22.963 -16.226  0.00  0.00    -0.091 S 
ATOM     25  C   UNL     1      36.138 -21.800 -17.295  0.00  0.00    +0.012 C 
ATOM     26  C   UNL     1      36.811 -20.804 -16.623  0.00  0.00    +0.003 C 
ATOM     27  C   UNL     1      36.089 -22.133 -14.859  0.00  0.00    +0.029 C 
ATOM     28  C   UNL     1      36.782 -20.996 -15.211  0.00  0.00    +0.007 C 
BRANCH  27  30
ATOM     29  F   UNL     1      35.105 -24.212  -9.783  0.00  0.00    -0.204 F 
ATOM     30  C   UNL     1      35.834 -22.672 -13.543  0.00  0.00    +0.006 C 
ATOM     31  C   UNL     1      34.686 -23.430 -13.310  0.00  0.00    +0.003 C 
ATOM     32  C   UNL     1      36.735 -22.434 -12.505  0.00  0.00    +0.003 C 
ATOM     33  C   UNL     1      34.440 -23.950 -12.040  0.00  0.00    +0.030 C 
ATOM     34  C   UNL     1      36.488 -22.954 -11.235  0.00  0.00    +0.030 C 
ATOM     35  C   UNL     1      35.341 -23.713 -11.002  0.00  0.00    +0.140 C 
ENDBRANCH  27  30
ENDBRANCH  23  25
ENDBRANCH   4  23
TORSDOF 9
ENDMDL
