MODEL 1
REMARK VINA RESULT:     -12.1      0.000      0.000
REMARK  Name = 17758920
REMARK  10 active torsions:
REMARK  status: ('A' for Active; 'I' for Inactive)
REMARK    1  A    between atoms: C_3  and  C_7
REMARK    2  A    between atoms: C_5  and  O_26
REMARK    3  A    between atoms: C_6  and  C_23
REMARK    4  A    between atoms: C_8  and  N_13
REMARK    5  A    between atoms: N_13  and  C_15
REMARK    6  A    between atoms: C_15  and  C_16
REMARK    7  A    between atoms: C_23  and  O_24
REMARK    8  A    between atoms: O_26  and  C_27
REMARK    9  A    between atoms: C_27  and  C_29
REMARK   10  A    between atoms: C_29  and  O_30
REMARK                            x       y       z     vdW  Elec       q    Type
REMARK                         _______ _______ _______ _____ _____    ______ ____
ROOT
ATOM      1 BR   UNL     1      37.361 -22.307 -15.856  0.00  0.00    -0.045 Br
ATOM      2  S   UNL     1      34.151 -24.009 -13.347  0.00  0.00    -0.077 S 
ATOM      3  C   UNL     1      34.847 -23.234 -14.706  0.00  0.00    +0.039 A 
ATOM      4  C   UNL     1      36.212 -23.102 -14.584  0.00  0.00    +0.075 A 
ATOM      5  C   UNL     1      36.694 -23.644 -13.357  0.00  0.00    +0.158 A 
ATOM      6  C   UNL     1      35.679 -24.169 -12.589  0.00  0.00    +0.139 A 
ENDROOT
BRANCH   3   7
ATOM      7  C   UNL     1      33.970 -22.827 -15.778  0.00  0.00    +0.008 C 
ATOM      8  C   UNL     1      33.656 -22.006 -18.028  0.00  0.00    +0.045 C 
ATOM      9  C   UNL     1      34.504 -22.398 -16.992  0.00  0.00    +0.015 C 
ATOM     10  C   UNL     1      32.587 -22.865 -15.598  0.00  0.00    +0.001 C 
ATOM     11  C   UNL     1      32.274 -22.044 -17.849  0.00  0.00    +0.014 C 
ATOM     12  C   UNL     1      31.739 -22.473 -16.634  0.00  0.00    +0.001 C 
BRANCH   8  13
ATOM     13  N   UNL     1      34.196 -21.572 -19.256  0.00  0.00    -0.329 N 
ATOM     14  H   UNL     1      33.719 -21.798 -20.086  0.00  0.00    +0.147 HD
BRANCH  13  15
ATOM     15  C   UNL     1      35.409 -20.819 -19.349  0.00  0.00    +0.114 C 
BRANCH  15  16
ATOM     16  C   UNL     1      35.308 -19.789 -20.439  0.00  0.00    -0.003 C 
ATOM     17  C   UNL     1      34.136 -19.679 -21.189  0.00  0.00    -0.003 C 
ATOM     18  C   UNL     1      36.385 -18.941 -20.701  0.00  0.00    -0.003 C 
ATOM     19  C   UNL     1      34.043 -18.723 -22.200  0.00  0.00    -0.000 C 
ATOM     20  C   UNL     1      36.291 -17.985 -21.712  0.00  0.00    -0.000 C 
ATOM     21  C   UNL     1      35.120 -17.876 -22.462  0.00  0.00    -0.000 C 
ENDBRANCH  15  16
ENDBRANCH  13  15
ENDBRANCH   8  13
ENDBRANCH   3   7
BRANCH   6  23
ATOM     22  O   UNL     1      35.134 -24.470 -10.275  0.00  0.00    -0.244 OA
ATOM     23  C   UNL     1      35.747 -24.796 -11.308  0.00  0.00    +0.347 C 
BRANCH  23  24
ATOM     24  O   UNL     1      36.600 -25.871 -11.282  0.00  0.00    -0.477 OA
ATOM     25  H   UNL     1      36.668 -26.433 -12.028  0.00  0.00    +0.295 HD
ENDBRANCH  23  24
ENDBRANCH   6  23
BRANCH   5  26
ATOM     26  O   UNL     1      37.979 -23.663 -12.955  0.00  0.00    -0.463 OA
BRANCH  26  27
ATOM     27  C   UNL     1      38.718 -24.862 -13.203  0.00  0.00    +0.314 C 
BRANCH  27  29
ATOM     28  O   UNL     1      40.713 -23.911 -14.214  0.00  0.00    -0.246 OA
ATOM     29  C   UNL     1      39.723 -24.622 -14.296  0.00  0.00    +0.359 C 
BRANCH  29  30
ATOM     30  O   UNL     1      39.376 -25.315 -15.411  0.00  0.00    -0.478 OA
ATOM     31  H   UNL     1      38.602 -25.083 -15.884  0.00  0.00    +0.295 HD
ENDBRANCH  29  30
ENDBRANCH  27  29
ENDBRANCH  26  27
ENDBRANCH   5  26
TORSDOF 10
ENDMDL
MODEL 2
REMARK VINA RESULT:     -11.6      2.299      4.120
REMARK  Name = 17758920
REMARK  10 active torsions:
REMARK  status: ('A' for Active; 'I' for Inactive)
REMARK    1  A    between atoms: C_3  and  C_7
REMARK    2  A    between atoms: C_5  and  O_26
REMARK    3  A    between atoms: C_6  and  C_23
REMARK    4  A    between atoms: C_8  and  N_13
REMARK    5  A    between atoms: N_13  and  C_15
REMARK    6  A    between atoms: C_15  and  C_16
REMARK    7  A    between atoms: C_23  and  O_24
REMARK    8  A    between atoms: O_26  and  C_27
REMARK    9  A    between atoms: C_27  and  C_29
REMARK   10  A    between atoms: C_29  and  O_30
REMARK                            x       y       z     vdW  Elec       q    Type
REMARK                         _______ _______ _______ _____ _____    ______ ____
ROOT
ATOM      1 BR   UNL     1      32.302 -23.277 -16.585  0.00  0.00    -0.045 Br
ATOM      2  S   UNL     1      36.397 -21.675 -16.987  0.00  0.00    -0.077 S 
ATOM      3  C   UNL     1      34.748 -21.903 -17.384  0.00  0.00    +0.039 A 
ATOM      4  C   UNL     1      34.118 -22.758 -16.506  0.00  0.00    +0.075 A 
ATOM      5  C   UNL     1      35.002 -23.232 -15.494  0.00  0.00    +0.158 A 
ATOM      6  C   UNL     1      36.273 -22.722 -15.637  0.00  0.00    +0.139 A 
ENDROOT
BRANCH   3   7
ATOM      7  C   UNL     1      34.225 -21.209 -18.536  0.00  0.00    +0.008 C 
ATOM      8  C   UNL     1      34.572 -19.800 -20.467  0.00  0.00    +0.045 C 
ATOM      9  C   UNL     1      35.079 -20.469 -19.353  0.00  0.00    +0.015 C 
ATOM     10  C   UNL     1      32.864 -21.281 -18.834  0.00  0.00    +0.001 C 
ATOM     11  C   UNL     1      33.213 -19.872 -20.765  0.00  0.00    +0.014 C 
ATOM     12  C   UNL     1      32.357 -20.612 -19.948  0.00  0.00    +0.001 C 
BRANCH   8  13
ATOM     13  N   UNL     1      35.437 -19.051 -21.293  0.00  0.00    -0.329 N 
ATOM     14  H   UNL     1      36.332 -18.825 -20.954  0.00  0.00    +0.147 HD
BRANCH  13  15
ATOM     15  C   UNL     1      35.068 -18.606 -22.601  0.00  0.00    +0.114 C 
BRANCH  15  16
ATOM     16  C   UNL     1      34.641 -17.165 -22.566  0.00  0.00    -0.003 C 
ATOM     17  C   UNL     1      34.298 -16.509 -23.749  0.00  0.00    -0.003 C 
ATOM     18  C   UNL     1      34.586 -16.482 -21.351  0.00  0.00    -0.003 C 
ATOM     19  C   UNL     1      33.901 -15.173 -23.716  0.00  0.00    -0.000 C 
ATOM     20  C   UNL     1      34.189 -15.145 -21.318  0.00  0.00    -0.000 C 
ATOM     21  C   UNL     1      33.847 -14.491 -22.501  0.00  0.00    -0.000 C 
ENDBRANCH  15  16
ENDBRANCH  13  15
ENDBRANCH   8  13
ENDBRANCH   3   7
BRANCH   6  23
ATOM     22  O   UNL     1      37.505 -22.950 -13.594  0.00  0.00    -0.244 OA
ATOM     23  C   UNL     1      37.433 -22.951 -14.836  0.00  0.00    +0.347 C 
BRANCH  23  24
ATOM     24  O   UNL     1      38.559 -23.193 -15.582  0.00  0.00    -0.477 OA
ATOM     25  H   UNL     1      38.820 -22.588 -16.248  0.00  0.00    +0.295 HD
ENDBRANCH  23  24
ENDBRANCH   6  23
BRANCH   5  26
ATOM     26  O   UNL     1      34.677 -24.077 -14.497  0.00  0.00    -0.463 OA
BRANCH  26  27
ATOM     27  C   UNL     1      34.047 -23.509 -13.346  0.00  0.00    +0.314 C 
BRANCH  27  29
ATOM     28  O   UNL     1      34.488 -23.650 -10.960  0.00  0.00    -0.246 OA
ATOM     29  C   UNL     1      34.689 -24.049 -12.097  0.00  0.00    +0.359 C 
BRANCH  29  30
ATOM     30  O   UNL     1      35.539 -25.060 -12.408  0.00  0.00    -0.478 OA
ATOM     31  H   UNL     1      35.847 -25.159 -13.287  0.00  0.00    +0.295 HD
ENDBRANCH  29  30
ENDBRANCH  27  29
ENDBRANCH  26  27
ENDBRANCH   5  26
TORSDOF 10
ENDMDL
MODEL 3
REMARK VINA RESULT:     -11.4      9.578     13.142
REMARK  Name = 17758920
REMARK  10 active torsions:
REMARK  status: ('A' for Active; 'I' for Inactive)
REMARK    1  A    between atoms: C_3  and  C_7
REMARK    2  A    between atoms: C_5  and  O_26
REMARK    3  A    between atoms: C_6  and  C_23
REMARK    4  A    between atoms: C_8  and  N_13
REMARK    5  A    between atoms: N_13  and  C_15
REMARK    6  A    between atoms: C_15  and  C_16
REMARK    7  A    between atoms: C_23  and  O_24
REMARK    8  A    between atoms: O_26  and  C_27
REMARK    9  A    between atoms: C_27  and  C_29
REMARK   10  A    between atoms: C_29  and  O_30
REMARK                            x       y       z     vdW  Elec       q    Type
REMARK                         _______ _______ _______ _____ _____    ______ ____
ROOT
ATOM      1 BR   UNL     1      33.129 -12.162 -25.100  0.00  0.00    -0.045 Br
ATOM      2  S   UNL     1      32.397 -12.997 -20.826  0.00  0.00    -0.077 S 
ATOM      3  C   UNL     1      32.922 -13.308 -22.426  0.00  0.00    +0.039 A 
ATOM      4  C   UNL     1      32.699 -12.236 -23.262  0.00  0.00    +0.075 A 
ATOM      5  C   UNL     1      32.087 -11.145 -22.579  0.00  0.00    +0.158 A 
ATOM      6  C   UNL     1      31.867 -11.424 -21.248  0.00  0.00    +0.139 A 
ENDROOT
BRANCH   3   7
ATOM      7  C   UNL     1      33.513 -14.594 -22.709  0.00  0.00    +0.008 C 
ATOM      8  C   UNL     1      34.675 -16.574 -21.958  0.00  0.00    +0.045 C 
ATOM      9  C   UNL     1      34.106 -15.330 -21.684  0.00  0.00    +0.015 C 
ATOM     10  C   UNL     1      33.488 -15.101 -24.008  0.00  0.00    +0.001 C 
ATOM     11  C   UNL     1      34.651 -17.081 -23.256  0.00  0.00    +0.014 C 
ATOM     12  C   UNL     1      34.057 -16.345 -24.282  0.00  0.00    +0.001 C 
BRANCH   8  13
ATOM     13  N   UNL     1      35.276 -17.319 -20.921  0.00  0.00    -0.329 N 
ATOM     14  H   UNL     1      35.340 -16.913 -20.028  0.00  0.00    +0.147 HD
BRANCH  13  15
ATOM     15  C   UNL     1      35.796 -18.637 -21.113  0.00  0.00    +0.114 C 
BRANCH  15  16
ATOM     16  C   UNL     1      34.941 -19.649 -20.402  0.00  0.00    -0.003 C 
ATOM     17  C   UNL     1      35.534 -20.615 -19.587  0.00  0.00    -0.003 C 
ATOM     18  C   UNL     1      33.555 -19.623 -20.555  0.00  0.00    -0.003 C 
ATOM     19  C   UNL     1      34.741 -21.553 -18.928  0.00  0.00    -0.000 C 
ATOM     20  C   UNL     1      32.761 -20.561 -19.895  0.00  0.00    -0.000 C 
ATOM     21  C   UNL     1      33.355 -21.527 -19.082  0.00  0.00    -0.000 C 
ENDBRANCH  15  16
ENDBRANCH  13  15
ENDBRANCH   8  13
ENDBRANCH   3   7
BRANCH   6  23
ATOM     22  O   UNL     1      31.686 -10.437 -19.073  0.00  0.00    -0.244 OA
ATOM     23  C   UNL     1      31.282 -10.602 -20.238  0.00  0.00    +0.347 C 
BRANCH  23  24
ATOM     24  O   UNL     1      30.152  -9.951 -20.665  0.00  0.00    -0.477 OA
ATOM     25  H   UNL     1      29.404 -10.442 -20.942  0.00  0.00    +0.295 HD
ENDBRANCH  23  24
ENDBRANCH   6  23
BRANCH   5  26
ATOM     26  O   UNL     1      31.749  -9.962 -23.128  0.00  0.00    -0.463 OA
BRANCH  26  27
ATOM     27  C   UNL     1      32.742  -8.933 -23.113  0.00  0.00    +0.314 C 
BRANCH  27  29
ATOM     28  O   UNL     1      32.941  -6.993 -21.664  0.00  0.00    -0.246 OA
ATOM     29  C   UNL     1      32.247  -7.760 -22.313  0.00  0.00    +0.359 C 
BRANCH  29  30
ATOM     30  O   UNL     1      30.896  -7.665 -22.408  0.00  0.00    -0.478 OA
ATOM     31  H   UNL     1      30.439  -8.145 -23.070  0.00  0.00    +0.295 HD
ENDBRANCH  29  30
ENDBRANCH  27  29
ENDBRANCH  26  27
ENDBRANCH   5  26
TORSDOF 10
ENDMDL
MODEL 4
REMARK VINA RESULT:     -11.4      9.610     13.199
REMARK  Name = 17758920
REMARK  10 active torsions:
REMARK  status: ('A' for Active; 'I' for Inactive)
REMARK    1  A    between atoms: C_3  and  C_7
REMARK    2  A    between atoms: C_5  and  O_26
REMARK    3  A    between atoms: C_6  and  C_23
REMARK    4  A    between atoms: C_8  and  N_13
REMARK    5  A    between atoms: N_13  and  C_15
REMARK    6  A    between atoms: C_15  and  C_16
REMARK    7  A    between atoms: C_23  and  O_24
REMARK    8  A    between atoms: O_26  and  C_27
REMARK    9  A    between atoms: C_27  and  C_29
REMARK   10  A    between atoms: C_29  and  O_30
REMARK                            x       y       z     vdW  Elec       q    Type
REMARK                         _______ _______ _______ _____ _____    ______ ____
ROOT
ATOM      1 BR   UNL     1      31.744 -13.779 -19.846  0.00  0.00    -0.045 Br
ATOM      2  S   UNL     1      33.124 -11.801 -23.545  0.00  0.00    -0.077 S 
ATOM      3  C   UNL     1      32.924 -13.075 -22.418  0.00  0.00    +0.039 A 
ATOM      4  C   UNL     1      32.193 -12.683 -21.319  0.00  0.00    +0.075 A 
ATOM      5  C   UNL     1      31.791 -11.318 -21.402  0.00  0.00    +0.158 A 
ATOM      6  C   UNL     1      32.230 -10.719 -22.562  0.00  0.00    +0.139 A 
ENDROOT
BRANCH   3   7
ATOM      7  C   UNL     1      33.513 -14.354 -22.730  0.00  0.00    +0.008 C 
ATOM      8  C   UNL     1      34.625 -16.377 -22.015  0.00  0.00    +0.045 C 
ATOM      9  C   UNL     1      34.057 -15.139 -21.713  0.00  0.00    +0.015 C 
ATOM     10  C   UNL     1      33.536 -14.808 -24.048  0.00  0.00    +0.001 C 
ATOM     11  C   UNL     1      34.648 -16.830 -23.333  0.00  0.00    +0.014 C 
ATOM     12  C   UNL     1      34.104 -16.046 -24.351  0.00  0.00    +0.001 C 
BRANCH   8  13
ATOM     13  N   UNL     1      35.175 -17.170 -20.987  0.00  0.00    -0.329 N 
ATOM     14  H   UNL     1      35.166 -16.820 -20.067  0.00  0.00    +0.147 HD
BRANCH  13  15
ATOM     15  C   UNL     1      35.747 -18.460 -21.222  0.00  0.00    +0.114 C 
BRANCH  15  16
ATOM     16  C   UNL     1      34.979 -19.520 -20.483  0.00  0.00    -0.003 C 
ATOM     17  C   UNL     1      35.657 -20.454 -19.699  0.00  0.00    -0.003 C 
ATOM     18  C   UNL     1      33.589 -19.570 -20.579  0.00  0.00    -0.003 C 
ATOM     19  C   UNL     1      34.945 -21.437 -19.013  0.00  0.00    -0.000 C 
ATOM     20  C   UNL     1      32.876 -20.553 -19.893  0.00  0.00    -0.000 C 
ATOM     21  C   UNL     1      33.554 -21.487 -19.110  0.00  0.00    -0.000 C 
ENDBRANCH  15  16
ENDBRANCH  13  15
ENDBRANCH   8  13
ENDBRANCH   3   7
BRANCH   6  23
ATOM     22  O   UNL     1      32.915  -8.572 -23.376  0.00  0.00    -0.244 OA
ATOM     23  C   UNL     1      32.039  -9.378 -23.014  0.00  0.00    +0.347 C 
BRANCH  23  24
ATOM     24  O   UNL     1      30.720  -9.001 -23.029  0.00  0.00    -0.477 OA
ATOM     25  H   UNL     1      30.073  -9.543 -22.622  0.00  0.00    +0.295 HD
ENDBRANCH  23  24
ENDBRANCH   6  23
BRANCH   5  26
ATOM     26  O   UNL     1      31.067 -10.652 -20.482  0.00  0.00    -0.463 OA
BRANCH  26  27
ATOM     27  C   UNL     1      31.793  -9.951 -19.469  0.00  0.00    +0.314 C 
BRANCH  27  29
ATOM     28  O   UNL     1      30.791  -7.924 -20.360  0.00  0.00    -0.246 OA
ATOM     29  C   UNL     1      31.638  -8.468 -19.667  0.00  0.00    +0.359 C 
BRANCH  29  30
ATOM     30  O   UNL     1      32.584  -7.800 -18.959  0.00  0.00    -0.478 OA
ATOM     31  H   UNL     1      33.455  -7.729 -19.294  0.00  0.00    +0.295 HD
ENDBRANCH  29  30
ENDBRANCH  27  29
ENDBRANCH  26  27
ENDBRANCH   5  26
TORSDOF 10
ENDMDL
MODEL 5
REMARK VINA RESULT:     -11.1      4.152      6.173
REMARK  Name = 17758920
REMARK  10 active torsions:
REMARK  status: ('A' for Active; 'I' for Inactive)
REMARK    1  A    between atoms: C_3  and  C_7
REMARK    2  A    between atoms: C_5  and  O_26
REMARK    3  A    between atoms: C_6  and  C_23
REMARK    4  A    between atoms: C_8  and  N_13
REMARK    5  A    between atoms: N_13  and  C_15
REMARK    6  A    between atoms: C_15  and  C_16
REMARK    7  A    between atoms: C_23  and  O_24
REMARK    8  A    between atoms: O_26  and  C_27
REMARK    9  A    between atoms: C_27  and  C_29
REMARK   10  A    between atoms: C_29  and  O_30
REMARK                            x       y       z     vdW  Elec       q    Type
REMARK                         _______ _______ _______ _____ _____    ______ ____
ROOT
ATOM      1 BR   UNL     1      31.784 -22.012 -17.750  0.00  0.00    -0.045 Br
ATOM      2  S   UNL     1      32.669 -23.838 -13.828  0.00  0.00    -0.077 S 
ATOM      3  C   UNL     1      32.996 -23.018 -15.295  0.00  0.00    +0.039 A 
ATOM      4  C   UNL     1      31.863 -22.860 -16.063  0.00  0.00    +0.075 A 
ATOM      5  C   UNL     1      30.711 -23.421 -15.439  0.00  0.00    +0.158 A 
ATOM      6  C   UNL     1      31.007 -23.985 -14.218  0.00  0.00    +0.139 A 
ENDROOT
BRANCH   3   7
ATOM      7  C   UNL     1      34.353 -22.602 -15.552  0.00  0.00    +0.008 C 
ATOM      8  C   UNL     1      35.985 -21.557 -16.995  0.00  0.00    +0.045 C 
ATOM      9  C   UNL     1      34.672 -21.960 -16.748  0.00  0.00    +0.015 C 
ATOM     10  C   UNL     1      35.346 -22.841 -14.602  0.00  0.00    +0.001 C 
ATOM     11  C   UNL     1      36.977 -21.796 -16.045  0.00  0.00    +0.014 C 
ATOM     12  C   UNL     1      36.659 -22.438 -14.849  0.00  0.00    +0.001 C 
BRANCH   8  13
ATOM     13  N   UNL     1      36.308 -20.907 -18.204  0.00  0.00    -0.329 N 
ATOM     14  H   UNL     1      36.971 -20.181 -18.186  0.00  0.00    +0.147 HD
BRANCH  13  15
ATOM     15  C   UNL     1      35.711 -21.257 -19.457  0.00  0.00    +0.114 C 
BRANCH  15  16
ATOM     16  C   UNL     1      35.422 -20.023 -20.265  0.00  0.00    -0.003 C 
ATOM     17  C   UNL     1      36.449 -19.123 -20.558  0.00  0.00    -0.003 C 
ATOM     18  C   UNL     1      34.128 -19.776 -20.724  0.00  0.00    -0.003 C 
ATOM     19  C   UNL     1      36.180 -17.979 -21.308  0.00  0.00    -0.000 C 
ATOM     20  C   UNL     1      33.860 -18.631 -21.475  0.00  0.00    -0.000 C 
ATOM     21  C   UNL     1      34.886 -17.733 -21.767  0.00  0.00    -0.000 C 
ENDBRANCH  15  16
ENDBRANCH  13  15
ENDBRANCH   8  13
ENDBRANCH   3   7
BRANCH   6  23
ATOM     22  O   UNL     1      30.058 -24.444 -12.066  0.00  0.00    -0.244 OA
ATOM     23  C   UNL     1      30.140 -24.641 -13.292  0.00  0.00    +0.347 C 
BRANCH  23  24
ATOM     24  O   UNL     1      29.335 -25.581 -13.886  0.00  0.00    -0.477 OA
ATOM     25  H   UNL     1      29.711 -26.244 -14.431  0.00  0.00    +0.295 HD
ENDBRANCH  23  24
ENDBRANCH   6  23
BRANCH   5  26
ATOM     26  O   UNL     1      29.463 -23.421 -15.944  0.00  0.00    -0.463 OA
BRANCH  26  27
ATOM     27  C   UNL     1      28.647 -22.282 -15.654  0.00  0.00    +0.314 C 
BRANCH  27  29
ATOM     28  O   UNL     1      26.790 -21.252 -16.836  0.00  0.00    -0.246 OA
ATOM     29  C   UNL     1      27.491 -22.229 -16.614  0.00  0.00    +0.359 C 
BRANCH  29  30
ATOM     30  O   UNL     1      27.324 -23.435 -17.213  0.00  0.00    -0.478 OA
ATOM     31  H   UNL     1      27.540 -23.542 -18.118  0.00  0.00    +0.295 HD
ENDBRANCH  29  30
ENDBRANCH  27  29
ENDBRANCH  26  27
ENDBRANCH   5  26
TORSDOF 10
ENDMDL
MODEL 6
REMARK VINA RESULT:     -10.9      1.880      2.992
REMARK  Name = 17758920
REMARK  10 active torsions:
REMARK  status: ('A' for Active; 'I' for Inactive)
REMARK    1  A    between atoms: C_3  and  C_7
REMARK    2  A    between atoms: C_5  and  O_26
REMARK    3  A    between atoms: C_6  and  C_23
REMARK    4  A    between atoms: C_8  and  N_13
REMARK    5  A    between atoms: N_13  and  C_15
REMARK    6  A    between atoms: C_15  and  C_16
REMARK    7  A    between atoms: C_23  and  O_24
REMARK    8  A    between atoms: O_26  and  C_27
REMARK    9  A    between atoms: C_27  and  C_29
REMARK   10  A    between atoms: C_29  and  O_30
REMARK                            x       y       z     vdW  Elec       q    Type
REMARK                         _______ _______ _______ _____ _____    ______ ____
ROOT
ATOM      1 BR   UNL     1      36.719 -21.967 -16.368  0.00  0.00    -0.045 Br
ATOM      2  S   UNL     1      32.469 -23.074 -15.910  0.00  0.00    -0.077 S 
ATOM      3  C   UNL     1      33.844 -22.371 -16.649  0.00  0.00    +0.039 A 
ATOM      4  C   UNL     1      34.989 -22.575 -15.910  0.00  0.00    +0.075 A 
ATOM      5  C   UNL     1      34.733 -23.318 -14.721  0.00  0.00    +0.158 A 
ATOM      6  C   UNL     1      33.403 -23.654 -14.597  0.00  0.00    +0.139 A 
ENDROOT
BRANCH   3   7
ATOM      7  C   UNL     1      33.662 -21.678 -17.901  0.00  0.00    +0.008 C 
ATOM      8  C   UNL     1      34.594 -20.574 -19.838  0.00  0.00    +0.045 C 
ATOM      9  C   UNL     1      34.771 -21.242 -18.625  0.00  0.00    +0.015 C 
ATOM     10  C   UNL     1      32.376 -21.448 -18.389  0.00  0.00    +0.001 C 
ATOM     11  C   UNL     1      33.309 -20.344 -20.325  0.00  0.00    +0.014 C 
ATOM     12  C   UNL     1      32.199 -20.780 -19.601  0.00  0.00    +0.001 C 
BRANCH   8  13
ATOM     13  N   UNL     1      35.716 -20.133 -20.570  0.00  0.00    -0.329 N 
ATOM     14  H   UNL     1      36.276 -20.804 -21.022  0.00  0.00    +0.147 HD
BRANCH  13  15
ATOM     15  C   UNL     1      36.075 -18.753 -20.684  0.00  0.00    +0.114 C 
BRANCH  15  16
ATOM     16  C   UNL     1      35.307 -18.099 -21.798  0.00  0.00    -0.003 C 
ATOM     17  C   UNL     1      35.098 -16.719 -21.785  0.00  0.00    -0.003 C 
ATOM     18  C   UNL     1      34.803 -18.870 -22.845  0.00  0.00    -0.003 C 
ATOM     19  C   UNL     1      34.386 -16.112 -22.818  0.00  0.00    -0.000 C 
ATOM     20  C   UNL     1      34.090 -18.262 -23.879  0.00  0.00    -0.000 C 
ATOM     21  C   UNL     1      33.881 -16.883 -23.866  0.00  0.00    -0.000 C 
ENDBRANCH  15  16
ENDBRANCH  13  15
ENDBRANCH   8  13
ENDBRANCH   3   7
BRANCH   6  23
ATOM     22  O   UNL     1      31.702 -25.050 -13.650  0.00  0.00    -0.244 OA
ATOM     23  C   UNL     1      32.750 -24.386 -13.559  0.00  0.00    +0.347 C 
BRANCH  23  24
ATOM     24  O   UNL     1      33.404 -24.308 -12.355  0.00  0.00    -0.477 OA
ATOM     25  H   UNL     1      33.912 -25.034 -12.050  0.00  0.00    +0.295 HD
ENDBRANCH  23  24
ENDBRANCH   6  23
BRANCH   5  26
ATOM     26  O   UNL     1      35.651 -23.674 -13.802  0.00  0.00    -0.463 OA
BRANCH  26  27
ATOM     27  C   UNL     1      36.394 -24.868 -14.057  0.00  0.00    +0.314 C 
BRANCH  27  29
ATOM     28  O   UNL     1      38.126 -25.724 -12.582  0.00  0.00    -0.246 OA
ATOM     29  C   UNL     1      36.964 -25.397 -12.769  0.00  0.00    +0.359 C 
BRANCH  29  30
ATOM     30  O   UNL     1      35.994 -25.465 -11.822  0.00  0.00    -0.478 OA
ATOM     31  H   UNL     1      36.083 -24.983 -11.025  0.00  0.00    +0.295 HD
ENDBRANCH  29  30
ENDBRANCH  27  29
ENDBRANCH  26  27
ENDBRANCH   5  26
TORSDOF 10
ENDMDL
MODEL 7
REMARK VINA RESULT:     -10.5      1.301      1.992
REMARK  Name = 17758920
REMARK  10 active torsions:
REMARK  status: ('A' for Active; 'I' for Inactive)
REMARK    1  A    between atoms: C_3  and  C_7
REMARK    2  A    between atoms: C_5  and  O_26
REMARK    3  A    between atoms: C_6  and  C_23
REMARK    4  A    between atoms: C_8  and  N_13
REMARK    5  A    between atoms: N_13  and  C_15
REMARK    6  A    between atoms: C_15  and  C_16
REMARK    7  A    between atoms: C_23  and  O_24
REMARK    8  A    between atoms: O_26  and  C_27
REMARK    9  A    between atoms: C_27  and  C_29
REMARK   10  A    between atoms: C_29  and  O_30
REMARK                            x       y       z     vdW  Elec       q    Type
REMARK                         _______ _______ _______ _____ _____    ______ ____
ROOT
ATOM      1 BR   UNL     1      37.065 -21.295 -15.718  0.00  0.00    -0.045 Br
ATOM      2  S   UNL     1      34.934 -25.078 -14.916  0.00  0.00    -0.077 S 
ATOM      3  C   UNL     1      35.175 -23.510 -15.560  0.00  0.00    +0.039 A 
ATOM      4  C   UNL     1      36.404 -22.992 -15.215  0.00  0.00    +0.075 A 
ATOM      5  C   UNL     1      37.158 -23.894 -14.410  0.00  0.00    +0.158 A 
ATOM      6  C   UNL     1      36.477 -25.067 -14.171  0.00  0.00    +0.139 A 
ENDROOT
BRANCH   3   7
ATOM      7  C   UNL     1      34.118 -22.933 -16.355  0.00  0.00    +0.008 C 
ATOM      8  C   UNL     1      33.398 -21.707 -18.308  0.00  0.00    +0.045 C 
ATOM      9  C   UNL     1      34.421 -22.262 -17.539  0.00  0.00    +0.015 C 
ATOM     10  C   UNL     1      32.792 -23.050 -15.940  0.00  0.00    +0.001 C 
ATOM     11  C   UNL     1      32.073 -21.823 -17.893  0.00  0.00    +0.014 C 
ATOM     12  C   UNL     1      31.768 -22.494 -16.708  0.00  0.00    +0.001 C 
BRANCH   8  13
ATOM     13  N   UNL     1      33.705 -21.028 -19.506  0.00  0.00    -0.329 N 
ATOM     14  H   UNL     1      32.978 -20.843 -20.141  0.00  0.00    +0.147 HD
BRANCH  13  15
ATOM     15  C   UNL     1      35.028 -20.596 -19.837  0.00  0.00    +0.114 C 
BRANCH  15  16
ATOM     16  C   UNL     1      34.985 -19.528 -20.894  0.00  0.00    -0.003 C 
ATOM     17  C   UNL     1      33.916 -19.475 -21.789  0.00  0.00    -0.003 C 
ATOM     18  C   UNL     1      36.013 -18.589 -20.979  0.00  0.00    -0.003 C 
ATOM     19  C   UNL     1      33.876 -18.484 -22.769  0.00  0.00    -0.000 C 
ATOM     20  C   UNL     1      35.973 -17.597 -21.960  0.00  0.00    -0.000 C 
ATOM     21  C   UNL     1      34.904 -17.545 -22.855  0.00  0.00    -0.000 C 
ENDBRANCH  15  16
ENDBRANCH  13  15
ENDBRANCH   8  13
ENDBRANCH   3   7
BRANCH   6  23
ATOM     22  O   UNL     1      36.608 -26.469 -12.232  0.00  0.00    -0.244 OA
ATOM     23  C   UNL     1      36.883 -26.210 -13.418  0.00  0.00    +0.347 C 
BRANCH  23  24
ATOM     24  O   UNL     1      37.660 -27.080 -14.142  0.00  0.00    -0.477 OA
ATOM     25  H   UNL     1      38.389 -26.758 -14.635  0.00  0.00    +0.295 HD
ENDBRANCH  23  24
ENDBRANCH   6  23
BRANCH   5  26
ATOM     26  O   UNL     1      38.392 -23.671 -13.921  0.00  0.00    -0.463 OA
BRANCH  26  27
ATOM     27  C   UNL     1      38.581 -23.877 -12.518  0.00  0.00    +0.314 C 
BRANCH  27  29
ATOM     28  O   UNL     1      37.329 -21.882 -11.919  0.00  0.00    -0.246 OA
ATOM     29  C   UNL     1      37.577 -23.066 -11.746  0.00  0.00    +0.359 C 
BRANCH  29  30
ATOM     30  O   UNL     1      36.971 -23.840 -10.810  0.00  0.00    -0.478 OA
ATOM     31  H   UNL     1      37.432 -24.559 -10.428  0.00  0.00    +0.295 HD
ENDBRANCH  29  30
ENDBRANCH  27  29
ENDBRANCH  26  27
ENDBRANCH   5  26
TORSDOF 10
ENDMDL
MODEL 8
REMARK VINA RESULT:     -10.3      4.763      7.290
REMARK  Name = 17758920
REMARK  10 active torsions:
REMARK  status: ('A' for Active; 'I' for Inactive)
REMARK    1  A    between atoms: C_3  and  C_7
REMARK    2  A    between atoms: C_5  and  O_26
REMARK    3  A    between atoms: C_6  and  C_23
REMARK    4  A    between atoms: C_8  and  N_13
REMARK    5  A    between atoms: N_13  and  C_15
REMARK    6  A    between atoms: C_15  and  C_16
REMARK    7  A    between atoms: C_23  and  O_24
REMARK    8  A    between atoms: O_26  and  C_27
REMARK    9  A    between atoms: C_27  and  C_29
REMARK   10  A    between atoms: C_29  and  O_30
REMARK                            x       y       z     vdW  Elec       q    Type
REMARK                         _______ _______ _______ _____ _____    ______ ____
ROOT
ATOM      1 BR   UNL     1      36.884 -19.655 -20.584  0.00  0.00    -0.045 Br
ATOM      2  S   UNL     1      32.511 -20.214 -20.338  0.00  0.00    -0.077 S 
ATOM      3  C   UNL     1      33.988 -19.571 -20.918  0.00  0.00    +0.039 A 
ATOM      4  C   UNL     1      35.076 -20.094 -20.255  0.00  0.00    +0.075 A 
ATOM      5  C   UNL     1      34.691 -21.035 -19.256  0.00  0.00    +0.158 A 
ATOM      6  C   UNL     1      33.325 -21.196 -19.195  0.00  0.00    +0.139 A 
ENDROOT
BRANCH   3   7
ATOM      7  C   UNL     1      33.934 -18.601 -21.985  0.00  0.00    +0.008 C 
ATOM      8  C   UNL     1      34.204 -16.332 -22.768  0.00  0.00    +0.045 C 
ATOM      9  C   UNL     1      34.255 -17.268 -21.734  0.00  0.00    +0.015 C 
ATOM     10  C   UNL     1      33.562 -19.000 -23.269  0.00  0.00    +0.001 C 
ATOM     11  C   UNL     1      33.832 -16.730 -24.051  0.00  0.00    +0.014 C 
ATOM     12  C   UNL     1      33.511 -18.063 -24.303  0.00  0.00    +0.001 C 
BRANCH   8  13
ATOM     13  N   UNL     1      34.529 -14.983 -22.514  0.00  0.00    -0.329 N 
ATOM     14  H   UNL     1      35.139 -14.778 -21.770  0.00  0.00    +0.147 HD
BRANCH  13  15
ATOM     15  C   UNL     1      34.010 -13.899 -23.290  0.00  0.00    +0.114 C 
BRANCH  15  16
ATOM     16  C   UNL     1      33.091 -13.048 -22.458  0.00  0.00    -0.003 C 
ATOM     17  C   UNL     1      32.624 -11.832 -22.958  0.00  0.00    -0.003 C 
ATOM     18  C   UNL     1      32.705 -13.474 -21.187  0.00  0.00    -0.003 C 
ATOM     19  C   UNL     1      31.772 -11.043 -22.186  0.00  0.00    -0.000 C 
ATOM     20  C   UNL     1      31.853 -12.684 -20.415  0.00  0.00    -0.000 C 
ATOM     21  C   UNL     1      31.386 -11.468 -20.915  0.00  0.00    -0.000 C 
ENDBRANCH  15  16
ENDBRANCH  13  15
ENDBRANCH   8  13
ENDBRANCH   3   7
BRANCH   6  23
ATOM     22  O   UNL     1      31.457 -21.772 -17.808  0.00  0.00    -0.244 OA
ATOM     23  C   UNL     1      32.551 -22.037 -18.338  0.00  0.00    +0.347 C 
BRANCH  23  24
ATOM     24  O   UNL     1      33.137 -23.258 -18.116  0.00  0.00    -0.477 OA
ATOM     25  H   UNL     1      33.494 -23.461 -17.274  0.00  0.00    +0.295 HD
ENDBRANCH  23  24
ENDBRANCH   6  23
BRANCH   5  26
ATOM     26  O   UNL     1      35.528 -21.712 -18.447  0.00  0.00    -0.463 OA
BRANCH  26  27
ATOM     27  C   UNL     1      36.111 -20.985 -17.362  0.00  0.00    +0.314 C 
BRANCH  27  29
ATOM     28  O   UNL     1      37.248 -21.828 -15.387  0.00  0.00    -0.246 OA
ATOM     29  C   UNL     1      36.335 -21.906 -16.195  0.00  0.00    +0.359 C 
BRANCH  29  30
ATOM     30  O   UNL     1      35.367 -22.857 -16.157  0.00  0.00    -0.478 OA
ATOM     31  H   UNL     1      35.033 -23.217 -16.955  0.00  0.00    +0.295 HD
ENDBRANCH  29  30
ENDBRANCH  27  29
ENDBRANCH  26  27
ENDBRANCH   5  26
TORSDOF 10
ENDMDL
MODEL 9
REMARK VINA RESULT:     -10.2      4.958      8.232
REMARK  Name = 17758920
REMARK  10 active torsions:
REMARK  status: ('A' for Active; 'I' for Inactive)
REMARK    1  A    between atoms: C_3  and  C_7
REMARK    2  A    between atoms: C_5  and  O_26
REMARK    3  A    between atoms: C_6  and  C_23
REMARK    4  A    between atoms: C_8  and  N_13
REMARK    5  A    between atoms: N_13  and  C_15
REMARK    6  A    between atoms: C_15  and  C_16
REMARK    7  A    between atoms: C_23  and  O_24
REMARK    8  A    between atoms: O_26  and  C_27
REMARK    9  A    between atoms: C_27  and  C_29
REMARK   10  A    between atoms: C_29  and  O_30
REMARK                            x       y       z     vdW  Elec       q    Type
REMARK                         _______ _______ _______ _____ _____    ______ ____
ROOT
ATOM      1 BR   UNL     1      32.599 -22.361 -17.871  0.00  0.00    -0.045 Br
ATOM      2  S   UNL     1      32.952 -23.789 -13.707  0.00  0.00    -0.077 S 
ATOM      3  C   UNL     1      33.485 -23.174 -15.214  0.00  0.00    +0.039 A 
ATOM      4  C   UNL     1      32.446 -23.012 -16.103  0.00  0.00    +0.075 A 
ATOM      5  C   UNL     1      31.195 -23.398 -15.540  0.00  0.00    +0.158 A 
ATOM      6  C   UNL     1      31.326 -23.840 -14.242  0.00  0.00    +0.139 A 
ENDROOT
BRANCH   3   7
ATOM      7  C   UNL     1      34.893 -22.906 -15.377  0.00  0.00    +0.008 C 
ATOM      8  C   UNL     1      37.197 -23.591 -15.134  0.00  0.00    +0.045 C 
ATOM      9  C   UNL     1      35.836 -23.851 -14.974  0.00  0.00    +0.015 C 
ATOM     10  C   UNL     1      35.312 -21.701 -15.942  0.00  0.00    +0.001 C 
ATOM     11  C   UNL     1      37.615 -22.387 -15.698  0.00  0.00    +0.014 C 
ATOM     12  C   UNL     1      36.673 -21.441 -16.102  0.00  0.00    +0.001 C 
BRANCH   8  13
ATOM     13  N   UNL     1      38.151 -24.547 -14.726  0.00  0.00    -0.329 N 
ATOM     14  H   UNL     1      38.479 -25.196 -15.388  0.00  0.00    +0.147 HD
BRANCH  13  15
ATOM     15  C   UNL     1      38.660 -24.615 -13.391  0.00  0.00    +0.114 C 
BRANCH  15  16
ATOM     16  C   UNL     1      37.588 -24.257 -12.399  0.00  0.00    -0.003 C 
ATOM     17  C   UNL     1      36.713 -25.239 -11.932  0.00  0.00    -0.003 C 
ATOM     18  C   UNL     1      37.468 -22.944 -11.945  0.00  0.00    -0.003 C 
ATOM     19  C   UNL     1      35.720 -24.907 -11.012  0.00  0.00    -0.000 C 
ATOM     20  C   UNL     1      36.474 -22.611 -11.024  0.00  0.00    -0.000 C 
ATOM     21  C   UNL     1      35.600 -23.593 -10.558  0.00  0.00    -0.000 C 
ENDBRANCH  15  16
ENDBRANCH  13  15
ENDBRANCH   8  13
ENDBRANCH   3   7
BRANCH   6  23
ATOM     22  O   UNL     1      30.113 -23.925 -12.178  0.00  0.00    -0.244 OA
ATOM     23  C   UNL     1      30.321 -24.310 -13.343  0.00  0.00    +0.347 C 
BRANCH  23  24
ATOM     24  O   UNL     1      29.533 -25.293 -13.886  0.00  0.00    -0.477 OA
ATOM     25  H   UNL     1      29.038 -25.859 -13.328  0.00  0.00    +0.295 HD
ENDBRANCH  23  24
ENDBRANCH   6  23
BRANCH   5  26
ATOM     26  O   UNL     1      30.002 -23.352 -16.164  0.00  0.00    -0.463 OA
BRANCH  26  27
ATOM     27  C   UNL     1      29.049 -22.407 -15.671  0.00  0.00    +0.314 C 
BRANCH  27  29
ATOM     28  O   UNL     1      27.308 -23.531 -16.941  0.00  0.00    -0.246 OA
ATOM     29  C   UNL     1      27.776 -22.507 -16.466  0.00  0.00    +0.359 C 
BRANCH  29  30
ATOM     30  O   UNL     1      27.204 -21.282 -16.588  0.00  0.00    -0.478 OA
ATOM     31  H   UNL     1      27.434 -20.728 -17.307  0.00  0.00    +0.295 HD
ENDBRANCH  29  30
ENDBRANCH  27  29
ENDBRANCH  26  27
ENDBRANCH   5  26
TORSDOF 10
ENDMDL
