MODEL 1
REMARK VINA RESULT:     -11.7      0.000      0.000
REMARK  Name = 5326928
REMARK  3 active torsions:
REMARK  status: ('A' for Active; 'I' for Inactive)
REMARK    1  A    between atoms: C_7  and  C_21
REMARK    2  A    between atoms: C_21  and  C_22
REMARK    3  A    between atoms: C_22  and  C_23
REMARK                            x       y       z     vdW  Elec       q    Type
REMARK                         _______ _______ _______ _____ _____    ______ ____
ROOT
ATOM      1  O   UNL     1      34.128 -23.619 -11.707  0.00  0.00    -0.209 OA
ATOM      2  N   UNL     1      34.958 -23.438 -15.621  0.00  0.00    -0.275 N 
ATOM      3  N   UNL     1      29.669 -22.665 -14.317  0.00  0.00    -0.315 N 
ATOM      4  N   UNL     1      30.162 -22.570 -16.481  0.00  0.00    -0.316 N 
ATOM      5  N   UNL     1      35.689 -23.743 -13.377  0.00  0.00    -0.302 NA
ATOM      6  N   UNL     1      37.174 -23.841 -15.188  0.00  0.00    -0.320 N 
ATOM      7  C   UNL     1      32.627 -23.004 -16.192  0.00  0.00    +0.007 C 
ATOM      8  C   UNL     1      33.626 -23.248 -15.238  0.00  0.00    +0.060 C 
ATOM      9  C   UNL     1      31.304 -22.819 -15.756  0.00  0.00    +0.056 C 
ATOM     10  C   UNL     1      31.022 -22.883 -14.394  0.00  0.00    +0.060 C 
ATOM     11  C   UNL     1      33.301 -23.305 -13.873  0.00  0.00    +0.109 C 
ATOM     12  C   UNL     1      31.988 -23.125 -13.417  0.00  0.00    +0.029 C 
ATOM     13  C   UNL     1      34.402 -23.567 -12.902  0.00  0.00    +0.208 C 
ATOM     14  C   UNL     1      29.202 -22.483 -15.589  0.00  0.00    +0.182 C 
ATOM     15  C   UNL     1      35.916 -23.675 -14.662  0.00  0.00    +0.248 C 
ATOM     16  H   UNL     1      35.208 -23.403 -16.573  0.00  0.00    +0.156 HD
ATOM     17  H   UNL     1      29.132 -22.643 -13.493  0.00  0.00    +0.148 HD
ATOM     18  H   UNL     1      30.081 -22.476 -17.458  0.00  0.00    +0.148 HD
ATOM     19  H   UNL     1      37.311 -23.785 -16.161  0.00  0.00    +0.146 HD
ATOM     20  H   UNL     1      37.937 -24.017 -14.592  0.00  0.00    +0.146 HD
ENDROOT
BRANCH   7  21
ATOM     21  C   UNL     1      32.965 -22.941 -17.649  0.00  0.00    +0.034 C 
BRANCH  21  22
ATOM     22  C   UNL     1      32.430 -21.686 -18.360  0.00  0.00    +0.031 C 
BRANCH  22  23
ATOM     23  C   UNL     1      33.474 -20.980 -19.191  0.00  0.00    -0.022 C 
ATOM     24  C   UNL     1      34.816 -21.240 -18.960  0.00  0.00    -0.004 C 
ATOM     25  C   UNL     1      33.073 -20.084 -20.169  0.00  0.00    -0.004 C 
ATOM     26  C   UNL     1      35.781 -20.589 -19.727  0.00  0.00    -0.000 C 
ATOM     27  C   UNL     1      34.038 -19.432 -20.937  0.00  0.00    -0.000 C 
ATOM     28  C   UNL     1      35.392 -19.684 -20.716  0.00  0.00    -0.000 C 
ENDBRANCH  22  23
ENDBRANCH  21  22
ENDBRANCH   7  21
TORSDOF 3
ENDMDL
MODEL 2
REMARK VINA RESULT:     -11.6      1.651      2.463
REMARK  Name = 5326928
REMARK  3 active torsions:
REMARK  status: ('A' for Active; 'I' for Inactive)
REMARK    1  A    between atoms: C_7  and  C_21
REMARK    2  A    between atoms: C_21  and  C_22
REMARK    3  A    between atoms: C_22  and  C_23
REMARK                            x       y       z     vdW  Elec       q    Type
REMARK                         _______ _______ _______ _____ _____    ______ ____
ROOT
ATOM      1  O   UNL     1      36.450 -25.687 -11.508  0.00  0.00    -0.209 OA
ATOM      2  N   UNL     1      37.024 -23.897 -15.044  0.00  0.00    -0.275 N 
ATOM      3  N   UNL     1      32.024 -23.198 -12.857  0.00  0.00    -0.315 N 
ATOM      4  N   UNL     1      32.375 -22.215 -14.818  0.00  0.00    -0.316 N 
ATOM      5  N   UNL     1      37.853 -25.235 -13.260  0.00  0.00    -0.302 NA
ATOM      6  N   UNL     1      39.174 -24.691 -15.116  0.00  0.00    -0.320 N 
ATOM      7  C   UNL     1      34.755 -23.001 -15.066  0.00  0.00    +0.007 C 
ATOM      8  C   UNL     1      35.768 -23.749 -14.446  0.00  0.00    +0.060 C 
ATOM      9  C   UNL     1      33.511 -22.882 -14.424  0.00  0.00    +0.056 C 
ATOM     10  C   UNL     1      33.317 -23.507 -13.195  0.00  0.00    +0.060 C 
ATOM     11  C   UNL     1      35.534 -24.364 -13.206  0.00  0.00    +0.109 C 
ATOM     12  C   UNL     1      34.299 -24.259 -12.549  0.00  0.00    +0.029 C 
ATOM     13  C   UNL     1      36.645 -25.146 -12.592  0.00  0.00    +0.208 C 
ATOM     14  C   UNL     1      31.504 -22.424 -13.857  0.00  0.00    +0.182 C 
ATOM     15  C   UNL     1      37.997 -24.635 -14.411  0.00  0.00    +0.248 C 
ATOM     16  H   UNL     1      37.209 -23.474 -15.913  0.00  0.00    +0.156 HD
ATOM     17  H   UNL     1      31.555 -23.481 -12.039  0.00  0.00    +0.148 HD
ATOM     18  H   UNL     1      32.242 -21.693 -15.643  0.00  0.00    +0.148 HD
ATOM     19  H   UNL     1      39.251 -24.228 -15.982  0.00  0.00    +0.146 HD
ATOM     20  H   UNL     1      39.940 -25.193 -14.758  0.00  0.00    +0.146 HD
ENDROOT
BRANCH   7  21
ATOM     21  C   UNL     1      34.998 -22.342 -16.388  0.00  0.00    +0.034 C 
BRANCH  21  22
ATOM     22  C   UNL     1      33.936 -22.672 -17.453  0.00  0.00    +0.031 C 
BRANCH  22  23
ATOM     23  C   UNL     1      33.873 -21.655 -18.566  0.00  0.00    -0.022 C 
ATOM     24  C   UNL     1      32.638 -21.199 -19.001  0.00  0.00    -0.004 C 
ATOM     25  C   UNL     1      35.050 -21.195 -19.135  0.00  0.00    -0.004 C 
ATOM     26  C   UNL     1      32.579 -20.259 -20.030  0.00  0.00    -0.000 C 
ATOM     27  C   UNL     1      34.992 -20.255 -20.164  0.00  0.00    -0.000 C 
ATOM     28  C   UNL     1      33.757 -19.787 -20.612  0.00  0.00    -0.000 C 
ENDBRANCH  22  23
ENDBRANCH  21  22
ENDBRANCH   7  21
TORSDOF 3
ENDMDL
MODEL 3
REMARK VINA RESULT:     -11.5      1.931      4.459
REMARK  Name = 5326928
REMARK  3 active torsions:
REMARK  status: ('A' for Active; 'I' for Inactive)
REMARK    1  A    between atoms: C_7  and  C_21
REMARK    2  A    between atoms: C_21  and  C_22
REMARK    3  A    between atoms: C_22  and  C_23
REMARK                            x       y       z     vdW  Elec       q    Type
REMARK                         _______ _______ _______ _____ _____    ______ ____
ROOT
ATOM      1  O   UNL     1      28.278 -25.097 -13.664  0.00  0.00    -0.209 OA
ATOM      2  N   UNL     1      29.328 -22.695 -16.692  0.00  0.00    -0.275 N 
ATOM      3  N   UNL     1      33.481 -24.386 -13.504  0.00  0.00    -0.315 N 
ATOM      4  N   UNL     1      34.031 -23.053 -15.194  0.00  0.00    -0.316 N 
ATOM      5  N   UNL     1      27.641 -23.857 -15.481  0.00  0.00    -0.302 NA
ATOM      6  N   UNL     1      27.139 -22.551 -17.361  0.00  0.00    -0.320 N 
ATOM      7  C   UNL     1      31.684 -22.780 -16.068  0.00  0.00    +0.007 C 
ATOM      8  C   UNL     1      30.349 -23.152 -15.852  0.00  0.00    +0.060 C 
ATOM      9  C   UNL     1      32.673 -23.267 -15.196  0.00  0.00    +0.056 C 
ATOM     10  C   UNL     1      32.301 -24.101 -14.145  0.00  0.00    +0.060 C 
ATOM     11  C   UNL     1      30.014 -23.996 -14.781  0.00  0.00    +0.109 C 
ATOM     12  C   UNL     1      30.985 -24.492 -13.899  0.00  0.00    +0.029 C 
ATOM     13  C   UNL     1      28.579 -24.359 -14.598  0.00  0.00    +0.208 C 
ATOM     14  C   UNL     1      34.484 -23.738 -14.169  0.00  0.00    +0.182 C 
ATOM     15  C   UNL     1      28.028 -23.077 -16.455  0.00  0.00    +0.248 C 
ATOM     16  H   UNL     1      29.540 -22.102 -17.449  0.00  0.00    +0.156 HD
ATOM     17  H   UNL     1      33.585 -24.956 -12.709  0.00  0.00    +0.148 HD
ATOM     18  H   UNL     1      34.552 -22.505 -15.825  0.00  0.00    +0.148 HD
ATOM     19  H   UNL     1      27.462 -21.966 -18.083  0.00  0.00    +0.146 HD
ATOM     20  H   UNL     1      26.180 -22.758 -17.286  0.00  0.00    +0.146 HD
ENDROOT
BRANCH   7  21
ATOM     21  C   UNL     1      32.048 -21.881 -17.208  0.00  0.00    +0.034 C 
BRANCH  21  22
ATOM     22  C   UNL     1      33.093 -22.481 -18.166  0.00  0.00    +0.031 C 
BRANCH  22  23
ATOM     23  C   UNL     1      33.765 -21.449 -19.038  0.00  0.00    -0.022 C 
ATOM     24  C   UNL     1      35.149 -21.363 -19.048  0.00  0.00    -0.004 C 
ATOM     25  C   UNL     1      32.986 -20.603 -19.813  0.00  0.00    -0.004 C 
ATOM     26  C   UNL     1      35.769 -20.409 -19.854  0.00  0.00    -0.000 C 
ATOM     27  C   UNL     1      33.607 -19.648 -20.619  0.00  0.00    -0.000 C 
ATOM     28  C   UNL     1      34.998 -19.551 -20.640  0.00  0.00    -0.000 C 
ENDBRANCH  22  23
ENDBRANCH  21  22
ENDBRANCH   7  21
TORSDOF 3
ENDMDL
MODEL 4
REMARK VINA RESULT:     -11.2      1.307      3.991
REMARK  Name = 5326928
REMARK  3 active torsions:
REMARK  status: ('A' for Active; 'I' for Inactive)
REMARK    1  A    between atoms: C_7  and  C_21
REMARK    2  A    between atoms: C_21  and  C_22
REMARK    3  A    between atoms: C_22  and  C_23
REMARK                            x       y       z     vdW  Elec       q    Type
REMARK                         _______ _______ _______ _____ _____    ______ ____
ROOT
ATOM      1  O   UNL     1      30.425 -24.674 -12.474  0.00  0.00    -0.209 OA
ATOM      2  N   UNL     1      30.103 -23.063 -16.127  0.00  0.00    -0.275 N 
ATOM      3  N   UNL     1      35.212 -23.234 -14.091  0.00  0.00    -0.315 N 
ATOM      4  N   UNL     1      35.000 -22.348 -16.117  0.00  0.00    -0.316 N 
ATOM      5  N   UNL     1      29.083 -24.074 -14.230  0.00  0.00    -0.302 NA
ATOM      6  N   UNL     1      27.836 -23.411 -16.100  0.00  0.00    -0.320 N 
ATOM      7  C   UNL     1      32.503 -22.650 -16.260  0.00  0.00    +0.007 C 
ATOM      8  C   UNL     1      31.383 -23.130 -15.565  0.00  0.00    +0.060 C 
ATOM      9  C   UNL     1      33.767 -22.740 -15.652  0.00  0.00    +0.056 C 
ATOM     10  C   UNL     1      33.872 -23.300 -14.382  0.00  0.00    +0.060 C 
ATOM     11  C   UNL     1      31.530 -23.688 -14.285  0.00  0.00    +0.109 C 
ATOM     12  C   UNL     1      32.781 -23.787 -13.661  0.00  0.00    +0.029 C 
ATOM     13  C   UNL     1      30.305 -24.183 -13.593  0.00  0.00    +0.208 C 
ATOM     14  C   UNL     1      35.843 -22.658 -15.158  0.00  0.00    +0.182 C 
ATOM     15  C   UNL     1      29.023 -23.542 -15.422  0.00  0.00    +0.248 C 
ATOM     16  H   UNL     1      29.977 -22.675 -17.023  0.00  0.00    +0.156 HD
ATOM     17  H   UNL     1      35.641 -23.547 -13.263  0.00  0.00    +0.148 HD
ATOM     18  H   UNL     1      35.207 -21.925 -16.983  0.00  0.00    +0.148 HD
ATOM     19  H   UNL     1      27.825 -23.005 -16.996  0.00  0.00    +0.146 HD
ATOM     20  H   UNL     1      26.997 -23.720 -15.689  0.00  0.00    +0.146 HD
ENDROOT
BRANCH   7  21
ATOM     21  C   UNL     1      32.354 -22.053 -17.625  0.00  0.00    +0.034 C 
BRANCH  21  22
ATOM     22  C   UNL     1      33.471 -22.452 -18.605  0.00  0.00    +0.031 C 
BRANCH  22  23
ATOM     23  C   UNL     1      34.011 -21.288 -19.399  0.00  0.00    -0.022 C 
ATOM     24  C   UNL     1      35.381 -21.080 -19.454  0.00  0.00    -0.004 C 
ATOM     25  C   UNL     1      33.129 -20.446 -20.058  0.00  0.00    -0.004 C 
ATOM     26  C   UNL     1      35.880 -20.004 -20.188  0.00  0.00    -0.000 C 
ATOM     27  C   UNL     1      33.628 -19.370 -20.792  0.00  0.00    -0.000 C 
ATOM     28  C   UNL     1      35.003 -19.149 -20.857  0.00  0.00    -0.000 C 
ENDBRANCH  22  23
ENDBRANCH  21  22
ENDBRANCH   7  21
TORSDOF 3
ENDMDL
MODEL 5
REMARK VINA RESULT:     -11.1      4.020      6.910
REMARK  Name = 5326928
REMARK  3 active torsions:
REMARK  status: ('A' for Active; 'I' for Inactive)
REMARK    1  A    between atoms: C_7  and  C_21
REMARK    2  A    between atoms: C_21  and  C_22
REMARK    3  A    between atoms: C_22  and  C_23
REMARK                            x       y       z     vdW  Elec       q    Type
REMARK                         _______ _______ _______ _____ _____    ______ ____
ROOT
ATOM      1  O   UNL     1      32.921 -18.788 -22.367  0.00  0.00    -0.209 OA
ATOM      2  N   UNL     1      36.313 -19.508 -20.363  0.00  0.00    -0.275 N 
ATOM      3  N   UNL     1      31.846 -22.034 -18.378  0.00  0.00    -0.315 N 
ATOM      4  N   UNL     1      33.744 -22.415 -17.289  0.00  0.00    -0.316 N 
ATOM      5  N   UNL     1      35.172 -18.429 -22.150  0.00  0.00    -0.302 NA
ATOM      6  N   UNL     1      37.474 -18.156 -21.806  0.00  0.00    -0.320 N 
ATOM      7  C   UNL     1      35.175 -20.967 -18.772  0.00  0.00    +0.007 C 
ATOM      8  C   UNL     1      35.148 -20.128 -19.897  0.00  0.00    +0.060 C 
ATOM      9  C   UNL     1      33.978 -21.566 -18.345  0.00  0.00    +0.056 C 
ATOM     10  C   UNL     1      32.802 -21.311 -19.046  0.00  0.00    +0.060 C 
ATOM     11  C   UNL     1      33.942 -19.896 -20.577  0.00  0.00    +0.109 C 
ATOM     12  C   UNL     1      32.736 -20.483 -20.166  0.00  0.00    +0.029 C 
ATOM     13  C   UNL     1      33.971 -18.996 -21.766  0.00  0.00    +0.208 C 
ATOM     14  C   UNL     1      32.457 -22.676 -17.337  0.00  0.00    +0.182 C 
ATOM     15  C   UNL     1      36.255 -18.691 -21.467  0.00  0.00    +0.248 C 
ATOM     16  H   UNL     1      37.169 -19.657 -19.900  0.00  0.00    +0.156 HD
ATOM     17  H   UNL     1      30.890 -22.082 -18.608  0.00  0.00    +0.148 HD
ATOM     18  H   UNL     1      34.399 -22.754 -16.636  0.00  0.00    +0.148 HD
ATOM     19  H   UNL     1      38.271 -18.373 -21.271  0.00  0.00    +0.146 HD
ATOM     20  H   UNL     1      37.549 -17.555 -22.581  0.00  0.00    +0.146 HD
ENDROOT
BRANCH   7  21
ATOM     21  C   UNL     1      36.458 -21.219 -18.042  0.00  0.00    +0.034 C 
BRANCH  21  22
ATOM     22  C   UNL     1      36.425 -20.797 -16.563  0.00  0.00    +0.031 C 
BRANCH  22  23
ATOM     23  C   UNL     1      36.745 -21.927 -15.614  0.00  0.00    -0.022 C 
ATOM     24  C   UNL     1      35.872 -22.210 -14.575  0.00  0.00    -0.004 C 
ATOM     25  C   UNL     1      37.907 -22.660 -15.797  0.00  0.00    -0.004 C 
ATOM     26  C   UNL     1      36.167 -23.254 -13.699  0.00  0.00    -0.000 C 
ATOM     27  C   UNL     1      38.202 -23.705 -14.920  0.00  0.00    -0.000 C 
ATOM     28  C   UNL     1      37.333 -24.002 -13.871  0.00  0.00    -0.000 C 
ENDBRANCH  22  23
ENDBRANCH  21  22
ENDBRANCH   7  21
TORSDOF 3
ENDMDL
MODEL 6
REMARK VINA RESULT:     -10.8      2.257      5.660
REMARK  Name = 5326928
REMARK  3 active torsions:
REMARK  status: ('A' for Active; 'I' for Inactive)
REMARK    1  A    between atoms: C_7  and  C_21
REMARK    2  A    between atoms: C_21  and  C_22
REMARK    3  A    between atoms: C_22  and  C_23
REMARK                            x       y       z     vdW  Elec       q    Type
REMARK                         _______ _______ _______ _____ _____    ______ ____
ROOT
ATOM      1  O   UNL     1      37.979 -22.368 -15.068  0.00  0.00    -0.209 OA
ATOM      2  N   UNL     1      34.147 -23.532 -15.076  0.00  0.00    -0.275 N 
ATOM      3  N   UNL     1      35.678 -20.506 -19.409  0.00  0.00    -0.315 N 
ATOM      4  N   UNL     1      33.557 -21.169 -19.385  0.00  0.00    -0.316 N 
ATOM      5  N   UNL     1      36.282 -23.500 -14.027  0.00  0.00    -0.302 NA
ATOM      6  N   UNL     1      34.454 -24.618 -13.080  0.00  0.00    -0.320 N 
ATOM      7  C   UNL     1      33.712 -22.411 -17.199  0.00  0.00    +0.007 C 
ATOM      8  C   UNL     1      34.585 -22.760 -16.157  0.00  0.00    +0.060 C 
ATOM      9  C   UNL     1      34.202 -21.634 -18.262  0.00  0.00    +0.056 C 
ATOM     10  C   UNL     1      35.535 -21.233 -18.253  0.00  0.00    +0.060 C 
ATOM     11  C   UNL     1      35.923 -22.335 -16.185  0.00  0.00    +0.109 C 
ATOM     12  C   UNL     1      36.432 -21.559 -17.236  0.00  0.00    +0.029 C 
ATOM     13  C   UNL     1      36.807 -22.734 -15.052  0.00  0.00    +0.208 C 
ATOM     14  C   UNL     1      34.470 -20.498 -20.050  0.00  0.00    +0.182 C 
ATOM     15  C   UNL     1      35.026 -23.858 -14.070  0.00  0.00    +0.248 C 
ATOM     16  H   UNL     1      33.212 -23.839 -15.036  0.00  0.00    +0.156 HD
ATOM     17  H   UNL     1      36.503 -20.070 -19.720  0.00  0.00    +0.148 HD
ATOM     18  H   UNL     1      32.615 -21.308 -19.636  0.00  0.00    +0.148 HD
ATOM     19  H   UNL     1      33.504 -24.870 -13.141  0.00  0.00    +0.146 HD
ATOM     20  H   UNL     1      34.992 -24.908 -12.308  0.00  0.00    +0.146 HD
ENDROOT
BRANCH   7  21
ATOM     21  C   UNL     1      32.284 -22.860 -17.176  0.00  0.00    +0.034 C 
BRANCH  21  22
ATOM     22  C   UNL     1      31.445 -22.212 -16.061  0.00  0.00    +0.031 C 
BRANCH  22  23
ATOM     23  C   UNL     1      30.458 -23.163 -15.428  0.00  0.00    -0.022 C 
ATOM     24  C   UNL     1      29.153 -23.200 -15.896  0.00  0.00    -0.004 C 
ATOM     25  C   UNL     1      30.873 -23.981 -14.389  0.00  0.00    -0.004 C 
ATOM     26  C   UNL     1      28.242 -24.079 -15.312  0.00  0.00    -0.000 C 
ATOM     27  C   UNL     1      29.961 -24.860 -13.804  0.00  0.00    -0.000 C 
ATOM     28  C   UNL     1      28.646 -24.909 -14.265  0.00  0.00    -0.000 C 
ENDBRANCH  22  23
ENDBRANCH  21  22
ENDBRANCH   7  21
TORSDOF 3
ENDMDL
MODEL 7
REMARK VINA RESULT:     -10.6      2.770      6.447
REMARK  Name = 5326928
REMARK  3 active torsions:
REMARK  status: ('A' for Active; 'I' for Inactive)
REMARK    1  A    between atoms: C_7  and  C_21
REMARK    2  A    between atoms: C_21  and  C_22
REMARK    3  A    between atoms: C_22  and  C_23
REMARK                            x       y       z     vdW  Elec       q    Type
REMARK                         _______ _______ _______ _____ _____    ______ ____
ROOT
ATOM      1  O   UNL     1      36.292 -19.909 -19.592  0.00  0.00    -0.209 OA
ATOM      2  N   UNL     1      33.038 -21.875 -18.334  0.00  0.00    -0.275 N 
ATOM      3  N   UNL     1      37.502 -22.486 -15.177  0.00  0.00    -0.315 N 
ATOM      4  N   UNL     1      35.679 -23.564 -14.505  0.00  0.00    -0.316 N 
ATOM      5  N   UNL     1      34.090 -20.443 -19.917  0.00  0.00    -0.302 NA
ATOM      6  N   UNL     1      31.842 -21.074 -20.120  0.00  0.00    -0.320 N 
ATOM      7  C   UNL     1      34.217 -22.781 -16.400  0.00  0.00    +0.007 C 
ATOM      8  C   UNL     1      34.200 -21.998 -17.565  0.00  0.00    +0.060 C 
ATOM      9  C   UNL     1      35.409 -22.873 -15.662  0.00  0.00    +0.056 C 
ATOM     10  C   UNL     1      36.537 -22.187 -16.105  0.00  0.00    +0.060 C 
ATOM     11  C   UNL     1      35.358 -21.322 -17.978  0.00  0.00    +0.109 C 
ATOM     12  C   UNL     1      36.558 -21.401 -17.257  0.00  0.00    +0.029 C 
ATOM     13  C   UNL     1      35.284 -20.504 -19.223  0.00  0.00    +0.208 C 
ATOM     14  C   UNL     1      36.941 -23.311 -14.241  0.00  0.00    +0.182 C 
ATOM     15  C   UNL     1      33.052 -21.100 -19.471  0.00  0.00    +0.248 C 
ATOM     16  H   UNL     1      32.214 -22.341 -18.063  0.00  0.00    +0.156 HD
ATOM     17  H   UNL     1      38.432 -22.164 -15.183  0.00  0.00    +0.148 HD
ATOM     18  H   UNL     1      35.060 -24.127 -13.985  0.00  0.00    +0.148 HD
ATOM     19  H   UNL     1      31.080 -21.580 -19.758  0.00  0.00    +0.146 HD
ATOM     20  H   UNL     1      31.738 -20.550 -20.946  0.00  0.00    +0.146 HD
ENDROOT
BRANCH   7  21
ATOM     21  C   UNL     1      32.985 -23.506 -15.953  0.00  0.00    +0.034 C 
BRANCH  21  22
ATOM     22  C   UNL     1      32.058 -22.664 -15.059  0.00  0.00    +0.031 C 
BRANCH  22  23
ATOM     23  C   UNL     1      30.595 -22.983 -15.250  0.00  0.00    -0.022 C 
ATOM     24  C   UNL     1      30.020 -24.007 -14.512  0.00  0.00    -0.004 C 
ATOM     25  C   UNL     1      29.851 -22.249 -16.160  0.00  0.00    -0.004 C 
ATOM     26  C   UNL     1      28.669 -24.302 -14.688  0.00  0.00    -0.000 C 
ATOM     27  C   UNL     1      28.499 -22.544 -16.336  0.00  0.00    -0.000 C 
ATOM     28  C   UNL     1      27.908 -23.570 -15.600  0.00  0.00    -0.000 C 
ENDBRANCH  22  23
ENDBRANCH  21  22
ENDBRANCH   7  21
TORSDOF 3
ENDMDL
MODEL 8
REMARK VINA RESULT:     -10.4      2.686      5.948
REMARK  Name = 5326928
REMARK  3 active torsions:
REMARK  status: ('A' for Active; 'I' for Inactive)
REMARK    1  A    between atoms: C_7  and  C_21
REMARK    2  A    between atoms: C_21  and  C_22
REMARK    3  A    between atoms: C_22  and  C_23
REMARK                            x       y       z     vdW  Elec       q    Type
REMARK                         _______ _______ _______ _____ _____    ______ ____
ROOT
ATOM      1  O   UNL     1      36.760 -21.533 -17.066  0.00  0.00    -0.209 OA
ATOM      2  N   UNL     1      33.079 -22.945 -16.362  0.00  0.00    -0.275 N 
ATOM      3  N   UNL     1      36.639 -23.530 -12.208  0.00  0.00    -0.315 N 
ATOM      4  N   UNL     1      34.587 -24.303 -11.847  0.00  0.00    -0.316 N 
ATOM      5  N   UNL     1      34.627 -21.882 -17.823  0.00  0.00    -0.302 NA
ATOM      6  N   UNL     1      32.411 -22.303 -18.460  0.00  0.00    -0.320 N 
ATOM      7  C   UNL     1      33.683 -23.668 -14.111  0.00  0.00    +0.007 C 
ATOM      8  C   UNL     1      34.021 -23.070 -15.335  0.00  0.00    +0.060 C 
ATOM      9  C   UNL     1      34.666 -23.769 -13.112  0.00  0.00    +0.056 C 
ATOM     10  C   UNL     1      35.944 -23.276 -13.364  0.00  0.00    +0.060 C 
ATOM     11  C   UNL     1      35.321 -22.586 -15.550  0.00  0.00    +0.109 C 
ATOM     12  C   UNL     1      36.317 -22.678 -14.567  0.00  0.00    +0.029 C 
ATOM     13  C   UNL     1      35.626 -21.960 -16.869  0.00  0.00    +0.208 C 
ATOM     14  C   UNL     1      35.785 -24.143 -11.333  0.00  0.00    +0.182 C 
ATOM     15  C   UNL     1      33.439 -22.355 -17.551  0.00  0.00    +0.248 C 
ATOM     16  H   UNL     1      32.161 -23.279 -16.232  0.00  0.00    +0.156 HD
ATOM     17  H   UNL     1      37.583 -23.309 -12.039  0.00  0.00    +0.148 HD
ATOM     18  H   UNL     1      33.802 -24.715 -11.419  0.00  0.00    +0.148 HD
ATOM     19  H   UNL     1      31.528 -22.669 -18.224  0.00  0.00    +0.146 HD
ATOM     20  H   UNL     1      32.558 -21.901 -19.346  0.00  0.00    +0.146 HD
ENDROOT
BRANCH   7  21
ATOM     21  C   UNL     1      32.299 -24.187 -13.875  0.00  0.00    +0.034 C 
BRANCH  21  22
ATOM     22  C   UNL     1      31.268 -23.089 -13.557  0.00  0.00    +0.031 C 
BRANCH  22  23
ATOM     23  C   UNL     1      30.029 -23.169 -14.415  0.00  0.00    -0.022 C 
ATOM     24  C   UNL     1      29.642 -24.393 -14.939  0.00  0.00    -0.004 C 
ATOM     25  C   UNL     1      29.299 -22.017 -14.665  0.00  0.00    -0.004 C 
ATOM     26  C   UNL     1      28.497 -24.467 -15.731  0.00  0.00    -0.000 C 
ATOM     27  C   UNL     1      28.154 -22.091 -15.458  0.00  0.00    -0.000 C 
ATOM     28  C   UNL     1      27.753 -23.316 -15.991  0.00  0.00    -0.000 C 
ENDBRANCH  22  23
ENDBRANCH  21  22
ENDBRANCH   7  21
TORSDOF 3
ENDMDL
MODEL 9
REMARK VINA RESULT:     -10.2      1.480      4.241
REMARK  Name = 5326928
REMARK  3 active torsions:
REMARK  status: ('A' for Active; 'I' for Inactive)
REMARK    1  A    between atoms: C_7  and  C_21
REMARK    2  A    between atoms: C_21  and  C_22
REMARK    3  A    between atoms: C_22  and  C_23
REMARK                            x       y       z     vdW  Elec       q    Type
REMARK                         _______ _______ _______ _____ _____    ______ ____
ROOT
ATOM      1  O   UNL     1      31.657 -25.130 -13.724  0.00  0.00    -0.209 OA
ATOM      2  N   UNL     1      32.642 -22.318 -16.399  0.00  0.00    -0.275 N 
ATOM      3  N   UNL     1      36.882 -24.585 -13.726  0.00  0.00    -0.315 N 
ATOM      4  N   UNL     1      37.396 -23.022 -15.218  0.00  0.00    -0.316 N 
ATOM      5  N   UNL     1      30.977 -23.609 -15.295  0.00  0.00    -0.302 NA
ATOM      6  N   UNL     1      30.430 -22.017 -16.924  0.00  0.00    -0.320 N 
ATOM      7  C   UNL     1      35.021 -22.558 -15.918  0.00  0.00    +0.007 C 
ATOM      8  C   UNL     1      33.685 -22.925 -15.693  0.00  0.00    +0.060 C 
ATOM      9  C   UNL     1      36.033 -23.199 -15.183  0.00  0.00    +0.056 C 
ATOM     10  C   UNL     1      35.684 -24.175 -14.254  0.00  0.00    +0.060 C 
ATOM     11  C   UNL     1      33.374 -23.915 -14.747  0.00  0.00    +0.109 C 
ATOM     12  C   UNL     1      34.368 -24.565 -14.003  0.00  0.00    +0.029 C 
ATOM     13  C   UNL     1      31.938 -24.266 -14.548  0.00  0.00    +0.208 C 
ATOM     14  C   UNL     1      37.874 -23.868 -14.334  0.00  0.00    +0.182 C 
ATOM     15  C   UNL     1      31.342 -22.698 -16.157  0.00  0.00    +0.248 C 
ATOM     16  H   UNL     1      32.838 -21.621 -17.067  0.00  0.00    +0.156 HD
ATOM     17  H   UNL     1      37.005 -25.274 -13.033  0.00  0.00    +0.148 HD
ATOM     18  H   UNL     1      37.905 -22.396 -15.785  0.00  0.00    +0.148 HD
ATOM     19  H   UNL     1      30.737 -21.336 -17.565  0.00  0.00    +0.146 HD
ATOM     20  H   UNL     1      29.469 -22.209 -16.833  0.00  0.00    +0.146 HD
ENDROOT
BRANCH   7  21
ATOM     21  C   UNL     1      35.361 -21.503 -16.925  0.00  0.00    +0.034 C 
BRANCH  21  22
ATOM     22  C   UNL     1      35.354 -22.006 -18.380  0.00  0.00    +0.031 C 
BRANCH  22  23
ATOM     23  C   UNL     1      34.759 -21.014 -19.349  0.00  0.00    -0.022 C 
ATOM     24  C   UNL     1      35.596 -20.147 -20.035  0.00  0.00    -0.004 C 
ATOM     25  C   UNL     1      33.385 -20.987 -19.537  0.00  0.00    -0.004 C 
ATOM     26  C   UNL     1      35.046 -19.232 -20.932  0.00  0.00    -0.000 C 
ATOM     27  C   UNL     1      32.835 -20.071 -20.434  0.00  0.00    -0.000 C 
ATOM     28  C   UNL     1      33.665 -19.193 -21.131  0.00  0.00    -0.000 C 
ENDBRANCH  22  23
ENDBRANCH  21  22
ENDBRANCH   7  21
TORSDOF 3
ENDMDL
