MODEL 1
REMARK VINA RESULT:     -12.0      0.000      0.000
REMARK  Name = 447492
REMARK  5 active torsions:
REMARK  status: ('A' for Active; 'I' for Inactive)
REMARK    1  A    between atoms: C_2  and  C_17
REMARK    2  A    between atoms: C_8  and  C_13
REMARK    3  A    between atoms: C_18  and  O_29
REMARK    4  A    between atoms: C_19  and  C_23
REMARK    5  A    between atoms: C_21  and  O_31
REMARK                            x       y       z     vdW  Elec       q    Type
REMARK                         _______ _______ _______ _____ _____    ______ ____
ROOT
ATOM      1  N   UNL     1      35.180 -20.589 -19.085  0.00  0.00    -0.312 N 
ATOM      2  C   UNL     1      33.927 -21.055 -18.791  0.00  0.00    +0.051 C 
ATOM      3  C   UNL     1      33.816 -19.767 -20.646  0.00  0.00    +0.015 C 
ATOM      4  C   UNL     1      35.142 -19.800 -20.212  0.00  0.00    +0.048 C 
ATOM      5  C   UNL     1      33.060 -20.563 -19.740  0.00  0.00    +0.016 C 
ATOM      6  C   UNL     1      33.497 -19.019 -21.797  0.00  0.00    +0.004 C 
ATOM      7  C   UNL     1      36.171 -19.119 -20.873  0.00  0.00    +0.015 C 
ATOM      8  C   UNL     1      34.515 -18.333 -22.469  0.00  0.00    +0.031 C 
ATOM      9  C   UNL     1      35.832 -18.384 -22.012  0.00  0.00    +0.004 C 
ATOM     10  H   UNL     1      35.992 -20.790 -18.563  0.00  0.00    +0.152 HD
ENDROOT
BRANCH   8  13
ATOM     11  N   UNL     1      34.638 -16.246 -23.809  0.00  0.00    -0.343 N 
ATOM     12  N   UNL     1      33.464 -18.099 -24.617  0.00  0.00    -0.285 NA
ATOM     13  C   UNL     1      34.195 -17.558 -23.657  0.00  0.00    +0.117 C 
ATOM     14  H   UNL     1      34.409 -15.740 -24.622  0.00  0.00    +0.144 HD
ATOM     15  H   UNL     1      35.181 -15.826 -23.104  0.00  0.00    +0.144 HD
ATOM     16  H   UNL     1      33.245 -17.577 -25.423  0.00  0.00    +0.188 HD
ENDBRANCH   8  13
BRANCH   2  17
ATOM     17  C   UNL     1      33.674 -21.909 -17.656  0.00  0.00    +0.050 C 
ATOM     18  C   UNL     1      34.714 -22.330 -16.826  0.00  0.00    +0.135 C 
ATOM     19  C   UNL     1      34.446 -23.154 -15.733  0.00  0.00    +0.037 C 
ATOM     20  C   UNL     1      32.365 -22.315 -17.390  0.00  0.00    +0.041 C 
ATOM     21  C   UNL     1      32.098 -23.139 -16.297  0.00  0.00    +0.139 C 
ATOM     22  C   UNL     1      33.137 -23.559 -15.469  0.00  0.00    +0.040 C 
BRANCH  19  23
ATOM     23  C   UNL     1      35.511 -23.603 -14.859  0.00  0.00    +0.003 C 
ATOM     24  C   UNL     1      35.974 -24.915 -14.944  0.00  0.00    +0.000 C 
ATOM     25  C   UNL     1      36.071 -22.723 -13.935  0.00  0.00    +0.000 C 
ATOM     26  C   UNL     1      36.999 -25.349 -14.103  0.00  0.00    +0.000 C 
ATOM     27  C   UNL     1      37.096 -23.155 -13.094  0.00  0.00    +0.000 C 
ATOM     28  C   UNL     1      37.561 -24.468 -13.178  0.00  0.00    +0.000 C 
ENDBRANCH  19  23
BRANCH  18  29
ATOM     29  O   UNL     1      35.996 -21.933 -17.083  0.00  0.00    -0.505 OA
ATOM     30  H   UNL     1      36.464 -22.301 -17.807  0.00  0.00    +0.292 HD
ENDBRANCH  18  29
BRANCH  21  31
ATOM     31  O   UNL     1      30.821 -23.535 -16.041  0.00  0.00    -0.471 OA
ATOM     32  C   UNL     1      29.802 -22.540 -16.128  0.00  0.00    +0.252 C 
ENDBRANCH  21  31
ENDBRANCH   2  17
TORSDOF 5
ENDMDL
MODEL 2
REMARK VINA RESULT:     -11.6      8.106     13.247
REMARK  Name = 447492
REMARK  5 active torsions:
REMARK  status: ('A' for Active; 'I' for Inactive)
REMARK    1  A    between atoms: C_2  and  C_17
REMARK    2  A    between atoms: C_8  and  C_13
REMARK    3  A    between atoms: C_18  and  O_29
REMARK    4  A    between atoms: C_19  and  C_23
REMARK    5  A    between atoms: C_21  and  O_31
REMARK                            x       y       z     vdW  Elec       q    Type
REMARK                         _______ _______ _______ _____ _____    ______ ____
ROOT
ATOM      1  N   UNL     1      32.722 -13.081 -23.499  0.00  0.00    -0.312 N 
ATOM      2  C   UNL     1      32.833 -12.480 -22.273  0.00  0.00    +0.051 C 
ATOM      3  C   UNL     1      33.800 -14.521 -22.180  0.00  0.00    +0.015 C 
ATOM      4  C   UNL     1      33.304 -14.328 -23.471  0.00  0.00    +0.048 C 
ATOM      5  C   UNL     1      33.495 -13.348 -21.435  0.00  0.00    +0.016 C 
ATOM      6  C   UNL     1      34.452 -15.734 -21.879  0.00  0.00    +0.004 C 
ATOM      7  C   UNL     1      33.427 -15.290 -24.480  0.00  0.00    +0.015 C 
ATOM      8  C   UNL     1      34.582 -16.706 -22.878  0.00  0.00    +0.031 C 
ATOM      9  C   UNL     1      34.077 -16.485 -24.158  0.00  0.00    +0.004 C 
ATOM     10  H   UNL     1      32.289 -12.678 -24.286  0.00  0.00    +0.152 HD
ENDROOT
BRANCH   8  13
ATOM     11  N   UNL     1      36.572 -17.986 -22.123  0.00  0.00    -0.343 N 
ATOM     12  N   UNL     1      34.612 -19.104 -22.732  0.00  0.00    -0.285 NA
ATOM     13  C   UNL     1      35.254 -17.960 -22.574  0.00  0.00    +0.117 C 
ATOM     14  H   UNL     1      37.007 -18.847 -21.924  0.00  0.00    +0.144 HD
ATOM     15  H   UNL     1      37.067 -17.144 -22.003  0.00  0.00    +0.144 HD
ATOM     16  H   UNL     1      35.064 -19.955 -22.528  0.00  0.00    +0.188 HD
ENDBRANCH   8  13
BRANCH   2  17
ATOM     17  C   UNL     1      32.307 -11.161 -22.017  0.00  0.00    +0.050 C 
ATOM     18  C   UNL     1      32.519 -10.115 -22.917  0.00  0.00    +0.135 C 
ATOM     19  C   UNL     1      32.000  -8.848 -22.649  0.00  0.00    +0.037 C 
ATOM     20  C   UNL     1      31.574 -10.937 -20.850  0.00  0.00    +0.041 C 
ATOM     21  C   UNL     1      31.056  -9.670 -20.584  0.00  0.00    +0.139 C 
ATOM     22  C   UNL     1      31.269  -8.626 -21.482  0.00  0.00    +0.040 C 
BRANCH  19  23
ATOM     23  C   UNL     1      32.209  -7.747 -23.568  0.00  0.00    +0.003 C 
ATOM     24  C   UNL     1      33.440  -7.094 -23.602  0.00  0.00    +0.000 C 
ATOM     25  C   UNL     1      31.180  -7.345 -24.418  0.00  0.00    +0.000 C 
ATOM     26  C   UNL     1      33.642  -6.034 -24.487  0.00  0.00    +0.000 C 
ATOM     27  C   UNL     1      31.381  -6.286 -25.302  0.00  0.00    +0.000 C 
ATOM     28  C   UNL     1      32.612  -5.630 -25.337  0.00  0.00    +0.000 C 
ENDBRANCH  19  23
BRANCH  18  29
ATOM     29  O   UNL     1      33.235 -10.332 -24.060  0.00  0.00    -0.505 OA
ATOM     30  H   UNL     1      33.392 -11.208 -24.355  0.00  0.00    +0.292 HD
ENDBRANCH  18  29
BRANCH  21  31
ATOM     31  O   UNL     1      30.343  -9.453 -19.445  0.00  0.00    -0.471 OA
ATOM     32  C   UNL     1      31.058  -9.508 -18.211  0.00  0.00    +0.252 C 
ENDBRANCH  21  31
ENDBRANCH   2  17
TORSDOF 5
ENDMDL
MODEL 3
REMARK VINA RESULT:     -11.5      1.078      1.587
REMARK  Name = 447492
REMARK  5 active torsions:
REMARK  status: ('A' for Active; 'I' for Inactive)
REMARK    1  A    between atoms: C_2  and  C_17
REMARK    2  A    between atoms: C_8  and  C_13
REMARK    3  A    between atoms: C_18  and  O_29
REMARK    4  A    between atoms: C_19  and  C_23
REMARK    5  A    between atoms: C_21  and  O_31
REMARK                            x       y       z     vdW  Elec       q    Type
REMARK                         _______ _______ _______ _____ _____    ______ ____
ROOT
ATOM      1  N   UNL     1      35.041 -21.263 -18.374  0.00  0.00    -0.312 N 
ATOM      2  C   UNL     1      33.756 -21.640 -18.092  0.00  0.00    +0.051 C 
ATOM      3  C   UNL     1      33.751 -20.349 -19.948  0.00  0.00    +0.015 C 
ATOM      4  C   UNL     1      35.068 -20.474 -19.502  0.00  0.00    +0.048 C 
ATOM      5  C   UNL     1      32.934 -21.090 -19.048  0.00  0.00    +0.016 C 
ATOM      6  C   UNL     1      33.495 -19.582 -21.102  0.00  0.00    +0.004 C 
ATOM      7  C   UNL     1      36.148 -19.867 -20.154  0.00  0.00    +0.015 C 
ATOM      8  C   UNL     1      34.565 -18.968 -21.764  0.00  0.00    +0.031 C 
ATOM      9  C   UNL     1      35.870 -19.110 -21.296  0.00  0.00    +0.004 C 
ATOM     10  H   UNL     1      35.832 -21.519 -17.846  0.00  0.00    +0.152 HD
ENDROOT
BRANCH   8  13
ATOM     11  N   UNL     1      33.511 -18.656 -23.991  0.00  0.00    -0.343 N 
ATOM     12  N   UNL     1      34.846 -16.972 -23.072  0.00  0.00    -0.285 NA
ATOM     13  C   UNL     1      34.310 -18.174 -22.956  0.00  0.00    +0.117 C 
ATOM     14  H   UNL     1      33.352 -18.102 -24.789  0.00  0.00    +0.144 HD
ATOM     15  H   UNL     1      33.106 -19.550 -23.924  0.00  0.00    +0.144 HD
ATOM     16  H   UNL     1      34.675 -16.432 -23.878  0.00  0.00    +0.188 HD
ENDBRANCH   8  13
BRANCH   2  17
ATOM     17  C   UNL     1      33.434 -22.474 -16.959  0.00  0.00    +0.050 C 
ATOM     18  C   UNL     1      34.439 -23.029 -16.165  0.00  0.00    +0.135 C 
ATOM     19  C   UNL     1      34.105 -23.830 -15.074  0.00  0.00    +0.037 C 
ATOM     20  C   UNL     1      32.094 -22.723 -16.659  0.00  0.00    +0.041 C 
ATOM     21  C   UNL     1      31.760 -23.525 -15.568  0.00  0.00    +0.139 C 
ATOM     22  C   UNL     1      32.764 -24.079 -14.775  0.00  0.00    +0.040 C 
BRANCH  19  23
ATOM     23  C   UNL     1      35.132 -24.417 -14.236  0.00  0.00    +0.003 C 
ATOM     24  C   UNL     1      35.399 -23.874 -12.981  0.00  0.00    +0.000 C 
ATOM     25  C   UNL     1      35.849 -25.523 -14.688  0.00  0.00    +0.000 C 
ATOM     26  C   UNL     1      36.388 -24.438 -12.174  0.00  0.00    +0.000 C 
ATOM     27  C   UNL     1      36.838 -26.088 -13.882  0.00  0.00    +0.000 C 
ATOM     28  C   UNL     1      37.107 -25.546 -12.625  0.00  0.00    +0.000 C 
ENDBRANCH  19  23
BRANCH  18  29
ATOM     29  O   UNL     1      35.751 -22.785 -16.456  0.00  0.00    -0.505 OA
ATOM     30  H   UNL     1      36.393 -23.456 -16.327  0.00  0.00    +0.292 HD
ENDBRANCH  18  29
BRANCH  21  31
ATOM     31  O   UNL     1      30.453 -23.768 -15.277  0.00  0.00    -0.471 OA
ATOM     32  C   UNL     1      30.177 -24.493 -14.079  0.00  0.00    +0.252 C 
ENDBRANCH  21  31
ENDBRANCH   2  17
TORSDOF 5
ENDMDL
MODEL 4
REMARK VINA RESULT:     -11.4      1.253      3.995
REMARK  Name = 447492
REMARK  5 active torsions:
REMARK  status: ('A' for Active; 'I' for Inactive)
REMARK    1  A    between atoms: C_2  and  C_17
REMARK    2  A    between atoms: C_8  and  C_13
REMARK    3  A    between atoms: C_18  and  O_29
REMARK    4  A    between atoms: C_19  and  C_23
REMARK    5  A    between atoms: C_21  and  O_31
REMARK                            x       y       z     vdW  Elec       q    Type
REMARK                         _______ _______ _______ _____ _____    ______ ____
ROOT
ATOM      1  N   UNL     1      35.301 -20.484 -19.172  0.00  0.00    -0.312 N 
ATOM      2  C   UNL     1      34.064 -20.980 -18.861  0.00  0.00    +0.051 C 
ATOM      3  C   UNL     1      33.895 -19.697 -20.714  0.00  0.00    +0.015 C 
ATOM      4  C   UNL     1      35.228 -19.696 -20.299  0.00  0.00    +0.048 C 
ATOM      5  C   UNL     1      33.172 -20.511 -19.798  0.00  0.00    +0.016 C 
ATOM      6  C   UNL     1      33.542 -18.958 -21.861  0.00  0.00    +0.004 C 
ATOM      7  C   UNL     1      36.230 -18.991 -20.975  0.00  0.00    +0.015 C 
ATOM      8  C   UNL     1      34.534 -18.247 -22.547  0.00  0.00    +0.031 C 
ATOM      9  C   UNL     1      35.857 -18.265 -22.109  0.00  0.00    +0.004 C 
ATOM     10  H   UNL     1      36.124 -20.664 -18.662  0.00  0.00    +0.152 HD
ENDROOT
BRANCH   8  13
ATOM     11  N   UNL     1      34.632 -16.177 -23.916  0.00  0.00    -0.343 N 
ATOM     12  N   UNL     1      33.404 -18.023 -24.656  0.00  0.00    -0.285 NA
ATOM     13  C   UNL     1      34.178 -17.482 -23.732  0.00  0.00    +0.117 C 
ATOM     14  H   UNL     1      34.379 -15.677 -24.725  0.00  0.00    +0.144 HD
ATOM     15  H   UNL     1      35.207 -15.756 -23.237  0.00  0.00    +0.144 HD
ATOM     16  H   UNL     1      33.161 -17.507 -25.459  0.00  0.00    +0.188 HD
ENDBRANCH   8  13
BRANCH   2  17
ATOM     17  C   UNL     1      33.847 -21.840 -17.722  0.00  0.00    +0.050 C 
ATOM     18  C   UNL     1      32.557 -22.180 -17.312  0.00  0.00    +0.135 C 
ATOM     19  C   UNL     1      32.372 -23.013 -16.209  0.00  0.00    +0.037 C 
ATOM     20  C   UNL     1      34.951 -22.336 -17.027  0.00  0.00    +0.041 C 
ATOM     21  C   UNL     1      34.765 -23.169 -15.925  0.00  0.00    +0.139 C 
ATOM     22  C   UNL     1      33.477 -23.508 -15.515  0.00  0.00    +0.040 C 
BRANCH  19  23
ATOM     23  C   UNL     1      31.041 -23.378 -15.765  0.00  0.00    +0.003 C 
ATOM     24  C   UNL     1      30.848 -24.555 -15.045  0.00  0.00    +0.000 C 
ATOM     25  C   UNL     1      29.959 -22.550 -16.057  0.00  0.00    +0.000 C 
ATOM     26  C   UNL     1      29.567 -24.907 -14.616  0.00  0.00    +0.000 C 
ATOM     27  C   UNL     1      28.679 -22.901 -15.630  0.00  0.00    +0.000 C 
ATOM     28  C   UNL     1      28.482 -24.079 -14.909  0.00  0.00    +0.000 C 
ENDBRANCH  19  23
BRANCH  18  29
ATOM     29  O   UNL     1      31.475 -21.696 -17.991  0.00  0.00    -0.505 OA
ATOM     30  H   UNL     1      31.046 -20.916 -17.696  0.00  0.00    +0.292 HD
ENDBRANCH  18  29
BRANCH  21  31
ATOM     31  O   UNL     1      35.843 -23.651 -15.247  0.00  0.00    -0.471 OA
ATOM     32  C   UNL     1      36.930 -22.752 -15.032  0.00  0.00    +0.252 C 
ENDBRANCH  21  31
ENDBRANCH   2  17
TORSDOF 5
ENDMDL
MODEL 5
REMARK VINA RESULT:     -10.6      1.974      4.303
REMARK  Name = 447492
REMARK  5 active torsions:
REMARK  status: ('A' for Active; 'I' for Inactive)
REMARK    1  A    between atoms: C_2  and  C_17
REMARK    2  A    between atoms: C_8  and  C_13
REMARK    3  A    between atoms: C_18  and  O_29
REMARK    4  A    between atoms: C_19  and  C_23
REMARK    5  A    between atoms: C_21  and  O_31
REMARK                            x       y       z     vdW  Elec       q    Type
REMARK                         _______ _______ _______ _____ _____    ______ ____
ROOT
ATOM      1  N   UNL     1      33.495 -21.472 -18.541  0.00  0.00    -0.312 N 
ATOM      2  C   UNL     1      34.485 -21.768 -17.642  0.00  0.00    +0.051 C 
ATOM      3  C   UNL     1      35.315 -20.374 -19.216  0.00  0.00    +0.015 C 
ATOM      4  C   UNL     1      33.974 -20.623 -19.513  0.00  0.00    +0.048 C 
ATOM      5  C   UNL     1      35.624 -21.103 -18.034  0.00  0.00    +0.016 C 
ATOM      6  C   UNL     1      36.051 -19.523 -20.065  0.00  0.00    +0.004 C 
ATOM      7  C   UNL     1      33.328 -20.062 -20.620  0.00  0.00    +0.015 C 
ATOM      8  C   UNL     1      35.418 -18.955 -21.178  0.00  0.00    +0.031 C 
ATOM      9  C   UNL     1      34.077 -19.221 -21.449  0.00  0.00    +0.004 C 
ATOM     10  H   UNL     1      32.574 -21.817 -18.497  0.00  0.00    +0.152 HD
ENDROOT
BRANCH   8  13
ATOM     11  N   UNL     1      35.533 -17.117 -22.843  0.00  0.00    -0.343 N 
ATOM     12  N   UNL     1      37.486 -18.185 -22.130  0.00  0.00    -0.285 NA
ATOM     13  C   UNL     1      36.171 -18.076 -22.059  0.00  0.00    +0.117 C 
ATOM     14  H   UNL     1      36.062 -16.533 -23.433  0.00  0.00    +0.144 HD
ATOM     15  H   UNL     1      34.554 -17.023 -22.806  0.00  0.00    +0.144 HD
ATOM     16  H   UNL     1      37.998 -17.592 -22.727  0.00  0.00    +0.188 HD
ENDBRANCH   8  13
BRANCH   2  17
ATOM     17  C   UNL     1      34.260 -22.641 -16.515  0.00  0.00    +0.050 C 
ATOM     18  C   UNL     1      32.966 -22.951 -16.093  0.00  0.00    +0.135 C 
ATOM     19  C   UNL     1      32.773 -23.799 -15.002  0.00  0.00    +0.037 C 
ATOM     20  C   UNL     1      35.359 -23.181 -15.845  0.00  0.00    +0.041 C 
ATOM     21  C   UNL     1      35.165 -24.028 -14.755  0.00  0.00    +0.139 C 
ATOM     22  C   UNL     1      33.872 -24.337 -14.332  0.00  0.00    +0.040 C 
BRANCH  19  23
ATOM     23  C   UNL     1      31.439 -24.133 -14.545  0.00  0.00    +0.003 C 
ATOM     24  C   UNL     1      30.397 -24.244 -15.464  0.00  0.00    +0.000 C 
ATOM     25  C   UNL     1      31.201 -24.345 -13.188  0.00  0.00    +0.000 C 
ATOM     26  C   UNL     1      29.112 -24.567 -15.025  0.00  0.00    +0.000 C 
ATOM     27  C   UNL     1      29.917 -24.667 -12.749  0.00  0.00    +0.000 C 
ATOM     28  C   UNL     1      28.872 -24.778 -13.667  0.00  0.00    +0.000 C 
ENDBRANCH  19  23
BRANCH  18  29
ATOM     29  O   UNL     1      31.889 -22.425 -16.748  0.00  0.00    -0.505 OA
ATOM     30  H   UNL     1      31.980 -21.629 -17.235  0.00  0.00    +0.292 HD
ENDBRANCH  18  29
BRANCH  21  31
ATOM     31  O   UNL     1      36.237 -24.552 -14.101  0.00  0.00    -0.471 OA
ATOM     32  C   UNL     1      36.886 -25.668 -14.709  0.00  0.00    +0.252 C 
ENDBRANCH  21  31
ENDBRANCH   2  17
TORSDOF 5
ENDMDL
MODEL 6
REMARK VINA RESULT:      -9.4      7.372     11.289
REMARK  Name = 447492
REMARK  5 active torsions:
REMARK  status: ('A' for Active; 'I' for Inactive)
REMARK    1  A    between atoms: C_2  and  C_17
REMARK    2  A    between atoms: C_8  and  C_13
REMARK    3  A    between atoms: C_18  and  O_29
REMARK    4  A    between atoms: C_19  and  C_23
REMARK    5  A    between atoms: C_21  and  O_31
REMARK                            x       y       z     vdW  Elec       q    Type
REMARK                         _______ _______ _______ _____ _____    ______ ____
ROOT
ATOM      1  N   UNL     1      31.963 -11.790 -21.271  0.00  0.00    -0.312 N 
ATOM      2  C   UNL     1      32.591 -11.731 -22.486  0.00  0.00    +0.051 C 
ATOM      3  C   UNL     1      32.281  -9.628 -21.719  0.00  0.00    +0.015 C 
ATOM      4  C   UNL     1      31.760 -10.520 -20.779  0.00  0.00    +0.048 C 
ATOM      5  C   UNL     1      32.801 -10.406 -22.790  0.00  0.00    +0.016 C 
ATOM      6  C   UNL     1      32.202  -8.245 -21.457  0.00  0.00    +0.004 C 
ATOM      7  C   UNL     1      31.161 -10.098 -19.587  0.00  0.00    +0.015 C 
ATOM      8  C   UNL     1      31.605  -7.808 -20.268  0.00  0.00    +0.031 C 
ATOM      9  C   UNL     1      31.094  -8.722 -19.348  0.00  0.00    +0.004 C 
ATOM     10  H   UNL     1      31.694 -12.621 -20.816  0.00  0.00    +0.152 HD
ENDROOT
BRANCH   8  13
ATOM     11  N   UNL     1      30.617  -5.565 -20.669  0.00  0.00    -0.343 N 
ATOM     12  N   UNL     1      32.313  -5.841 -19.084  0.00  0.00    -0.285 NA
ATOM     13  C   UNL     1      31.520  -6.383 -19.991  0.00  0.00    +0.117 C 
ATOM     14  H   UNL     1      30.577  -4.603 -20.465  0.00  0.00    +0.144 HD
ATOM     15  H   UNL     1      30.021  -5.951 -21.350  0.00  0.00    +0.144 HD
ATOM     16  H   UNL     1      32.258  -4.876 -18.894  0.00  0.00    +0.188 HD
ENDBRANCH   8  13
BRANCH   2  17
ATOM     17  C   UNL     1      32.927 -12.920 -23.232  0.00  0.00    +0.050 C 
ATOM     18  C   UNL     1      33.386 -14.069 -22.586  0.00  0.00    +0.135 C 
ATOM     19  C   UNL     1      33.704 -15.207 -23.327  0.00  0.00    +0.037 C 
ATOM     20  C   UNL     1      32.786 -12.913 -24.621  0.00  0.00    +0.041 C 
ATOM     21  C   UNL     1      33.104 -14.051 -25.361  0.00  0.00    +0.139 C 
ATOM     22  C   UNL     1      33.563 -15.198 -24.715  0.00  0.00    +0.040 C 
BRANCH  19  23
ATOM     23  C   UNL     1      34.183 -16.411 -22.677  0.00  0.00    +0.003 C 
ATOM     24  C   UNL     1      34.112 -17.635 -23.341  0.00  0.00    +0.000 C 
ATOM     25  C   UNL     1      34.715 -16.342 -21.391  0.00  0.00    +0.000 C 
ATOM     26  C   UNL     1      34.574 -18.794 -22.716  0.00  0.00    +0.000 C 
ATOM     27  C   UNL     1      35.176 -17.500 -20.766  0.00  0.00    +0.000 C 
ATOM     28  C   UNL     1      35.106 -18.726 -21.428  0.00  0.00    +0.000 C 
ENDBRANCH  19  23
BRANCH  18  29
ATOM     29  O   UNL     1      33.524 -14.079 -21.227  0.00  0.00    -0.505 OA
ATOM     30  H   UNL     1      33.784 -14.866 -20.788  0.00  0.00    +0.292 HD
ENDBRANCH  18  29
BRANCH  21  31
ATOM     31  O   UNL     1      32.967 -14.041 -26.715  0.00  0.00    -0.471 OA
ATOM     32  C   UNL     1      32.921 -12.766 -27.354  0.00  0.00    +0.252 C 
ENDBRANCH  21  31
ENDBRANCH   2  17
TORSDOF 5
ENDMDL
MODEL 7
REMARK VINA RESULT:      -9.3      6.089      7.477
REMARK  Name = 447492
REMARK  5 active torsions:
REMARK  status: ('A' for Active; 'I' for Inactive)
REMARK    1  A    between atoms: C_2  and  C_17
REMARK    2  A    between atoms: C_8  and  C_13
REMARK    3  A    between atoms: C_18  and  O_29
REMARK    4  A    between atoms: C_19  and  C_23
REMARK    5  A    between atoms: C_21  and  O_31
REMARK                            x       y       z     vdW  Elec       q    Type
REMARK                         _______ _______ _______ _____ _____    ______ ____
ROOT
ATOM      1  N   UNL     1      31.949 -24.825 -13.343  0.00  0.00    -0.312 N 
ATOM      2  C   UNL     1      32.840 -23.788 -13.419  0.00  0.00    +0.051 C 
ATOM      3  C   UNL     1      30.947 -23.210 -14.511  0.00  0.00    +0.015 C 
ATOM      4  C   UNL     1      30.785 -24.500 -14.001  0.00  0.00    +0.048 C 
ATOM      5  C   UNL     1      32.249 -22.774 -14.136  0.00  0.00    +0.016 C 
ATOM      6  C   UNL     1      29.888 -22.629 -15.237  0.00  0.00    +0.004 C 
ATOM      7  C   UNL     1      29.612 -25.242 -14.182  0.00  0.00    +0.015 C 
ATOM      8  C   UNL     1      28.709 -23.360 -15.427  0.00  0.00    +0.031 C 
ATOM      9  C   UNL     1      28.575 -24.646 -14.906  0.00  0.00    +0.004 C 
ATOM     10  H   UNL     1      32.118 -25.680 -12.884  0.00  0.00    +0.152 HD
ENDROOT
BRANCH   8  13
ATOM     11  N   UNL     1      26.760 -21.830 -15.595  0.00  0.00    -0.343 N 
ATOM     12  N   UNL     1      27.405 -23.124 -17.431  0.00  0.00    -0.285 NA
ATOM     13  C   UNL     1      27.611 -22.768 -16.176  0.00  0.00    +0.117 C 
ATOM     14  H   UNL     1      26.023 -21.443 -16.120  0.00  0.00    +0.144 HD
ATOM     15  H   UNL     1      26.896 -21.555 -14.660  0.00  0.00    +0.144 HD
ATOM     16  H   UNL     1      26.663 -22.725 -17.941  0.00  0.00    +0.188 HD
ENDBRANCH   8  13
BRANCH   2  17
ATOM     17  C   UNL     1      34.149 -23.857 -12.814  0.00  0.00    +0.050 C 
ATOM     18  C   UNL     1      35.282 -24.139 -13.579  0.00  0.00    +0.135 C 
ATOM     19  C   UNL     1      36.536 -24.200 -12.973  0.00  0.00    +0.037 C 
ATOM     20  C   UNL     1      34.274 -23.635 -11.442  0.00  0.00    +0.041 C 
ATOM     21  C   UNL     1      35.529 -23.695 -10.837  0.00  0.00    +0.139 C 
ATOM     22  C   UNL     1      36.660 -23.978 -11.601  0.00  0.00    +0.040 C 
BRANCH  19  23
ATOM     23  C   UNL     1      37.725 -24.492 -13.749  0.00  0.00    +0.003 C 
ATOM     24  C   UNL     1      38.062 -23.688 -14.836  0.00  0.00    +0.000 C 
ATOM     25  C   UNL     1      38.531 -25.576 -13.404  0.00  0.00    +0.000 C 
ATOM     26  C   UNL     1      39.207 -23.968 -15.582  0.00  0.00    +0.000 C 
ATOM     27  C   UNL     1      39.675 -25.858 -14.150  0.00  0.00    +0.000 C 
ATOM     28  C   UNL     1      40.014 -25.054 -15.239  0.00  0.00    +0.000 C 
ENDBRANCH  19  23
BRANCH  18  29
ATOM     29  O   UNL     1      35.161 -24.356 -14.923  0.00  0.00    -0.505 OA
ATOM     30  H   UNL     1      35.472 -25.157 -15.298  0.00  0.00    +0.292 HD
ENDBRANCH  18  29
BRANCH  21  31
ATOM     31  O   UNL     1      35.650 -23.480  -9.498  0.00  0.00    -0.471 OA
ATOM     32  C   UNL     1      34.960 -24.379  -8.631  0.00  0.00    +0.252 C 
ENDBRANCH  21  31
ENDBRANCH   2  17
TORSDOF 5
ENDMDL
MODEL 8
REMARK VINA RESULT:      -9.1      4.015      6.600
REMARK  Name = 447492
REMARK  5 active torsions:
REMARK  status: ('A' for Active; 'I' for Inactive)
REMARK    1  A    between atoms: C_2  and  C_17
REMARK    2  A    between atoms: C_8  and  C_13
REMARK    3  A    between atoms: C_18  and  O_29
REMARK    4  A    between atoms: C_19  and  C_23
REMARK    5  A    between atoms: C_21  and  O_31
REMARK                            x       y       z     vdW  Elec       q    Type
REMARK                         _______ _______ _______ _____ _____    ______ ____
ROOT
ATOM      1  N   UNL     1      31.702 -23.576 -15.132  0.00  0.00    -0.312 N 
ATOM      2  C   UNL     1      32.418 -22.691 -15.893  0.00  0.00    +0.051 C 
ATOM      3  C   UNL     1      30.211 -22.336 -16.234  0.00  0.00    +0.015 C 
ATOM      4  C   UNL     1      30.352 -23.382 -15.321  0.00  0.00    +0.048 C 
ATOM      5  C   UNL     1      31.522 -21.910 -16.587  0.00  0.00    +0.016 C 
ATOM      6  C   UNL     1      28.914 -21.931 -16.606  0.00  0.00    +0.004 C 
ATOM      7  C   UNL     1      29.257 -24.047 -14.757  0.00  0.00    +0.015 C 
ATOM      8  C   UNL     1      27.808 -22.587 -16.051  0.00  0.00    +0.031 C 
ATOM      9  C   UNL     1      27.980 -23.628 -15.141  0.00  0.00    +0.004 C 
ATOM     10  H   UNL     1      32.097 -24.253 -14.536  0.00  0.00    +0.152 HD
ENDROOT
BRANCH   8  13
ATOM     11  N   UNL     1      26.099 -22.041 -17.768  0.00  0.00    -0.343 N 
ATOM     12  N   UNL     1      25.569 -21.915 -15.495  0.00  0.00    -0.285 NA
ATOM     13  C   UNL     1      26.466 -22.175 -16.430  0.00  0.00    +0.117 C 
ATOM     14  H   UNL     1      25.184 -21.761 -18.002  0.00  0.00    +0.144 HD
ATOM     15  H   UNL     1      26.753 -22.228 -18.478  0.00  0.00    +0.144 HD
ATOM     16  H   UNL     1      24.660 -21.635 -15.748  0.00  0.00    +0.188 HD
ENDBRANCH   8  13
BRANCH   2  17
ATOM     17  C   UNL     1      33.861 -22.670 -15.891  0.00  0.00    +0.050 C 
ATOM     18  C   UNL     1      34.588 -23.315 -14.888  0.00  0.00    +0.135 C 
ATOM     19  C   UNL     1      35.982 -23.284 -14.907  0.00  0.00    +0.037 C 
ATOM     20  C   UNL     1      34.532 -21.995 -16.911  0.00  0.00    +0.041 C 
ATOM     21  C   UNL     1      35.926 -21.964 -16.929  0.00  0.00    +0.139 C 
ATOM     22  C   UNL     1      36.651 -22.607 -15.927  0.00  0.00    +0.040 C 
BRANCH  19  23
ATOM     23  C   UNL     1      36.756 -23.945 -13.876  0.00  0.00    +0.003 C 
ATOM     24  C   UNL     1      37.339 -25.185 -14.132  0.00  0.00    +0.000 C 
ATOM     25  C   UNL     1      36.918 -23.340 -12.631  0.00  0.00    +0.000 C 
ATOM     26  C   UNL     1      38.085 -25.823 -13.140  0.00  0.00    +0.000 C 
ATOM     27  C   UNL     1      37.664 -23.976 -11.639  0.00  0.00    +0.000 C 
ATOM     28  C   UNL     1      38.248 -25.218 -11.894  0.00  0.00    +0.000 C 
ENDBRANCH  19  23
BRANCH  18  29
ATOM     29  O   UNL     1      33.933 -23.978 -13.889  0.00  0.00    -0.505 OA
ATOM     30  H   UNL     1      34.110 -24.886 -13.734  0.00  0.00    +0.292 HD
ENDBRANCH  18  29
BRANCH  21  31
ATOM     31  O   UNL     1      36.579 -21.303 -17.924  0.00  0.00    -0.471 OA
ATOM     32  C   UNL     1      35.820 -20.963 -19.084  0.00  0.00    +0.252 C 
ENDBRANCH  21  31
ENDBRANCH   2  17
TORSDOF 5
ENDMDL
MODEL 9
REMARK VINA RESULT:      -9.1     10.375     15.731
REMARK  Name = 447492
REMARK  5 active torsions:
REMARK  status: ('A' for Active; 'I' for Inactive)
REMARK    1  A    between atoms: C_2  and  C_17
REMARK    2  A    between atoms: C_8  and  C_13
REMARK    3  A    between atoms: C_18  and  O_29
REMARK    4  A    between atoms: C_19  and  C_23
REMARK    5  A    between atoms: C_21  and  O_31
REMARK                            x       y       z     vdW  Elec       q    Type
REMARK                         _______ _______ _______ _____ _____    ______ ____
ROOT
ATOM      1  N   UNL     1      31.720 -10.233 -21.674  0.00  0.00    -0.312 N 
ATOM      2  C   UNL     1      32.362  -9.602 -22.706  0.00  0.00    +0.051 C 
ATOM      3  C   UNL     1      33.186 -11.697 -22.500  0.00  0.00    +0.015 C 
ATOM      4  C   UNL     1      32.204 -11.514 -21.525  0.00  0.00    +0.048 C 
ATOM      5  C   UNL     1      33.276 -10.483 -23.237  0.00  0.00    +0.016 C 
ATOM      6  C   UNL     1      33.849 -12.939 -22.569  0.00  0.00    +0.004 C 
ATOM      7  C   UNL     1      31.849 -12.513 -20.612  0.00  0.00    +0.015 C 
ATOM      8  C   UNL     1      33.505 -13.948 -21.661  0.00  0.00    +0.031 C 
ATOM      9  C   UNL     1      32.520 -13.736 -20.698  0.00  0.00    +0.004 C 
ATOM     10  H   UNL     1      31.015  -9.828 -21.118  0.00  0.00    +0.152 HD
ENDROOT
BRANCH   8  13
ATOM     11  N   UNL     1      34.673 -15.734 -22.930  0.00  0.00    -0.343 N 
ATOM     12  N   UNL     1      34.344 -15.948 -20.626  0.00  0.00    -0.285 NA
ATOM     13  C   UNL     1      34.185 -15.232 -21.726  0.00  0.00    +0.117 C 
ATOM     14  H   UNL     1      35.130 -16.606 -22.951  0.00  0.00    +0.144 HD
ATOM     15  H   UNL     1      34.562 -15.217 -23.760  0.00  0.00    +0.144 HD
ATOM     16  H   UNL     1      34.803 -16.818 -20.666  0.00  0.00    +0.188 HD
ENDBRANCH   8  13
BRANCH   2  17
ATOM     17  C   UNL     1      32.053  -8.244 -23.084  0.00  0.00    +0.050 C 
ATOM     18  C   UNL     1      32.835  -7.561 -24.017  0.00  0.00    +0.135 C 
ATOM     19  C   UNL     1      32.516  -6.250 -24.369  0.00  0.00    +0.037 C 
ATOM     20  C   UNL     1      30.952  -7.612 -22.504  0.00  0.00    +0.041 C 
ATOM     21  C   UNL     1      30.634  -6.301 -22.855  0.00  0.00    +0.139 C 
ATOM     22  C   UNL     1      31.416  -5.619 -23.787  0.00  0.00    +0.040 C 
BRANCH  19  23
ATOM     23  C   UNL     1      33.315  -5.522 -25.334  0.00  0.00    +0.003 C 
ATOM     24  C   UNL     1      33.041  -5.644 -26.696  0.00  0.00    +0.000 C 
ATOM     25  C   UNL     1      34.353  -4.700 -24.900  0.00  0.00    +0.000 C 
ATOM     26  C   UNL     1      33.809  -4.942 -27.626  0.00  0.00    +0.000 C 
ATOM     27  C   UNL     1      35.122  -4.000 -25.830  0.00  0.00    +0.000 C 
ATOM     28  C   UNL     1      34.850  -4.120 -27.193  0.00  0.00    +0.000 C 
ENDBRANCH  19  23
BRANCH  18  29
ATOM     29  O   UNL     1      33.912  -8.179 -24.587  0.00  0.00    -0.505 OA
ATOM     30  H   UNL     1      33.841  -8.547 -25.447  0.00  0.00    +0.292 HD
ENDBRANCH  18  29
BRANCH  21  31
ATOM     31  O   UNL     1      29.561  -5.685 -22.287  0.00  0.00    -0.471 OA
ATOM     32  C   UNL     1      29.797  -4.434 -21.642  0.00  0.00    +0.252 C 
ENDBRANCH  21  31
ENDBRANCH   2  17
TORSDOF 5
ENDMDL
