MODEL 1
REMARK VINA RESULT:     -12.5      0.000      0.000
REMARK  Name = 23400214
REMARK  3 active torsions:
REMARK  status: ('A' for Active; 'I' for Inactive)
REMARK    1  A    between atoms: N_1  and  C_10
REMARK    2  A    between atoms: N_16  and  C_18
REMARK    3  A    between atoms: C_21  and  C_27
REMARK                            x       y       z     vdW  Elec       q    Type
REMARK                         _______ _______ _______ _____ _____    ______ ____
ROOT
ATOM      1  N   UNL     1      32.213  -7.845 -22.389  0.00  0.00    -0.176 N 
ATOM      2  N   UNL     1      33.329  -7.689 -23.126  0.00  0.00    -0.175 NA
ATOM      3  N   UNL     1      30.790  -9.608 -21.539  0.00  0.00    -0.231 NA
ATOM      4  N   UNL     1      31.592 -11.815 -22.201  0.00  0.00    -0.233 NA
ATOM      5  C   UNL     1      32.797  -9.899 -22.895  0.00  0.00    +0.152 C 
ATOM      6  C   UNL     1      31.851  -9.148 -22.220  0.00  0.00    +0.141 C 
ATOM      7  C   UNL     1      32.642 -11.281 -22.870  0.00  0.00    +0.118 C 
ATOM      8  C   UNL     1      33.680  -8.943 -23.430  0.00  0.00    +0.106 C 
ATOM      9  C   UNL     1      30.744 -10.958 -21.585  0.00  0.00    +0.253 C 
ATOM     10  N   UNL     1      33.557 -12.121 -23.529  0.00  0.00    -0.301 N 
ATOM     11  H   UNL     1      34.281 -11.636 -23.985  0.00  0.00    +0.153 HD
ENDROOT
BRANCH  10  12
ATOM     12  C   UNL     1      33.642 -13.523 -23.667  0.00  0.00    +0.045 C 
ATOM     13  C   UNL     1      33.190 -14.155 -24.825  0.00  0.00    -0.008 C 
ATOM     14  C   UNL     1      34.187 -14.278 -22.629  0.00  0.00    +0.019 C 
ATOM     15  C   UNL     1      34.278 -15.665 -22.747  0.00  0.00    +0.055 C 
ATOM     16  C   UNL     1      33.280 -15.543 -24.944  0.00  0.00    -0.003 C 
ATOM     17  C   UNL     1      33.826 -16.297 -23.905  0.00  0.00    +0.004 C 
ATOM     18  C   UNL     1      32.601 -13.372 -25.954  0.00  0.00    +0.032 C 
BRANCH  15  21
ATOM     19  O   UNL     1      34.540 -16.212 -20.482  0.00  0.00    -0.270 OA
ATOM     20  N   UNL     1      35.719 -17.487 -22.019  0.00  0.00    -0.299 N 
ATOM     21  C   UNL     1      34.846 -16.452 -21.664  0.00  0.00    +0.246 C 
ATOM     22  C   UNL     1      36.343 -18.369 -21.061  0.00  0.00    +0.111 C 
ATOM     23  H   UNL     1      35.917 -17.622 -22.974  0.00  0.00    +0.150 HD
ENDBRANCH  15  21
ENDBRANCH  10  12
BRANCH   1  24
ATOM     24  C   UNL     1      31.549  -6.730 -21.882  0.00  0.00    +0.075 C 
ATOM     25  C   UNL     1      30.535  -6.124 -22.625  0.00  0.00    +0.017 C 
ATOM     26  C   UNL     1      31.897  -6.218 -20.631  0.00  0.00    +0.017 C 
ATOM     27  C   UNL     1      29.870  -5.007 -22.118  0.00  0.00    +0.001 C 
ATOM     28  C   UNL     1      31.233  -5.102 -20.124  0.00  0.00    +0.001 C 
ATOM     29  C   UNL     1      30.219  -4.496 -20.868  0.00  0.00    +0.000 C 
ENDBRANCH   1  24
TORSDOF 3
ENDMDL
MODEL 2
REMARK VINA RESULT:     -11.6      0.771      1.912
REMARK  Name = 23400214
REMARK  3 active torsions:
REMARK  status: ('A' for Active; 'I' for Inactive)
REMARK    1  A    between atoms: N_1  and  C_10
REMARK    2  A    between atoms: N_16  and  C_18
REMARK    3  A    between atoms: C_21  and  C_27
REMARK                            x       y       z     vdW  Elec       q    Type
REMARK                         _______ _______ _______ _____ _____    ______ ____
ROOT
ATOM      1  N   UNL     1      31.173  -8.176 -22.127  0.00  0.00    -0.176 N 
ATOM      2  N   UNL     1      30.175  -8.911 -21.601  0.00  0.00    -0.175 NA
ATOM      3  N   UNL     1      33.282  -8.475 -23.279  0.00  0.00    -0.231 NA
ATOM      4  N   UNL     1      33.801 -10.835 -23.612  0.00  0.00    -0.233 NA
ATOM      5  C   UNL     1      31.792 -10.248 -22.509  0.00  0.00    +0.152 C 
ATOM      6  C   UNL     1      32.166  -8.927 -22.683  0.00  0.00    +0.141 C 
ATOM      7  C   UNL     1      32.656 -11.220 -22.999  0.00  0.00    +0.118 C 
ATOM      8  C   UNL     1      30.557 -10.171 -21.837  0.00  0.00    +0.106 C 
ATOM      9  C   UNL     1      34.040  -9.506 -23.713  0.00  0.00    +0.253 C 
ATOM     10  N   UNL     1      32.355 -12.587 -22.865  0.00  0.00    -0.301 N 
ATOM     11  H   UNL     1      31.502 -12.760 -22.406  0.00  0.00    +0.153 HD
ENDROOT
BRANCH  10  12
ATOM     12  C   UNL     1      33.034 -13.760 -23.259  0.00  0.00    +0.045 C 
ATOM     13  C   UNL     1      33.111 -14.123 -24.603  0.00  0.00    -0.008 C 
ATOM     14  C   UNL     1      33.632 -14.560 -22.285  0.00  0.00    +0.019 C 
ATOM     15  C   UNL     1      34.306 -15.724 -22.656  0.00  0.00    +0.055 C 
ATOM     16  C   UNL     1      33.785 -15.287 -24.974  0.00  0.00    -0.003 C 
ATOM     17  C   UNL     1      34.384 -16.087 -24.000  0.00  0.00    +0.004 C 
ATOM     18  C   UNL     1      32.480 -13.286 -25.668  0.00  0.00    +0.032 C 
BRANCH  15  21
ATOM     19  O   UNL     1      34.648 -16.405 -20.439  0.00  0.00    -0.270 OA
ATOM     20  N   UNL     1      35.829 -17.535 -22.084  0.00  0.00    -0.299 N 
ATOM     21  C   UNL     1      34.930 -16.558 -21.640  0.00  0.00    +0.246 C 
ATOM     22  C   UNL     1      36.509 -18.454 -21.200  0.00  0.00    +0.111 C 
ATOM     23  H   UNL     1      36.005 -17.601 -23.049  0.00  0.00    +0.150 HD
ENDBRANCH  15  21
ENDBRANCH  10  12
BRANCH   1  24
ATOM     24  C   UNL     1      31.123  -6.785 -22.069  0.00  0.00    +0.075 C 
ATOM     25  C   UNL     1      31.693  -6.111 -20.990  0.00  0.00    +0.017 C 
ATOM     26  C   UNL     1      30.501  -6.066 -23.091  0.00  0.00    +0.017 C 
ATOM     27  C   UNL     1      31.642  -4.718 -20.931  0.00  0.00    +0.001 C 
ATOM     28  C   UNL     1      30.450  -4.674 -23.032  0.00  0.00    +0.001 C 
ATOM     29  C   UNL     1      31.021  -3.999 -21.952  0.00  0.00    +0.000 C 
ENDBRANCH   1  24
TORSDOF 3
ENDMDL
MODEL 3
REMARK VINA RESULT:     -11.3      3.018      5.782
REMARK  Name = 23400214
REMARK  3 active torsions:
REMARK  status: ('A' for Active; 'I' for Inactive)
REMARK    1  A    between atoms: N_1  and  C_10
REMARK    2  A    between atoms: N_16  and  C_18
REMARK    3  A    between atoms: C_21  and  C_27
REMARK                            x       y       z     vdW  Elec       q    Type
REMARK                         _______ _______ _______ _____ _____    ______ ____
ROOT
ATOM      1  N   UNL     1      33.237 -13.014 -23.092  0.00  0.00    -0.176 N 
ATOM      2  N   UNL     1      33.263 -13.695 -24.252  0.00  0.00    -0.175 NA
ATOM      3  N   UNL     1      33.602 -13.375 -20.726  0.00  0.00    -0.231 NA
ATOM      4  N   UNL     1      34.213 -15.689 -20.250  0.00  0.00    -0.233 NA
ATOM      5  C   UNL     1      33.796 -15.049 -22.490  0.00  0.00    +0.152 C 
ATOM      6  C   UNL     1      33.548 -13.777 -22.006  0.00  0.00    +0.141 C 
ATOM      7  C   UNL     1      34.139 -16.024 -21.560  0.00  0.00    +0.118 C 
ATOM      8  C   UNL     1      33.605 -14.933 -23.880  0.00  0.00    +0.106 C 
ATOM      9  C   UNL     1      33.944 -14.403 -19.919  0.00  0.00    +0.253 C 
ATOM     10  N   UNL     1      34.408 -17.344 -21.965  0.00  0.00    -0.301 N 
ATOM     11  H   UNL     1      34.327 -17.484 -22.935  0.00  0.00    +0.153 HD
ENDROOT
BRANCH  10  12
ATOM     12  C   UNL     1      34.769 -18.509 -21.254  0.00  0.00    +0.045 C 
ATOM     13  C   UNL     1      36.103 -18.907 -21.168  0.00  0.00    -0.008 C 
ATOM     14  C   UNL     1      33.775 -19.263 -20.632  0.00  0.00    +0.019 C 
ATOM     15  C   UNL     1      34.115 -20.418 -19.925  0.00  0.00    +0.055 C 
ATOM     16  C   UNL     1      36.443 -20.062 -20.463  0.00  0.00    -0.003 C 
ATOM     17  C   UNL     1      35.448 -20.816 -19.840  0.00  0.00    +0.004 C 
ATOM     18  C   UNL     1      37.189 -18.118 -21.825  0.00  0.00    +0.032 C 
BRANCH  15  21
ATOM     19  O   UNL     1      31.933 -21.260 -19.760  0.00  0.00    -0.270 OA
ATOM     20  N   UNL     1      33.439 -21.900 -18.117  0.00  0.00    -0.299 N 
ATOM     21  C   UNL     1      33.078 -21.205 -19.277  0.00  0.00    +0.246 C 
ATOM     22  C   UNL     1      32.529 -22.741 -17.374  0.00  0.00    +0.111 C 
ATOM     23  H   UNL     1      34.363 -21.812 -17.790  0.00  0.00    +0.150 HD
ENDBRANCH  15  21
ENDBRANCH  10  12
BRANCH   1  24
ATOM     24  C   UNL     1      32.913 -11.659 -23.083  0.00  0.00    +0.075 C 
ATOM     25  C   UNL     1      33.781 -10.730 -23.659  0.00  0.00    +0.017 C 
ATOM     26  C   UNL     1      31.722 -11.229 -22.497  0.00  0.00    +0.017 C 
ATOM     27  C   UNL     1      33.457  -9.373 -23.650  0.00  0.00    +0.001 C 
ATOM     28  C   UNL     1      31.399  -9.873 -22.488  0.00  0.00    +0.001 C 
ATOM     29  C   UNL     1      32.266  -8.944 -23.064  0.00  0.00    +0.000 C 
ENDBRANCH   1  24
TORSDOF 3
ENDMDL
MODEL 4
REMARK VINA RESULT:     -11.0      7.980     11.900
REMARK  Name = 23400214
REMARK  3 active torsions:
REMARK  status: ('A' for Active; 'I' for Inactive)
REMARK    1  A    between atoms: N_1  and  C_10
REMARK    2  A    between atoms: N_16  and  C_18
REMARK    3  A    between atoms: C_21  and  C_27
REMARK                            x       y       z     vdW  Elec       q    Type
REMARK                         _______ _______ _______ _____ _____    ______ ____
ROOT
ATOM      1  N   UNL     1      35.021 -19.079 -21.156  0.00  0.00    -0.176 N 
ATOM      2  N   UNL     1      36.307 -18.962 -20.776  0.00  0.00    -0.175 NA
ATOM      3  N   UNL     1      32.978 -20.175 -20.457  0.00  0.00    -0.231 NA
ATOM      4  N   UNL     1      33.309 -21.491 -18.430  0.00  0.00    -0.233 NA
ATOM      5  C   UNL     1      35.144 -20.308 -19.342  0.00  0.00    +0.152 C 
ATOM      6  C   UNL     1      34.281 -19.873 -20.332  0.00  0.00    +0.141 C 
ATOM      7  C   UNL     1      34.617 -21.146 -18.366  0.00  0.00    +0.118 C 
ATOM      8  C   UNL     1      36.376 -19.711 -19.671  0.00  0.00    +0.106 C 
ATOM      9  C   UNL     1      32.581 -20.991 -19.457  0.00  0.00    +0.253 C 
ATOM     10  N   UNL     1      35.423 -21.635 -17.322  0.00  0.00    -0.301 N 
ATOM     11  H   UNL     1      36.356 -21.326 -17.366  0.00  0.00    +0.153 HD
ENDROOT
BRANCH  10  12
ATOM     12  C   UNL     1      35.159 -22.481 -16.224  0.00  0.00    +0.045 C 
ATOM     13  C   UNL     1      36.201 -23.005 -15.460  0.00  0.00    -0.008 C 
ATOM     14  C   UNL     1      33.837 -22.792 -15.906  0.00  0.00    +0.019 C 
ATOM     15  C   UNL     1      33.557 -23.628 -14.824  0.00  0.00    +0.055 C 
ATOM     16  C   UNL     1      35.922 -23.841 -14.378  0.00  0.00    -0.003 C 
ATOM     17  C   UNL     1      34.599 -24.151 -14.059  0.00  0.00    +0.004 C 
ATOM     18  C   UNL     1      37.627 -22.689 -15.777  0.00  0.00    +0.032 C 
BRANCH  15  21
ATOM     19  O   UNL     1      31.913 -24.602 -13.466  0.00  0.00    -0.270 OA
ATOM     20  N   UNL     1      31.188 -23.481 -15.362  0.00  0.00    -0.299 N 
ATOM     21  C   UNL     1      32.179 -23.951 -14.492  0.00  0.00    +0.246 C 
ATOM     22  C   UNL     1      29.775 -23.701 -15.155  0.00  0.00    +0.111 C 
ATOM     23  H   UNL     1      31.469 -22.972 -16.155  0.00  0.00    +0.150 HD
ENDBRANCH  15  21
ENDBRANCH  10  12
BRANCH   1  24
ATOM     24  C   UNL     1      34.565 -18.419 -22.296  0.00  0.00    +0.075 C 
ATOM     25  C   UNL     1      34.734 -17.040 -22.418  0.00  0.00    +0.017 C 
ATOM     26  C   UNL     1      33.938 -19.138 -23.314  0.00  0.00    +0.017 C 
ATOM     27  C   UNL     1      34.276 -16.379 -23.559  0.00  0.00    +0.001 C 
ATOM     28  C   UNL     1      33.480 -18.478 -24.454  0.00  0.00    +0.001 C 
ATOM     29  C   UNL     1      33.650 -17.097 -24.577  0.00  0.00    +0.000 C 
ENDBRANCH   1  24
TORSDOF 3
ENDMDL
MODEL 5
REMARK VINA RESULT:     -10.8      8.768     12.779
REMARK  Name = 23400214
REMARK  3 active torsions:
REMARK  status: ('A' for Active; 'I' for Inactive)
REMARK    1  A    between atoms: N_1  and  C_10
REMARK    2  A    between atoms: N_16  and  C_18
REMARK    3  A    between atoms: C_21  and  C_27
REMARK                            x       y       z     vdW  Elec       q    Type
REMARK                         _______ _______ _______ _____ _____    ______ ____
ROOT
ATOM      1  N   UNL     1      33.662 -20.020 -20.289  0.00  0.00    -0.176 N 
ATOM      2  N   UNL     1      32.400 -20.447 -20.096  0.00  0.00    -0.175 NA
ATOM      3  N   UNL     1      35.859 -20.236 -19.296  0.00  0.00    -0.231 NA
ATOM      4  N   UNL     1      35.822 -21.672 -17.324  0.00  0.00    -0.233 NA
ATOM      5  C   UNL     1      33.804 -21.283 -18.499  0.00  0.00    +0.152 C 
ATOM      6  C   UNL     1      34.543 -20.491 -19.361  0.00  0.00    +0.141 C 
ATOM      7  C   UNL     1      34.490 -21.885 -17.450  0.00  0.00    +0.118 C 
ATOM      8  C   UNL     1      32.493 -21.216 -19.006  0.00  0.00    +0.106 C 
ATOM      9  C   UNL     1      36.415 -20.872 -18.242  0.00  0.00    +0.253 C 
ATOM     10  N   UNL     1      33.819 -22.707 -16.527  0.00  0.00    -0.301 N 
ATOM     11  H   UNL     1      32.855 -22.797 -16.706  0.00  0.00    +0.153 HD
ENDROOT
BRANCH  10  12
ATOM     12  C   UNL     1      34.253 -23.427 -15.393  0.00  0.00    +0.045 C 
ATOM     13  C   UNL     1      33.440 -23.541 -14.266  0.00  0.00    -0.008 C 
ATOM     14  C   UNL     1      35.510 -24.029 -15.409  0.00  0.00    +0.019 C 
ATOM     15  C   UNL     1      35.956 -24.744 -14.297  0.00  0.00    +0.055 C 
ATOM     16  C   UNL     1      33.885 -24.256 -13.153  0.00  0.00    -0.003 C 
ATOM     17  C   UNL     1      35.143 -24.858 -13.170  0.00  0.00    +0.004 C 
ATOM     18  C   UNL     1      32.087 -22.906 -14.220  0.00  0.00    +0.032 C 
BRANCH  15  21
ATOM     19  O   UNL     1      37.409 -26.548 -13.933  0.00  0.00    -0.270 OA
ATOM     20  N   UNL     1      38.335 -24.604 -14.793  0.00  0.00    -0.299 N 
ATOM     21  C   UNL     1      37.268 -25.372 -14.314  0.00  0.00    +0.246 C 
ATOM     22  C   UNL     1      39.690 -25.095 -14.893  0.00  0.00    +0.111 C 
ATOM     23  H   UNL     1      38.152 -23.680 -15.078  0.00  0.00    +0.150 HD
ENDBRANCH  15  21
ENDBRANCH  10  12
BRANCH   1  24
ATOM     24  C   UNL     1      33.960 -19.178 -21.358  0.00  0.00    +0.075 C 
ATOM     25  C   UNL     1      34.785 -18.070 -21.164  0.00  0.00    +0.017 C 
ATOM     26  C   UNL     1      33.433 -19.442 -22.623  0.00  0.00    +0.017 C 
ATOM     27  C   UNL     1      35.083 -17.225 -22.235  0.00  0.00    +0.001 C 
ATOM     28  C   UNL     1      33.731 -18.599 -23.692  0.00  0.00    +0.001 C 
ATOM     29  C   UNL     1      34.556 -17.490 -23.499  0.00  0.00    +0.000 C 
ENDBRANCH   1  24
TORSDOF 3
ENDMDL
MODEL 6
REMARK VINA RESULT:     -10.6      2.837      9.087
REMARK  Name = 23400214
REMARK  3 active torsions:
REMARK  status: ('A' for Active; 'I' for Inactive)
REMARK    1  A    between atoms: N_1  and  C_10
REMARK    2  A    between atoms: N_16  and  C_18
REMARK    3  A    between atoms: C_21  and  C_27
REMARK                            x       y       z     vdW  Elec       q    Type
REMARK                         _______ _______ _______ _____ _____    ______ ____
ROOT
ATOM      1  N   UNL     1      33.901 -15.674 -23.302  0.00  0.00    -0.176 N 
ATOM      2  N   UNL     1      33.545 -15.403 -24.572  0.00  0.00    -0.175 NA
ATOM      3  N   UNL     1      34.040 -14.580 -21.147  0.00  0.00    -0.231 NA
ATOM      4  N   UNL     1      33.316 -12.254 -21.267  0.00  0.00    -0.233 NA
ATOM      5  C   UNL     1      33.284 -13.569 -23.235  0.00  0.00    +0.152 C 
ATOM      6  C   UNL     1      33.764 -14.611 -22.461  0.00  0.00    +0.141 C 
ATOM      7  C   UNL     1      33.059 -12.356 -22.593  0.00  0.00    +0.118 C 
ATOM      8  C   UNL     1      33.170 -14.121 -24.525  0.00  0.00    +0.106 C 
ATOM      9  C   UNL     1      33.783 -13.356 -20.635  0.00  0.00    +0.253 C 
ATOM     10  N   UNL     1      32.572 -11.244 -23.303  0.00  0.00    -0.301 N 
ATOM     11  H   UNL     1      32.418 -11.422 -24.259  0.00  0.00    +0.153 HD
ENDROOT
BRANCH  10  12
ATOM     12  C   UNL     1      32.260  -9.922 -22.917  0.00  0.00    +0.045 C 
ATOM     13  C   UNL     1      31.198  -9.664 -22.051  0.00  0.00    -0.008 C 
ATOM     14  C   UNL     1      33.029  -8.869 -23.410  0.00  0.00    +0.019 C 
ATOM     15  C   UNL     1      32.735  -7.556 -23.039  0.00  0.00    +0.055 C 
ATOM     16  C   UNL     1      30.902  -8.352 -21.680  0.00  0.00    -0.003 C 
ATOM     17  C   UNL     1      31.672  -7.298 -22.174  0.00  0.00    +0.004 C 
ATOM     18  C   UNL     1      30.356 -10.773 -21.507  0.00  0.00    +0.032 C 
BRANCH  15  21
ATOM     19  O   UNL     1      34.185  -5.733 -22.778  0.00  0.00    -0.270 OA
ATOM     20  N   UNL     1      33.557  -6.280 -24.942  0.00  0.00    -0.299 N 
ATOM     21  C   UNL     1      33.537  -6.458 -23.554  0.00  0.00    +0.246 C 
ATOM     22  C   UNL     1      34.323  -5.250 -25.604  0.00  0.00    +0.111 C 
ATOM     23  H   UNL     1      33.021  -6.891 -25.497  0.00  0.00    +0.150 HD
ENDBRANCH  15  21
ENDBRANCH  10  12
BRANCH   1  24
ATOM     24  C   UNL     1      34.357 -16.945 -22.959  0.00  0.00    +0.075 C 
ATOM     25  C   UNL     1      33.854 -18.068 -23.618  0.00  0.00    +0.017 C 
ATOM     26  C   UNL     1      35.315 -17.097 -21.957  0.00  0.00    +0.017 C 
ATOM     27  C   UNL     1      34.309 -19.341 -23.274  0.00  0.00    +0.001 C 
ATOM     28  C   UNL     1      35.770 -18.369 -21.613  0.00  0.00    +0.001 C 
ATOM     29  C   UNL     1      35.267 -19.492 -22.271  0.00  0.00    +0.000 C 
ENDBRANCH   1  24
TORSDOF 3
ENDMDL
MODEL 7
REMARK VINA RESULT:     -10.0      3.126      9.570
REMARK  Name = 23400214
REMARK  3 active torsions:
REMARK  status: ('A' for Active; 'I' for Inactive)
REMARK    1  A    between atoms: N_1  and  C_10
REMARK    2  A    between atoms: N_16  and  C_18
REMARK    3  A    between atoms: C_21  and  C_27
REMARK                            x       y       z     vdW  Elec       q    Type
REMARK                         _______ _______ _______ _____ _____    ______ ____
ROOT
ATOM      1  N   UNL     1      32.402 -12.385 -22.640  0.00  0.00    -0.176 N 
ATOM      2  N   UNL     1      31.286 -12.427 -21.889  0.00  0.00    -0.175 NA
ATOM      3  N   UNL     1      33.878 -10.767 -23.671  0.00  0.00    -0.231 NA
ATOM      4  N   UNL     1      33.152  -8.479 -23.239  0.00  0.00    -0.233 NA
ATOM      5  C   UNL     1      31.890 -10.271 -22.347  0.00  0.00    +0.152 C 
ATOM      6  C   UNL     1      32.808 -11.120 -22.942  0.00  0.00    +0.141 C 
ATOM      7  C   UNL     1      32.090  -8.906 -22.515  0.00  0.00    +0.118 C 
ATOM      8  C   UNL     1      30.979 -11.137 -21.713  0.00  0.00    +0.106 C 
ATOM      9  C   UNL     1      33.969  -9.423 -23.765  0.00  0.00    +0.253 C 
ATOM     10  N   UNL     1      31.207  -7.972 -21.944  0.00  0.00    -0.301 N 
ATOM     11  H   UNL     1      30.470  -8.383 -21.438  0.00  0.00    +0.153 HD
ENDROOT
BRANCH  10  12
ATOM     12  C   UNL     1      31.168  -6.561 -21.953  0.00  0.00    +0.045 C 
ATOM     13  C   UNL     1      31.303  -5.836 -20.770  0.00  0.00    -0.008 C 
ATOM     14  C   UNL     1      30.994  -5.892 -23.164  0.00  0.00    +0.019 C 
ATOM     15  C   UNL     1      30.952  -4.497 -23.192  0.00  0.00    +0.055 C 
ATOM     16  C   UNL     1      31.261  -4.441 -20.796  0.00  0.00    -0.003 C 
ATOM     17  C   UNL     1      31.087  -3.772 -22.008  0.00  0.00    +0.004 C 
ATOM     18  C   UNL     1      31.492  -6.525 -19.457  0.00  0.00    +0.032 C 
BRANCH  15  21
ATOM     19  O   UNL     1      31.214  -4.283 -25.512  0.00  0.00    -0.270 OA
ATOM     20  N   UNL     1      30.062  -2.593 -24.419  0.00  0.00    -0.299 N 
ATOM     21  C   UNL     1      30.770  -3.800 -24.455  0.00  0.00    +0.246 C 
ATOM     22  C   UNL     1      29.780  -1.798 -25.592  0.00  0.00    +0.111 C 
ATOM     23  H   UNL     1      29.738  -2.269 -23.548  0.00  0.00    +0.150 HD
ENDBRANCH  15  21
ENDBRANCH  10  12
BRANCH   1  24
ATOM     24  C   UNL     1      33.027 -13.568 -23.031  0.00  0.00    +0.075 C 
ATOM     25  C   UNL     1      32.860 -14.049 -24.330  0.00  0.00    +0.017 C 
ATOM     26  C   UNL     1      33.819 -14.273 -22.124  0.00  0.00    +0.017 C 
ATOM     27  C   UNL     1      33.484 -15.233 -24.722  0.00  0.00    +0.001 C 
ATOM     28  C   UNL     1      34.443 -15.456 -22.515  0.00  0.00    +0.001 C 
ATOM     29  C   UNL     1      34.276 -15.937 -23.815  0.00  0.00    +0.000 C 
ENDBRANCH   1  24
TORSDOF 3
ENDMDL
MODEL 8
REMARK VINA RESULT:      -9.9      2.969      4.678
REMARK  Name = 23400214
REMARK  3 active torsions:
REMARK  status: ('A' for Active; 'I' for Inactive)
REMARK    1  A    between atoms: N_1  and  C_10
REMARK    2  A    between atoms: N_16  and  C_18
REMARK    3  A    between atoms: C_21  and  C_27
REMARK                            x       y       z     vdW  Elec       q    Type
REMARK                         _______ _______ _______ _____ _____    ______ ____
ROOT
ATOM      1  N   UNL     1      31.647  -5.447 -24.811  0.00  0.00    -0.176 N 
ATOM      2  N   UNL     1      30.338  -5.748 -24.730  0.00  0.00    -0.175 NA
ATOM      3  N   UNL     1      33.800  -6.381 -24.216  0.00  0.00    -0.231 NA
ATOM      4  N   UNL     1      33.572  -8.549 -23.122  0.00  0.00    -0.233 NA
ATOM      5  C   UNL     1      31.621  -7.403 -23.816  0.00  0.00    +0.152 C 
ATOM      6  C   UNL     1      32.459  -6.404 -24.279  0.00  0.00    +0.141 C 
ATOM      7  C   UNL     1      32.222  -8.506 -23.220  0.00  0.00    +0.118 C 
ATOM      8  C   UNL     1      30.328  -6.940 -24.124  0.00  0.00    +0.106 C 
ATOM      9  C   UNL     1      34.268  -7.499 -23.620  0.00  0.00    +0.253 C 
ATOM     10  N   UNL     1      31.447  -9.568 -22.721  0.00  0.00    -0.301 N 
ATOM     11  H   UNL     1      30.478  -9.440 -22.840  0.00  0.00    +0.153 HD
ENDROOT
BRANCH  10  12
ATOM     12  C   UNL     1      31.782 -10.782 -22.082  0.00  0.00    +0.045 C 
ATOM     13  C   UNL     1      31.478 -10.988 -20.737  0.00  0.00    -0.008 C 
ATOM     14  C   UNL     1      32.424 -11.781 -22.813  0.00  0.00    +0.019 C 
ATOM     15  C   UNL     1      32.764 -12.987 -22.198  0.00  0.00    +0.055 C 
ATOM     16  C   UNL     1      31.817 -12.193 -20.121  0.00  0.00    -0.003 C 
ATOM     17  C   UNL     1      32.460 -13.193 -20.853  0.00  0.00    +0.004 C 
ATOM     18  C   UNL     1      30.790  -9.936 -19.930  0.00  0.00    +0.032 C 
BRANCH  15  21
ATOM     19  O   UNL     1      34.470 -14.562 -22.523  0.00  0.00    -0.270 OA
ATOM     20  N   UNL     1      32.849 -14.405 -24.175  0.00  0.00    -0.299 N 
ATOM     21  C   UNL     1      33.434 -14.028 -22.960  0.00  0.00    +0.246 C 
ATOM     22  C   UNL     1      33.382 -15.438 -25.031  0.00  0.00    +0.111 C 
ATOM     23  H   UNL     1      32.030 -13.941 -24.459  0.00  0.00    +0.150 HD
ENDBRANCH  15  21
ENDBRANCH  10  12
BRANCH   1  24
ATOM     24  C   UNL     1      32.055  -4.251 -25.398  0.00  0.00    +0.075 C 
ATOM     25  C   UNL     1      32.491  -4.238 -26.723  0.00  0.00    +0.017 C 
ATOM     26  C   UNL     1      32.029  -3.067 -24.661  0.00  0.00    +0.017 C 
ATOM     27  C   UNL     1      32.901  -3.040 -27.311  0.00  0.00    +0.001 C 
ATOM     28  C   UNL     1      32.438  -1.870 -25.249  0.00  0.00    +0.001 C 
ATOM     29  C   UNL     1      32.874  -1.857 -26.574  0.00  0.00    +0.000 C 
ENDBRANCH   1  24
TORSDOF 3
ENDMDL
MODEL 9
REMARK VINA RESULT:      -9.9      1.972      3.241
REMARK  Name = 23400214
REMARK  3 active torsions:
REMARK  status: ('A' for Active; 'I' for Inactive)
REMARK    1  A    between atoms: N_1  and  C_10
REMARK    2  A    between atoms: N_16  and  C_18
REMARK    3  A    between atoms: C_21  and  C_27
REMARK                            x       y       z     vdW  Elec       q    Type
REMARK                         _______ _______ _______ _____ _____    ______ ____
ROOT
ATOM      1  N   UNL     1      32.639 -10.889 -22.577  0.00  0.00    -0.176 N 
ATOM      2  N   UNL     1      33.130 -10.944 -23.829  0.00  0.00    -0.175 NA
ATOM      3  N   UNL     1      32.242 -12.339 -20.680  0.00  0.00    -0.231 NA
ATOM      4  N   UNL     1      32.936 -14.632 -21.135  0.00  0.00    -0.233 NA
ATOM      5  C   UNL     1      33.210 -12.994 -22.821  0.00  0.00    +0.152 C 
ATOM      6  C   UNL     1      32.664 -12.088 -21.929  0.00  0.00    +0.141 C 
ATOM      7  C   UNL     1      33.342 -14.308 -22.386  0.00  0.00    +0.118 C 
ATOM      8  C   UNL     1      33.477 -12.228 -23.972  0.00  0.00    +0.106 C 
ATOM      9  C   UNL     1      32.419 -13.642 -20.370  0.00  0.00    +0.253 C 
ATOM     10  N   UNL     1      33.887 -15.295 -23.227  0.00  0.00    -0.301 N 
ATOM     11  H   UNL     1      34.150 -14.957 -24.113  0.00  0.00    +0.153 HD
ENDROOT
BRANCH  10  12
ATOM     12  C   UNL     1      34.131 -16.674 -23.052  0.00  0.00    +0.045 C 
ATOM     13  C   UNL     1      33.641 -17.607 -23.965  0.00  0.00    -0.008 C 
ATOM     14  C   UNL     1      34.875 -17.099 -21.951  0.00  0.00    +0.019 C 
ATOM     15  C   UNL     1      35.126 -18.459 -21.762  0.00  0.00    +0.055 C 
ATOM     16  C   UNL     1      33.891 -18.967 -23.776  0.00  0.00    -0.003 C 
ATOM     17  C   UNL     1      34.635 -19.392 -22.674  0.00  0.00    +0.004 C 
ATOM     18  C   UNL     1      32.842 -17.180 -25.153  0.00  0.00    +0.032 C 
BRANCH  15  21
ATOM     19  O   UNL     1      36.899 -18.261 -20.241  0.00  0.00    -0.270 OA
ATOM     20  N   UNL     1      35.456 -20.054 -19.953  0.00  0.00    -0.299 N 
ATOM     21  C   UNL     1      35.901 -18.903 -20.614  0.00  0.00    +0.246 C 
ATOM     22  C   UNL     1      36.105 -20.604 -18.785  0.00  0.00    +0.111 C 
ATOM     23  H   UNL     1      34.658 -20.511 -20.301  0.00  0.00    +0.150 HD
ENDBRANCH  15  21
ENDBRANCH  10  12
BRANCH   1  24
ATOM     24  C   UNL     1      32.169  -9.682 -22.063  0.00  0.00    +0.075 C 
ATOM     25  C   UNL     1      32.261  -8.516 -22.824  0.00  0.00    +0.017 C 
ATOM     26  C   UNL     1      31.606  -9.638 -20.787  0.00  0.00    +0.017 C 
ATOM     27  C   UNL     1      31.791  -7.308 -22.309  0.00  0.00    +0.001 C 
ATOM     28  C   UNL     1      31.136  -8.431 -20.273  0.00  0.00    +0.001 C 
ATOM     29  C   UNL     1      31.229  -7.264 -21.034  0.00  0.00    +0.000 C 
ENDBRANCH   1  24
TORSDOF 3
ENDMDL
