MODEL 1
REMARK VINA RESULT:     -12.5      0.000      0.000
REMARK  Name = 54689025
REMARK  9 active torsions:
REMARK  status: ('A' for Active; 'I' for Inactive)
REMARK    1  A    between atoms: C_1  and  C_21
REMARK    2  A    between atoms: C_4  and  N_8
REMARK    3  A    between atoms: C_9  and  C_11
REMARK    4  A    between atoms: C_11  and  N_13
REMARK    5  A    between atoms: C_14  and  O_16
REMARK    6  A    between atoms: O_16  and  C_17
REMARK    7  A    between atoms: C_21  and  C_24
REMARK    8  A    between atoms: C_21  and  C_35
REMARK    9  A    between atoms: C_25  and  O_33
REMARK                            x       y       z     vdW  Elec       q    Type
REMARK                         _______ _______ _______ _____ _____    ______ ____
ROOT
ATOM      1  C   UNL     1      34.122 -19.892 -20.644  0.00  0.00    -0.017 C 
ATOM      2  C   UNL     1      34.524 -20.658 -19.551  0.00  0.00    +0.011 C 
ATOM      3  C   UNL     1      32.765 -19.681 -20.887  0.00  0.00    -0.004 C 
ATOM      4  C   UNL     1      33.570 -21.214 -18.699  0.00  0.00    +0.050 C 
ATOM      5  C   UNL     1      31.810 -20.237 -20.036  0.00  0.00    +0.001 C 
ATOM      6  C   UNL     1      32.212 -21.003 -18.942  0.00  0.00    +0.015 C 
ENDROOT
BRANCH   4   8
ATOM      7  O   UNL     1      36.145 -21.201 -17.152  0.00  0.00    -0.273 OA
ATOM      8  N   UNL     1      33.971 -21.981 -17.605  0.00  0.00    -0.283 N 
ATOM      9  C   UNL     1      35.193 -21.938 -16.915  0.00  0.00    +0.246 C 
ATOM     10  H   UNL     1      33.314 -22.636 -17.275  0.00  0.00    +0.155 HD
BRANCH   9  11
ATOM     11  C   UNL     1      35.213 -22.947 -15.781  0.00  0.00    +0.179 C 
BRANCH  11  13
ATOM     12  O   UNL     1      37.043 -22.389 -13.596  0.00  0.00    -0.226 OA
ATOM     13  N   UNL     1      36.538 -23.461 -15.593  0.00  0.00    -0.262 N 
ATOM     14  C   UNL     1      37.349 -23.141 -14.516  0.00  0.00    +0.402 C 
ATOM     15  H   UNL     1      36.895 -24.079 -16.271  0.00  0.00    +0.153 HD
BRANCH  14  16
ATOM     16  O   UNL     1      38.547 -23.789 -14.623  0.00  0.00    -0.442 OA
BRANCH  16  17
ATOM     17  C   UNL     1      38.647 -25.035 -13.924  0.00  0.00    +0.138 C 
ATOM     18  C   UNL     1      38.297 -24.799 -12.455  0.00  0.00    +0.044 C 
ATOM     19  C   UNL     1      40.089 -25.524 -14.061  0.00  0.00    +0.044 C 
ATOM     20  C   UNL     1      37.679 -26.029 -14.562  0.00  0.00    +0.044 C 
ENDBRANCH  16  17
ENDBRANCH  14  16
ENDBRANCH  11  13
ENDBRANCH   9  11
ENDBRANCH   4   8
BRANCH   1  21
ATOM     21  C   UNL     1      35.162 -19.287 -21.571  0.00  0.00    +0.054 C 
BRANCH  21  24
ATOM     22  O   UNL     1      33.725 -17.060 -24.274  0.00  0.00    -0.421 OA
ATOM     23  O   UNL     1      34.254 -19.271 -24.193  0.00  0.00    -0.245 OA
ATOM     24  C   UNL     1      34.647 -18.023 -22.204  0.00  0.00    +0.091 A 
ATOM     25  C   UNL     1      34.571 -16.820 -21.604  0.00  0.00    +0.139 A 
ATOM     26  C   UNL     1      34.204 -18.187 -23.619  0.00  0.00    +0.345 A 
ATOM     27  C   UNL     1      34.061 -15.651 -22.323  0.00  0.00    +0.068 A 
ATOM     28  C   UNL     1      33.651 -15.806 -23.643  0.00  0.00    +0.152 A 
ATOM     29  C   UNL     1      33.961 -14.374 -21.753  0.00  0.00    +0.006 C 
ATOM     30  C   UNL     1      33.154 -14.744 -24.399  0.00  0.00    +0.038 C 
ATOM     31  C   UNL     1      33.463 -13.298 -22.497  0.00  0.00    +0.000 C 
ATOM     32  C   UNL     1      33.062 -13.483 -23.819  0.00  0.00    +0.003 C 
BRANCH  25  33
ATOM     33  O   UNL     1      34.947 -16.570 -20.301  0.00  0.00    -0.506 OA
ATOM     34  H   UNL     1      34.820 -15.719 -19.931  0.00  0.00    +0.292 HD
ENDBRANCH  25  33
ENDBRANCH  21  24
BRANCH  21  35
ATOM     35  C   UNL     1      36.518 -19.017 -20.887  0.00  0.00    +0.009 C 
ATOM     36  C   UNL     1      37.484 -18.236 -21.772  0.00  0.00    +0.001 C 
ENDBRANCH  21  35
ENDBRANCH   1  21
TORSDOF 9
ENDMDL
MODEL 2
REMARK VINA RESULT:     -12.1      1.543      2.091
REMARK  Name = 54689025
REMARK  9 active torsions:
REMARK  status: ('A' for Active; 'I' for Inactive)
REMARK    1  A    between atoms: C_1  and  C_21
REMARK    2  A    between atoms: C_4  and  N_8
REMARK    3  A    between atoms: C_9  and  C_11
REMARK    4  A    between atoms: C_11  and  N_13
REMARK    5  A    between atoms: C_14  and  O_16
REMARK    6  A    between atoms: O_16  and  C_17
REMARK    7  A    between atoms: C_21  and  C_24
REMARK    8  A    between atoms: C_21  and  C_35
REMARK    9  A    between atoms: C_25  and  O_33
REMARK                            x       y       z     vdW  Elec       q    Type
REMARK                         _______ _______ _______ _____ _____    ______ ____
ROOT
ATOM      1  C   UNL     1      34.332 -19.443 -21.356  0.00  0.00    -0.017 C 
ATOM      2  C   UNL     1      35.116 -20.116 -20.420  0.00  0.00    +0.011 C 
ATOM      3  C   UNL     1      32.941 -19.456 -21.240  0.00  0.00    -0.004 C 
ATOM      4  C   UNL     1      34.511 -20.802 -19.367  0.00  0.00    +0.050 C 
ATOM      5  C   UNL     1      32.336 -20.143 -20.188  0.00  0.00    +0.001 C 
ATOM      6  C   UNL     1      33.120 -20.815 -19.251  0.00  0.00    +0.015 C 
ENDROOT
BRANCH   4   8
ATOM      7  O   UNL     1      36.761 -19.814 -17.638  0.00  0.00    -0.273 OA
ATOM      8  N   UNL     1      35.295 -21.477 -18.430  0.00  0.00    -0.283 N 
ATOM      9  C   UNL     1      36.341 -20.967 -17.644  0.00  0.00    +0.246 C 
ATOM     10  H   UNL     1      35.087 -22.431 -18.303  0.00  0.00    +0.155 HD
BRANCH   9  11
ATOM     11  C   UNL     1      36.926 -22.047 -16.753  0.00  0.00    +0.179 C 
BRANCH  11  13
ATOM     12  O   UNL     1      37.787 -23.140 -14.202  0.00  0.00    -0.226 OA
ATOM     13  N   UNL     1      36.162 -22.167 -15.545  0.00  0.00    -0.262 N 
ATOM     14  C   UNL     1      36.652 -22.704 -14.366  0.00  0.00    +0.402 C 
ATOM     15  H   UNL     1      35.231 -21.848 -15.555  0.00  0.00    +0.153 HD
BRANCH  14  16
ATOM     16  O   UNL     1      35.684 -22.678 -13.401  0.00  0.00    -0.442 OA
BRANCH  16  17
ATOM     17  C   UNL     1      35.063 -23.934 -13.109  0.00  0.00    +0.138 C 
ATOM     18  C   UNL     1      35.396 -24.916 -14.231  0.00  0.00    +0.044 C 
ATOM     19  C   UNL     1      33.556 -23.695 -13.034  0.00  0.00    +0.044 C 
ATOM     20  C   UNL     1      35.594 -24.439 -11.768  0.00  0.00    +0.044 C 
ENDBRANCH  16  17
ENDBRANCH  14  16
ENDBRANCH  11  13
ENDBRANCH   9  11
ENDBRANCH   4   8
BRANCH   1  21
ATOM     21  C   UNL     1      34.991 -18.696 -22.501  0.00  0.00    +0.054 C 
BRANCH  21  24
ATOM     22  O   UNL     1      33.433 -15.654 -24.130  0.00  0.00    -0.421 OA
ATOM     23  O   UNL     1      33.935 -17.741 -24.884  0.00  0.00    -0.245 OA
ATOM     24  C   UNL     1      34.458 -17.292 -22.605  0.00  0.00    +0.091 A 
ATOM     25  C   UNL     1      34.433 -16.388 -21.607  0.00  0.00    +0.139 A 
ATOM     26  C   UNL     1      33.933 -16.938 -23.955  0.00  0.00    +0.345 A 
ATOM     27  C   UNL     1      33.899 -15.042 -21.825  0.00  0.00    +0.068 A 
ATOM     28  C   UNL     1      33.413 -14.713 -23.087  0.00  0.00    +0.152 A 
ATOM     29  C   UNL     1      33.849 -14.057 -20.828  0.00  0.00    +0.006 C 
ATOM     30  C   UNL     1      32.888 -13.453 -23.378  0.00  0.00    +0.038 C 
ATOM     31  C   UNL     1      33.325 -12.789 -21.104  0.00  0.00    +0.000 C 
ATOM     32  C   UNL     1      32.847 -12.488 -22.377  0.00  0.00    +0.003 C 
BRANCH  25  33
ATOM     33  O   UNL     1      34.887 -16.622 -20.326  0.00  0.00    -0.506 OA
ATOM     34  H   UNL     1      34.276 -16.786 -19.635  0.00  0.00    +0.292 HD
ENDBRANCH  25  33
ENDBRANCH  21  24
BRANCH  21  35
ATOM     35  C   UNL     1      36.531 -18.668 -22.418  0.00  0.00    +0.009 C 
ATOM     36  C   UNL     1      37.044 -18.300 -21.030  0.00  0.00    +0.001 C 
ENDBRANCH  21  35
ENDBRANCH   1  21
TORSDOF 9
ENDMDL
MODEL 3
REMARK VINA RESULT:     -11.7      5.120     12.021
REMARK  Name = 54689025
REMARK  9 active torsions:
REMARK  status: ('A' for Active; 'I' for Inactive)
REMARK    1  A    between atoms: C_1  and  C_21
REMARK    2  A    between atoms: C_4  and  N_8
REMARK    3  A    between atoms: C_9  and  C_11
REMARK    4  A    between atoms: C_11  and  N_13
REMARK    5  A    between atoms: C_14  and  O_16
REMARK    6  A    between atoms: O_16  and  C_17
REMARK    7  A    between atoms: C_21  and  C_24
REMARK    8  A    between atoms: C_21  and  C_35
REMARK    9  A    between atoms: C_25  and  O_33
REMARK                            x       y       z     vdW  Elec       q    Type
REMARK                         _______ _______ _______ _____ _____    ______ ____
ROOT
ATOM      1  C   UNL     1      34.366 -15.992 -21.931  0.00  0.00    -0.017 C 
ATOM      2  C   UNL     1      34.215 -14.851 -22.718  0.00  0.00    +0.011 C 
ATOM      3  C   UNL     1      34.150 -15.924 -20.554  0.00  0.00    -0.004 C 
ATOM      4  C   UNL     1      33.847 -13.641 -22.129  0.00  0.00    +0.050 C 
ATOM      5  C   UNL     1      33.783 -14.714 -19.965  0.00  0.00    +0.001 C 
ATOM      6  C   UNL     1      33.631 -13.573 -20.752  0.00  0.00    +0.015 C 
ENDROOT
BRANCH   4   8
ATOM      7  O   UNL     1      31.644 -11.599 -22.194  0.00  0.00    -0.273 OA
ATOM      8  N   UNL     1      33.696 -12.499 -22.916  0.00  0.00    -0.283 N 
ATOM      9  C   UNL     1      32.641 -11.572 -22.908  0.00  0.00    +0.246 C 
ATOM     10  H   UNL     1      34.422 -12.319 -23.556  0.00  0.00    +0.155 HD
BRANCH   9  11
ATOM     11  C   UNL     1      32.878 -10.472 -23.927  0.00  0.00    +0.179 C 
BRANCH  11  13
ATOM     12  O   UNL     1      34.720  -8.250 -23.598  0.00  0.00    -0.226 OA
ATOM     13  N   UNL     1      32.611  -9.188 -23.348  0.00  0.00    -0.262 N 
ATOM     14  C   UNL     1      33.552  -8.178 -23.229  0.00  0.00    +0.402 C 
ATOM     15  H   UNL     1      31.702  -9.012 -23.014  0.00  0.00    +0.153 HD
BRANCH  14  16
ATOM     16  O   UNL     1      32.991  -7.082 -22.637  0.00  0.00    -0.442 OA
BRANCH  16  17
ATOM     17  C   UNL     1      32.655  -6.003 -23.516  0.00  0.00    +0.138 C 
ATOM     18  C   UNL     1      33.941  -5.282 -23.917  0.00  0.00    +0.044 C 
ATOM     19  C   UNL     1      31.726  -5.060 -22.752  0.00  0.00    +0.044 C 
ATOM     20  C   UNL     1      31.947  -6.577 -24.743  0.00  0.00    +0.044 C 
ENDBRANCH  16  17
ENDBRANCH  14  16
ENDBRANCH  11  13
ENDBRANCH   9  11
ENDBRANCH   4   8
BRANCH   1  21
ATOM     21  C   UNL     1      34.766 -17.309 -22.572  0.00  0.00    +0.054 C 
BRANCH  21  24
ATOM     22  O   UNL     1      36.417 -19.614 -20.063  0.00  0.00    -0.421 OA
ATOM     23  O   UNL     1      37.197 -17.940 -21.391  0.00  0.00    -0.245 OA
ATOM     24  C   UNL     1      34.866 -18.401 -21.541  0.00  0.00    +0.091 A 
ATOM     25  C   UNL     1      33.843 -19.155 -21.097  0.00  0.00    +0.139 A 
ATOM     26  C   UNL     1      36.245 -18.614 -21.012  0.00  0.00    +0.345 A 
ATOM     27  C   UNL     1      34.060 -20.201 -20.095  0.00  0.00    +0.068 A 
ATOM     28  C   UNL     1      35.346 -20.400 -19.606  0.00  0.00    +0.152 A 
ATOM     29  C   UNL     1      33.036 -21.019 -19.596  0.00  0.00    +0.006 C 
ATOM     30  C   UNL     1      35.638 -21.376 -18.651  0.00  0.00    +0.038 C 
ATOM     31  C   UNL     1      33.311 -22.001 -18.638  0.00  0.00    +0.000 C 
ATOM     32  C   UNL     1      34.611 -22.180 -18.168  0.00  0.00    +0.003 C 
BRANCH  25  33
ATOM     33  O   UNL     1      32.536 -19.028 -21.518  0.00  0.00    -0.506 OA
ATOM     34  H   UNL     1      31.860 -18.839 -20.898  0.00  0.00    +0.292 HD
ENDBRANCH  25  33
ENDBRANCH  21  24
BRANCH  21  35
ATOM     35  C   UNL     1      33.830 -17.751 -23.716  0.00  0.00    +0.009 C 
ATOM     36  C   UNL     1      34.266 -19.057 -24.370  0.00  0.00    +0.001 C 
ENDBRANCH  21  35
ENDBRANCH   1  21
TORSDOF 9
ENDMDL
MODEL 4
REMARK VINA RESULT:     -10.9      1.741      2.033
REMARK  Name = 54689025
REMARK  9 active torsions:
REMARK  status: ('A' for Active; 'I' for Inactive)
REMARK    1  A    between atoms: C_1  and  C_21
REMARK    2  A    between atoms: C_4  and  N_8
REMARK    3  A    between atoms: C_9  and  C_11
REMARK    4  A    between atoms: C_11  and  N_13
REMARK    5  A    between atoms: C_14  and  O_16
REMARK    6  A    between atoms: O_16  and  C_17
REMARK    7  A    between atoms: C_21  and  C_24
REMARK    8  A    between atoms: C_21  and  C_35
REMARK    9  A    between atoms: C_25  and  O_33
REMARK                            x       y       z     vdW  Elec       q    Type
REMARK                         _______ _______ _______ _____ _____    ______ ____
ROOT
ATOM      1  C   UNL     1      34.197 -20.075 -20.453  0.00  0.00    -0.017 C 
ATOM      2  C   UNL     1      34.527 -21.023 -19.485  0.00  0.00    +0.011 C 
ATOM      3  C   UNL     1      32.871 -19.673 -20.613  0.00  0.00    -0.004 C 
ATOM      4  C   UNL     1      33.531 -21.567 -18.674  0.00  0.00    +0.050 C 
ATOM      5  C   UNL     1      31.875 -20.219 -19.804  0.00  0.00    +0.001 C 
ATOM      6  C   UNL     1      32.205 -21.165 -18.834  0.00  0.00    +0.015 C 
ENDROOT
BRANCH   4   8
ATOM      7  O   UNL     1      32.149 -22.286 -16.105  0.00  0.00    -0.273 OA
ATOM      8  N   UNL     1      33.860 -22.516 -17.705  0.00  0.00    -0.283 N 
ATOM      9  C   UNL     1      33.178 -22.815 -16.515  0.00  0.00    +0.246 C 
ATOM     10  H   UNL     1      34.674 -23.044 -17.879  0.00  0.00    +0.155 HD
BRANCH   9  11
ATOM     11  C   UNL     1      33.882 -23.920 -15.749  0.00  0.00    +0.179 C 
BRANCH  11  13
ATOM     12  O   UNL     1      33.344 -23.941 -12.894  0.00  0.00    -0.226 OA
ATOM     13  N   UNL     1      34.687 -23.366 -14.699  0.00  0.00    -0.262 N 
ATOM     14  C   UNL     1      34.355 -23.420 -13.355  0.00  0.00    +0.402 C 
ATOM     15  H   UNL     1      35.528 -22.920 -14.949  0.00  0.00    +0.153 HD
BRANCH  14  16
ATOM     16  O   UNL     1      35.321 -22.806 -12.609  0.00  0.00    -0.442 OA
BRANCH  16  17
ATOM     17  C   UNL     1      36.144 -23.673 -11.819  0.00  0.00    +0.138 C 
ATOM     18  C   UNL     1      35.495 -23.841 -10.446  0.00  0.00    +0.044 C 
ATOM     19  C   UNL     1      37.515 -23.011 -11.689  0.00  0.00    +0.044 C 
ATOM     20  C   UNL     1      36.261 -25.017 -12.535  0.00  0.00    +0.044 C 
ENDBRANCH  16  17
ENDBRANCH  14  16
ENDBRANCH  11  13
ENDBRANCH   9  11
ENDBRANCH   4   8
BRANCH   1  21
ATOM     21  C   UNL     1      35.282 -19.482 -21.335  0.00  0.00    +0.054 C 
BRANCH  21  24
ATOM     22  O   UNL     1      33.883 -17.501 -24.242  0.00  0.00    -0.421 OA
ATOM     23  O   UNL     1      34.428 -19.693 -23.967  0.00  0.00    -0.245 OA
ATOM     24  C   UNL     1      34.770 -18.280 -22.082  0.00  0.00    +0.091 A 
ATOM     25  C   UNL     1      34.671 -17.032 -21.585  0.00  0.00    +0.139 A 
ATOM     26  C   UNL     1      34.357 -18.566 -23.486  0.00  0.00    +0.345 A 
ATOM     27  C   UNL     1      34.166 -15.932 -22.409  0.00  0.00    +0.068 A 
ATOM     28  C   UNL     1      33.786 -16.201 -23.720  0.00  0.00    +0.152 A 
ATOM     29  C   UNL     1      34.044 -14.613 -21.950  0.00  0.00    +0.006 C 
ATOM     30  C   UNL     1      33.295 -15.210 -24.572  0.00  0.00    +0.038 C 
ATOM     31  C   UNL     1      33.553 -13.607 -22.791  0.00  0.00    +0.000 C 
ATOM     32  C   UNL     1      33.181 -13.906 -24.100  0.00  0.00    +0.003 C 
BRANCH  25  33
ATOM     33  O   UNL     1      35.019 -16.671 -20.300  0.00  0.00    -0.506 OA
ATOM     34  H   UNL     1      34.739 -15.847 -19.953  0.00  0.00    +0.292 HD
ENDBRANCH  25  33
ENDBRANCH  21  24
BRANCH  21  35
ATOM     35  C   UNL     1      36.570 -19.115 -20.569  0.00  0.00    +0.009 C 
ATOM     36  C   UNL     1      36.546 -19.569 -19.114  0.00  0.00    +0.001 C 
ENDBRANCH  21  35
ENDBRANCH   1  21
TORSDOF 9
ENDMDL
MODEL 5
REMARK VINA RESULT:     -10.7      1.528      2.527
REMARK  Name = 54689025
REMARK  9 active torsions:
REMARK  status: ('A' for Active; 'I' for Inactive)
REMARK    1  A    between atoms: C_1  and  C_21
REMARK    2  A    between atoms: C_4  and  N_8
REMARK    3  A    between atoms: C_9  and  C_11
REMARK    4  A    between atoms: C_11  and  N_13
REMARK    5  A    between atoms: C_14  and  O_16
REMARK    6  A    between atoms: O_16  and  C_17
REMARK    7  A    between atoms: C_21  and  C_24
REMARK    8  A    between atoms: C_21  and  C_35
REMARK    9  A    between atoms: C_25  and  O_33
REMARK                            x       y       z     vdW  Elec       q    Type
REMARK                         _______ _______ _______ _____ _____    ______ ____
ROOT
ATOM      1  C   UNL     1      34.277 -19.344 -21.440  0.00  0.00    -0.017 C 
ATOM      2  C   UNL     1      35.072 -19.878 -20.427  0.00  0.00    +0.011 C 
ATOM      3  C   UNL     1      32.891 -19.490 -21.390  0.00  0.00    -0.004 C 
ATOM      4  C   UNL     1      34.481 -20.557 -19.361  0.00  0.00    +0.050 C 
ATOM      5  C   UNL     1      32.300 -20.170 -20.325  0.00  0.00    +0.001 C 
ATOM      6  C   UNL     1      33.095 -20.703 -19.311  0.00  0.00    +0.015 C 
ENDROOT
BRANCH   4   8
ATOM      7  O   UNL     1      33.781 -22.443 -17.130  0.00  0.00    -0.273 OA
ATOM      8  N   UNL     1      35.276 -21.092 -18.347  0.00  0.00    -0.283 N 
ATOM      9  C   UNL     1      34.899 -21.974 -17.322  0.00  0.00    +0.246 C 
ATOM     10  H   UNL     1      36.222 -20.818 -18.352  0.00  0.00    +0.155 HD
BRANCH   9  11
ATOM     11  C   UNL     1      36.081 -22.307 -16.430  0.00  0.00    +0.179 C 
BRANCH  11  13
ATOM     12  O   UNL     1      36.052 -24.975 -15.281  0.00  0.00    -0.226 OA
ATOM     13  N   UNL     1      35.629 -22.697 -15.126  0.00  0.00    -0.262 N 
ATOM     14  C   UNL     1      35.650 -24.000 -14.654  0.00  0.00    +0.402 C 
ATOM     15  H   UNL     1      35.283 -21.996 -14.529  0.00  0.00    +0.153 HD
BRANCH  14  16
ATOM     16  O   UNL     1      35.156 -24.045 -13.381  0.00  0.00    -0.442 OA
BRANCH  16  17
ATOM     17  C   UNL     1      36.124 -24.231 -12.343  0.00  0.00    +0.138 C 
ATOM     18  C   UNL     1      36.778 -25.600 -12.527  0.00  0.00    +0.044 C 
ATOM     19  C   UNL     1      35.384 -24.163 -11.008  0.00  0.00    +0.044 C 
ATOM     20  C   UNL     1      37.162 -23.114 -12.440  0.00  0.00    +0.044 C 
ENDBRANCH  16  17
ENDBRANCH  14  16
ENDBRANCH  11  13
ENDBRANCH   9  11
ENDBRANCH   4   8
BRANCH   1  21
ATOM     21  C   UNL     1      34.921 -18.604 -22.599  0.00  0.00    +0.054 C 
BRANCH  21  24
ATOM     22  O   UNL     1      34.300 -15.126 -21.237  0.00  0.00    -0.421 OA
ATOM     23  O   UNL     1      35.129 -17.036 -20.319  0.00  0.00    -0.245 OA
ATOM     24  C   UNL     1      34.503 -17.158 -22.613  0.00  0.00    +0.091 A 
ATOM     25  C   UNL     1      34.008 -16.495 -23.675  0.00  0.00    +0.139 A 
ATOM     26  C   UNL     1      34.675 -16.462 -21.304  0.00  0.00    +0.345 A 
ATOM     27  C   UNL     1      33.623 -15.086 -23.570  0.00  0.00    +0.068 A 
ATOM     28  C   UNL     1      33.781 -14.441 -22.348  0.00  0.00    +0.152 A 
ATOM     29  C   UNL     1      33.099 -14.345 -24.639  0.00  0.00    +0.006 C 
ATOM     30  C   UNL     1      33.438 -13.100 -22.163  0.00  0.00    +0.038 C 
ATOM     31  C   UNL     1      32.751 -13.000 -24.470  0.00  0.00    +0.000 C 
ATOM     32  C   UNL     1      32.919 -12.380 -23.234  0.00  0.00    +0.003 C 
BRANCH  25  33
ATOM     33  O   UNL     1      33.819 -17.047 -24.924  0.00  0.00    -0.506 OA
ATOM     34  H   UNL     1      34.497 -17.563 -25.316  0.00  0.00    +0.292 HD
ENDBRANCH  25  33
ENDBRANCH  21  24
BRANCH  21  35
ATOM     35  C   UNL     1      36.460 -18.705 -22.621  0.00  0.00    +0.009 C 
ATOM     36  C   UNL     1      37.099 -18.338 -21.286  0.00  0.00    +0.001 C 
ENDBRANCH  21  35
ENDBRANCH   1  21
TORSDOF 9
ENDMDL
MODEL 6
REMARK VINA RESULT:     -10.4      2.442      3.305
REMARK  Name = 54689025
REMARK  9 active torsions:
REMARK  status: ('A' for Active; 'I' for Inactive)
REMARK    1  A    between atoms: C_1  and  C_21
REMARK    2  A    between atoms: C_4  and  N_8
REMARK    3  A    between atoms: C_9  and  C_11
REMARK    4  A    between atoms: C_11  and  N_13
REMARK    5  A    between atoms: C_14  and  O_16
REMARK    6  A    between atoms: O_16  and  C_17
REMARK    7  A    between atoms: C_21  and  C_24
REMARK    8  A    between atoms: C_21  and  C_35
REMARK    9  A    between atoms: C_25  and  O_33
REMARK                            x       y       z     vdW  Elec       q    Type
REMARK                         _______ _______ _______ _____ _____    ______ ____
ROOT
ATOM      1  C   UNL     1      34.081 -19.294 -21.450  0.00  0.00    -0.017 C 
ATOM      2  C   UNL     1      34.624 -19.911 -20.323  0.00  0.00    +0.011 C 
ATOM      3  C   UNL     1      32.708 -19.361 -21.689  0.00  0.00    -0.004 C 
ATOM      4  C   UNL     1      33.794 -20.593 -19.434  0.00  0.00    +0.050 C 
ATOM      5  C   UNL     1      31.878 -20.044 -20.801  0.00  0.00    +0.001 C 
ATOM      6  C   UNL     1      32.421 -20.660 -19.673  0.00  0.00    +0.015 C 
ENDROOT
BRANCH   4   8
ATOM      7  O   UNL     1      33.197 -23.268 -18.203  0.00  0.00    -0.273 OA
ATOM      8  N   UNL     1      34.336 -21.211 -18.306  0.00  0.00    -0.283 N 
ATOM      9  C   UNL     1      34.021 -22.469 -17.769  0.00  0.00    +0.246 C 
ATOM     10  H   UNL     1      35.029 -20.700 -17.828  0.00  0.00    +0.155 HD
BRANCH   9  11
ATOM     11  C   UNL     1      34.852 -22.755 -16.531  0.00  0.00    +0.179 C 
BRANCH  11  13
ATOM     12  O   UNL     1      34.315 -24.737 -14.476  0.00  0.00    -0.226 OA
ATOM     13  N   UNL     1      34.056 -22.601 -15.349  0.00  0.00    -0.262 N 
ATOM     14  C   UNL     1      33.850 -23.603 -14.415  0.00  0.00    +0.402 C 
ATOM     15  H   UNL     1      33.629 -21.728 -15.190  0.00  0.00    +0.153 HD
BRANCH  14  16
ATOM     16  O   UNL     1      33.050 -23.146 -13.406  0.00  0.00    -0.442 OA
BRANCH  16  17
ATOM     17  C   UNL     1      31.640 -23.293 -13.613  0.00  0.00    +0.138 C 
ATOM     18  C   UNL     1      31.265 -22.590 -14.917  0.00  0.00    +0.044 C 
ATOM     19  C   UNL     1      30.931 -22.640 -12.427  0.00  0.00    +0.044 C 
ATOM     20  C   UNL     1      31.312 -24.783 -13.683  0.00  0.00    +0.044 C 
ENDBRANCH  16  17
ENDBRANCH  14  16
ENDBRANCH  11  13
ENDBRANCH   9  11
ENDBRANCH   4   8
BRANCH   1  21
ATOM     21  C   UNL     1      34.984 -18.550 -22.417  0.00  0.00    +0.054 C 
BRANCH  21  24
ATOM     22  O   UNL     1      33.494 -15.704 -24.419  0.00  0.00    -0.421 OA
ATOM     23  O   UNL     1      34.022 -17.857 -24.927  0.00  0.00    -0.245 OA
ATOM     24  C   UNL     1      34.458 -17.167 -22.690  0.00  0.00    +0.091 A 
ATOM     25  C   UNL     1      34.395 -16.162 -21.796  0.00  0.00    +0.139 A 
ATOM     26  C   UNL     1      33.985 -16.960 -24.090  0.00  0.00    +0.345 A 
ATOM     27  C   UNL     1      33.872 -14.848 -22.176  0.00  0.00    +0.068 A 
ATOM     28  C   UNL     1      33.435 -14.658 -23.483  0.00  0.00    +0.152 A 
ATOM     29  C   UNL     1      33.785 -13.764 -21.292  0.00  0.00    +0.006 C 
ATOM     30  C   UNL     1      32.923 -13.437 -23.927  0.00  0.00    +0.038 C 
ATOM     31  C   UNL     1      33.273 -12.534 -21.721  0.00  0.00    +0.000 C 
ATOM     32  C   UNL     1      32.844 -12.371 -23.037  0.00  0.00    +0.003 C 
BRANCH  25  33
ATOM     33  O   UNL     1      34.800 -16.257 -20.481  0.00  0.00    -0.506 OA
ATOM     34  H   UNL     1      34.162 -16.306 -19.797  0.00  0.00    +0.292 HD
ENDBRANCH  25  33
ENDBRANCH  21  24
BRANCH  21  35
ATOM     35  C   UNL     1      36.454 -18.471 -21.956  0.00  0.00    +0.009 C 
ATOM     36  C   UNL     1      36.632 -18.807 -20.479  0.00  0.00    +0.001 C 
ENDBRANCH  21  35
ENDBRANCH   1  21
TORSDOF 9
ENDMDL
MODEL 7
REMARK VINA RESULT:     -10.3      2.744     10.258
REMARK  Name = 54689025
REMARK  9 active torsions:
REMARK  status: ('A' for Active; 'I' for Inactive)
REMARK    1  A    between atoms: C_1  and  C_21
REMARK    2  A    between atoms: C_4  and  N_8
REMARK    3  A    between atoms: C_9  and  C_11
REMARK    4  A    between atoms: C_11  and  N_13
REMARK    5  A    between atoms: C_14  and  O_16
REMARK    6  A    between atoms: O_16  and  C_17
REMARK    7  A    between atoms: C_21  and  C_24
REMARK    8  A    between atoms: C_21  and  C_35
REMARK    9  A    between atoms: C_25  and  O_33
REMARK                            x       y       z     vdW  Elec       q    Type
REMARK                         _______ _______ _______ _____ _____    ______ ____
ROOT
ATOM      1  C   UNL     1      32.065 -23.583 -15.565  0.00  0.00    -0.017 C 
ATOM      2  C   UNL     1      33.061 -23.243 -16.479  0.00  0.00    +0.011 C 
ATOM      3  C   UNL     1      30.801 -23.000 -15.661  0.00  0.00    -0.004 C 
ATOM      4  C   UNL     1      32.795 -22.321 -17.490  0.00  0.00    +0.050 C 
ATOM      5  C   UNL     1      30.535 -22.076 -16.672  0.00  0.00    +0.001 C 
ATOM      6  C   UNL     1      31.532 -21.738 -17.587  0.00  0.00    +0.015 C 
ENDROOT
BRANCH   4   8
ATOM      7  O   UNL     1      35.664 -21.546 -17.044  0.00  0.00    -0.273 OA
ATOM      8  N   UNL     1      33.793 -21.980 -18.405  0.00  0.00    -0.283 N 
ATOM      9  C   UNL     1      35.125 -21.623 -18.144  0.00  0.00    +0.246 C 
ATOM     10  H   UNL     1      33.528 -21.992 -19.354  0.00  0.00    +0.155 HD
BRANCH   9  11
ATOM     11  C   UNL     1      35.871 -21.329 -19.434  0.00  0.00    +0.179 C 
BRANCH  11  13
ATOM     12  O   UNL     1      33.516 -20.221 -20.724  0.00  0.00    -0.226 OA
ATOM     13  N   UNL     1      35.649 -19.972 -19.841  0.00  0.00    -0.262 N 
ATOM     14  C   UNL     1      34.490 -19.525 -20.454  0.00  0.00    +0.402 C 
ATOM     15  H   UNL     1      36.365 -19.317 -19.675  0.00  0.00    +0.153 HD
BRANCH  14  16
ATOM     16  O   UNL     1      34.585 -18.187 -20.717  0.00  0.00    -0.442 OA
BRANCH  16  17
ATOM     17  C   UNL     1      35.076 -17.841 -22.016  0.00  0.00    +0.138 C 
ATOM     18  C   UNL     1      36.587 -18.066 -22.042  0.00  0.00    +0.044 C 
ATOM     19  C   UNL     1      34.749 -16.367 -22.253  0.00  0.00    +0.044 C 
ATOM     20  C   UNL     1      34.376 -18.720 -23.051  0.00  0.00    +0.044 C 
ENDBRANCH  16  17
ENDBRANCH  14  16
ENDBRANCH  11  13
ENDBRANCH   9  11
ENDBRANCH   4   8
BRANCH   1  21
ATOM     21  C   UNL     1      32.354 -24.588 -14.464  0.00  0.00    +0.054 C 
BRANCH  21  24
ATOM     22  O   UNL     1      34.808 -23.029 -12.039  0.00  0.00    -0.421 OA
ATOM     23  O   UNL     1      32.558 -22.843 -12.316  0.00  0.00    -0.245 OA
ATOM     24  C   UNL     1      33.684 -24.309 -13.817  0.00  0.00    +0.091 A 
ATOM     25  C   UNL     1      34.863 -24.844 -14.185  0.00  0.00    +0.139 A 
ATOM     26  C   UNL     1      33.617 -23.345 -12.681  0.00  0.00    +0.345 A 
ATOM     27  C   UNL     1      36.101 -24.490 -13.488  0.00  0.00    +0.068 A 
ATOM     28  C   UNL     1      36.036 -23.589 -12.430  0.00  0.00    +0.152 A 
ATOM     29  C   UNL     1      37.357 -25.012 -13.827  0.00  0.00    +0.006 C 
ATOM     30  C   UNL     1      37.168 -23.198 -11.714  0.00  0.00    +0.038 C 
ATOM     31  C   UNL     1      38.502 -24.631 -13.118  0.00  0.00    +0.000 C 
ATOM     32  C   UNL     1      38.407 -23.724 -12.064  0.00  0.00    +0.003 C 
BRANCH  25  33
ATOM     33  O   UNL     1      35.025 -25.747 -15.215  0.00  0.00    -0.506 OA
ATOM     34  H   UNL     1      34.756 -25.522 -16.083  0.00  0.00    +0.292 HD
ENDBRANCH  25  33
ENDBRANCH  21  24
BRANCH  21  35
ATOM     35  C   UNL     1      31.252 -24.663 -13.388  0.00  0.00    +0.009 C 
ATOM     36  C   UNL     1      29.920 -25.167 -13.935  0.00  0.00    +0.001 C 
ENDBRANCH  21  35
ENDBRANCH   1  21
TORSDOF 9
ENDMDL
MODEL 8
REMARK VINA RESULT:     -10.2      6.564     11.244
REMARK  Name = 54689025
REMARK  9 active torsions:
REMARK  status: ('A' for Active; 'I' for Inactive)
REMARK    1  A    between atoms: C_1  and  C_21
REMARK    2  A    between atoms: C_4  and  N_8
REMARK    3  A    between atoms: C_9  and  C_11
REMARK    4  A    between atoms: C_11  and  N_13
REMARK    5  A    between atoms: C_14  and  O_16
REMARK    6  A    between atoms: O_16  and  C_17
REMARK    7  A    between atoms: C_21  and  C_24
REMARK    8  A    between atoms: C_21  and  C_35
REMARK    9  A    between atoms: C_25  and  O_33
REMARK                            x       y       z     vdW  Elec       q    Type
REMARK                         _______ _______ _______ _____ _____    ______ ____
ROOT
ATOM      1  C   UNL     1      31.749  -8.660 -21.418  0.00  0.00    -0.017 C 
ATOM      2  C   UNL     1      32.324  -9.616 -22.254  0.00  0.00    +0.011 C 
ATOM      3  C   UNL     1      30.799  -9.042 -20.470  0.00  0.00    -0.004 C 
ATOM      4  C   UNL     1      31.952 -10.956 -22.141  0.00  0.00    +0.050 C 
ATOM      5  C   UNL     1      30.426 -10.381 -20.358  0.00  0.00    +0.001 C 
ATOM      6  C   UNL     1      31.002 -11.338 -21.193  0.00  0.00    +0.015 C 
ENDROOT
BRANCH   4   8
ATOM      7  O   UNL     1      33.680 -13.325 -21.489  0.00  0.00    -0.273 OA
ATOM      8  N   UNL     1      32.527 -11.913 -22.978  0.00  0.00    -0.283 N 
ATOM      9  C   UNL     1      33.332 -13.007 -22.621  0.00  0.00    +0.246 C 
ATOM     10  H   UNL     1      32.343 -11.809 -23.939  0.00  0.00    +0.155 HD
BRANCH   9  11
ATOM     11  C   UNL     1      33.745 -13.800 -23.848  0.00  0.00    +0.179 C 
BRANCH  11  13
ATOM     12  O   UNL     1      33.242 -16.644 -24.156  0.00  0.00    -0.226 OA
ATOM     13  N   UNL     1      34.600 -14.888 -23.475  0.00  0.00    -0.262 N 
ATOM     14  C   UNL     1      34.282 -16.224 -23.658  0.00  0.00    +0.402 C 
ATOM     15  H   UNL     1      35.468 -14.673 -23.063  0.00  0.00    +0.153 HD
BRANCH  14  16
ATOM     16  O   UNL     1      35.299 -17.015 -23.202  0.00  0.00    -0.442 OA
BRANCH  16  17
ATOM     17  C   UNL     1      35.068 -17.664 -21.946  0.00  0.00    +0.138 C 
ATOM     18  C   UNL     1      34.510 -16.637 -20.963  0.00  0.00    +0.044 C 
ATOM     19  C   UNL     1      36.411 -18.204 -21.456  0.00  0.00    +0.044 C 
ATOM     20  C   UNL     1      34.076 -18.805 -22.164  0.00  0.00    +0.044 C 
ENDBRANCH  16  17
ENDBRANCH  14  16
ENDBRANCH  11  13
ENDBRANCH   9  11
ENDBRANCH   4   8
BRANCH   1  21
ATOM     21  C   UNL     1      32.155  -7.202 -21.540  0.00  0.00    +0.054 C 
BRANCH  21  24
ATOM     22  O   UNL     1      31.117  -6.567 -25.125  0.00  0.00    -0.421 OA
ATOM     23  O   UNL     1      29.993  -7.275 -23.278  0.00  0.00    -0.245 OA
ATOM     24  C   UNL     1      32.308  -6.805 -22.983  0.00  0.00    +0.091 A 
ATOM     25  C   UNL     1      33.450  -6.391 -23.566  0.00  0.00    +0.139 A 
ATOM     26  C   UNL     1      31.051  -6.907 -23.780  0.00  0.00    +0.345 A 
ATOM     27  C   UNL     1      33.485  -6.040 -24.987  0.00  0.00    +0.068 A 
ATOM     28  C   UNL     1      32.312  -6.139 -25.727  0.00  0.00    +0.152 A 
ATOM     29  C   UNL     1      34.642  -5.606 -25.649  0.00  0.00    +0.006 C 
ATOM     30  C   UNL     1      32.260  -5.824 -27.086  0.00  0.00    +0.038 C 
ATOM     31  C   UNL     1      34.607  -5.285 -27.011  0.00  0.00    +0.000 C 
ATOM     32  C   UNL     1      33.417  -5.395 -27.728  0.00  0.00    +0.003 C 
BRANCH  25  33
ATOM     33  O   UNL     1      34.658  -6.258 -22.914  0.00  0.00    -0.506 OA
ATOM     34  H   UNL     1      34.688  -6.265 -21.978  0.00  0.00    +0.292 HD
ENDBRANCH  25  33
ENDBRANCH  21  24
BRANCH  21  35
ATOM     35  C   UNL     1      31.193  -6.229 -20.827  0.00  0.00    +0.009 C 
ATOM     36  C   UNL     1      31.717  -4.797 -20.788  0.00  0.00    +0.001 C 
ENDBRANCH  21  35
ENDBRANCH   1  21
TORSDOF 9
ENDMDL
MODEL 9
REMARK VINA RESULT:     -10.1      4.337      7.858
REMARK  Name = 54689025
REMARK  9 active torsions:
REMARK  status: ('A' for Active; 'I' for Inactive)
REMARK    1  A    between atoms: C_1  and  C_21
REMARK    2  A    between atoms: C_4  and  N_8
REMARK    3  A    between atoms: C_9  and  C_11
REMARK    4  A    between atoms: C_11  and  N_13
REMARK    5  A    between atoms: C_14  and  O_16
REMARK    6  A    between atoms: O_16  and  C_17
REMARK    7  A    between atoms: C_21  and  C_24
REMARK    8  A    between atoms: C_21  and  C_35
REMARK    9  A    between atoms: C_25  and  O_33
REMARK                            x       y       z     vdW  Elec       q    Type
REMARK                         _______ _______ _______ _____ _____    ______ ____
ROOT
ATOM      1  C   UNL     1      32.599 -12.841 -22.240  0.00  0.00    -0.017 C 
ATOM      2  C   UNL     1      33.462 -13.927 -22.373  0.00  0.00    +0.011 C 
ATOM      3  C   UNL     1      32.031 -12.548 -21.000  0.00  0.00    -0.004 C 
ATOM      4  C   UNL     1      33.760 -14.722 -21.266  0.00  0.00    +0.050 C 
ATOM      5  C   UNL     1      32.327 -13.344 -19.893  0.00  0.00    +0.001 C 
ATOM      6  C   UNL     1      33.192 -14.430 -20.026  0.00  0.00    +0.015 C 
ENDROOT
BRANCH   4   8
ATOM      7  O   UNL     1      34.027 -16.737 -23.478  0.00  0.00    -0.273 OA
ATOM      8  N   UNL     1      34.624 -15.810 -21.399  0.00  0.00    -0.283 N 
ATOM      9  C   UNL     1      34.709 -16.728 -22.458  0.00  0.00    +0.246 C 
ATOM     10  H   UNL     1      35.254 -15.951 -20.655  0.00  0.00    +0.155 HD
BRANCH   9  11
ATOM     11  C   UNL     1      35.792 -17.759 -22.197  0.00  0.00    +0.179 C 
BRANCH  11  13
ATOM     12  O   UNL     1      33.791 -19.767 -21.562  0.00  0.00    -0.226 OA
ATOM     13  N   UNL     1      35.569 -18.410 -20.939  0.00  0.00    -0.262 N 
ATOM     14  C   UNL     1      34.587 -19.362 -20.721  0.00  0.00    +0.402 C 
ATOM     15  H   UNL     1      36.151 -18.165 -20.184  0.00  0.00    +0.153 HD
BRANCH  14  16
ATOM     16  O   UNL     1      34.631 -19.791 -19.424  0.00  0.00    -0.442 OA
BRANCH  16  17
ATOM     17  C   UNL     1      35.064 -21.142 -19.228  0.00  0.00    +0.138 C 
ATOM     18  C   UNL     1      33.831 -22.033 -19.084  0.00  0.00    +0.044 C 
ATOM     19  C   UNL     1      35.904 -21.175 -17.952  0.00  0.00    +0.044 C 
ATOM     20  C   UNL     1      35.903 -21.562 -20.434  0.00  0.00    +0.044 C 
ENDBRANCH  16  17
ENDBRANCH  14  16
ENDBRANCH  11  13
ENDBRANCH   9  11
ENDBRANCH   4   8
BRANCH   1  21
ATOM     21  C   UNL     1      32.276 -11.975 -23.445  0.00  0.00    +0.054 C 
BRANCH  21  24
ATOM     22  O   UNL     1      30.929  -8.730 -22.036  0.00  0.00    -0.421 OA
ATOM     23  O   UNL     1      30.088 -10.839 -22.171  0.00  0.00    -0.245 OA
ATOM     24  C   UNL     1      32.267 -10.517 -23.073  0.00  0.00    +0.091 A 
ATOM     25  C   UNL     1      33.266  -9.644 -23.302  0.00  0.00    +0.139 A 
ATOM     26  C   UNL     1      31.014 -10.067 -22.400  0.00  0.00    +0.345 A 
ATOM     27  C   UNL     1      33.144  -8.240 -22.905  0.00  0.00    +0.068 A 
ATOM     28  C   UNL     1      31.973  -7.823 -22.281  0.00  0.00    +0.152 A 
ATOM     29  C   UNL     1      34.147  -7.284 -23.120  0.00  0.00    +0.006 C 
ATOM     30  C   UNL     1      31.776  -6.502 -21.872  0.00  0.00    +0.038 C 
ATOM     31  C   UNL     1      33.966  -5.957 -22.715  0.00  0.00    +0.000 C 
ATOM     32  C   UNL     1      32.781  -5.567 -22.094  0.00  0.00    +0.003 C 
BRANCH  25  33
ATOM     33  O   UNL     1      34.463  -9.964 -23.909  0.00  0.00    -0.506 OA
ATOM     34  H   UNL     1      34.900 -10.764 -23.690  0.00  0.00    +0.292 HD
ENDBRANCH  25  33
ENDBRANCH  21  24
BRANCH  21  35
ATOM     35  C   UNL     1      33.219 -12.206 -24.643  0.00  0.00    +0.009 C 
ATOM     36  C   UNL     1      32.588 -13.055 -25.742  0.00  0.00    +0.001 C 
ENDBRANCH  21  35
ENDBRANCH   1  21
TORSDOF 9
ENDMDL
