MODEL 1
REMARK VINA RESULT:     -12.6      0.000      0.000
REMARK  Name = 5289162
REMARK  6 active torsions:
REMARK  status: ('A' for Active; 'I' for Inactive)
REMARK    1  A    between atoms: C_1  and  N_8
REMARK    2  A    between atoms: C_2  and  C_20
REMARK    3  A    between atoms: C_5  and  O_23
REMARK    4  A    between atoms: C_9  and  C_13
REMARK    5  A    between atoms: C_20  and  O_21
REMARK    6  A    between atoms: O_23  and  C_26
REMARK                            x       y       z     vdW  Elec       q    Type
REMARK                         _______ _______ _______ _____ _____    ______ ____
ROOT
ATOM      1  C   UNL     1      35.426 -20.425 -19.428  0.00  0.00    +0.057 C 
ATOM      2  C   UNL     1      34.169 -20.309 -19.998  0.00  0.00    +0.092 C 
ATOM      3  C   UNL     1      36.502 -19.693 -19.900  0.00  0.00    +0.018 C 
ATOM      4  C   UNL     1      33.983 -19.437 -21.071  0.00  0.00    +0.046 C 
ATOM      5  C   UNL     1      35.058 -18.694 -21.559  0.00  0.00    +0.160 C 
ATOM      6  C   UNL     1      36.318 -18.821 -20.972  0.00  0.00    +0.040 C 
ENDROOT
BRANCH   1   8
ATOM      7  O   UNL     1      36.891 -19.995 -16.848  0.00  0.00    -0.270 OA
ATOM      8  N   UNL     1      35.636 -21.305 -18.336  0.00  0.00    -0.280 N 
ATOM      9  C   UNL     1      36.331 -21.061 -17.145  0.00  0.00    +0.250 C 
ATOM     10  H   UNL     1      35.244 -22.203 -18.428  0.00  0.00    +0.155 HD
BRANCH   9  13
ATOM     11 CL   UNL     1      33.684 -22.385 -16.308  0.00  0.00    -0.082 Cl
ATOM     12 CL   UNL     1      36.778 -25.627 -13.329  0.00  0.00    -0.082 Cl
ATOM     13  C   UNL     1      36.403 -22.179 -16.214  0.00  0.00    +0.064 C 
ATOM     14  C   UNL     1      35.260 -22.847 -15.773  0.00  0.00    +0.063 C 
ATOM     15  C   UNL     1      37.661 -22.578 -15.763  0.00  0.00    +0.006 C 
ATOM     16  C   UNL     1      35.377 -23.914 -14.880  0.00  0.00    +0.023 C 
ATOM     17  C   UNL     1      37.777 -23.644 -14.871  0.00  0.00    +0.012 C 
ATOM     18  C   UNL     1      36.635 -24.312 -14.431  0.00  0.00    +0.059 C 
ENDBRANCH   9  13
ENDBRANCH   1   8
BRANCH   2  20
ATOM     19  O   UNL     1      31.959 -20.589 -19.125  0.00  0.00    -0.245 OA
ATOM     20  C   UNL     1      33.026 -21.072 -19.513  0.00  0.00    +0.339 C 
BRANCH  20  21
ATOM     21  O   UNL     1      33.252 -22.413 -19.531  0.00  0.00    -0.477 OA
ATOM     22  H   UNL     1      33.004 -22.919 -20.280  0.00  0.00    +0.295 HD
ENDBRANCH  20  21
ENDBRANCH   2  20
BRANCH   5  23
ATOM     23  O   UNL     1      34.878 -17.842 -22.604  0.00  0.00    -0.392 OA
BRANCH  23  26
ATOM     24  N   UNL     1      34.448 -16.210 -21.018  0.00  0.00    -0.162 NA
ATOM     25  N   UNL     1      34.217 -15.761 -23.375  0.00  0.00    -0.185 NA
ATOM     26  C   UNL     1      34.496 -16.542 -22.318  0.00  0.00    +0.196 C 
ATOM     27  C   UNL     1      34.073 -14.937 -20.776  0.00  0.00    +0.110 C 
ATOM     28  C   UNL     1      33.848 -14.501 -23.060  0.00  0.00    +0.167 C 
ATOM     29  C   UNL     1      33.758 -14.029 -21.766  0.00  0.00    +0.022 C 
ENDBRANCH  23  26
ENDBRANCH   5  23
TORSDOF 6
ENDMDL
MODEL 2
REMARK VINA RESULT:     -11.7      5.254     10.555
REMARK  Name = 5289162
REMARK  6 active torsions:
REMARK  status: ('A' for Active; 'I' for Inactive)
REMARK    1  A    between atoms: C_1  and  N_8
REMARK    2  A    between atoms: C_2  and  C_20
REMARK    3  A    between atoms: C_5  and  O_23
REMARK    4  A    between atoms: C_9  and  C_13
REMARK    5  A    between atoms: C_20  and  O_21
REMARK    6  A    between atoms: O_23  and  C_26
REMARK                            x       y       z     vdW  Elec       q    Type
REMARK                         _______ _______ _______ _____ _____    ______ ____
ROOT
ATOM      1  C   UNL     1      33.655 -14.342 -22.246  0.00  0.00    +0.057 C 
ATOM      2  C   UNL     1      33.689 -15.067 -23.426  0.00  0.00    +0.092 C 
ATOM      3  C   UNL     1      34.096 -14.887 -21.052  0.00  0.00    +0.018 C 
ATOM      4  C   UNL     1      34.178 -16.374 -23.411  0.00  0.00    +0.046 C 
ATOM      5  C   UNL     1      34.625 -16.937 -22.216  0.00  0.00    +0.160 C 
ATOM      6  C   UNL     1      34.585 -16.193 -21.036  0.00  0.00    +0.040 C 
ENDROOT
BRANCH   1   8
ATOM      7  O   UNL     1      31.529 -13.073 -20.556  0.00  0.00    -0.270 OA
ATOM      8  N   UNL     1      33.164 -13.013 -22.238  0.00  0.00    -0.280 N 
ATOM      9  C   UNL     1      32.164 -12.461 -21.428  0.00  0.00    +0.250 C 
ATOM     10  H   UNL     1      33.577 -12.399 -22.887  0.00  0.00    +0.155 HD
BRANCH   9  13
ATOM     11 CL   UNL     1      31.458 -10.715 -18.996  0.00  0.00    -0.082 Cl
ATOM     12 CL   UNL     1      30.915  -6.740 -22.581  0.00  0.00    -0.082 Cl
ATOM     13  C   UNL     1      31.853 -11.059 -21.673  0.00  0.00    +0.064 C 
ATOM     14  C   UNL     1      31.521 -10.184 -20.638  0.00  0.00    +0.063 C 
ATOM     15  C   UNL     1      31.896 -10.597 -22.989  0.00  0.00    +0.006 C 
ATOM     16  C   UNL     1      31.231  -8.848 -20.919  0.00  0.00    +0.023 C 
ATOM     17  C   UNL     1      31.606  -9.262 -23.269  0.00  0.00    +0.012 C 
ATOM     18  C   UNL     1      31.275  -8.388 -22.235  0.00  0.00    +0.059 C 
ENDBRANCH   9  13
ENDBRANCH   1   8
BRANCH   2  20
ATOM     19  O   UNL     1      33.052 -13.309 -24.918  0.00  0.00    -0.245 OA
ATOM     20  C   UNL     1      33.229 -14.508 -24.691  0.00  0.00    +0.339 C 
BRANCH  20  21
ATOM     21  O   UNL     1      33.006 -15.467 -25.630  0.00  0.00    -0.477 OA
ATOM     22  H   UNL     1      32.139 -15.797 -25.765  0.00  0.00    +0.295 HD
ENDBRANCH  20  21
ENDBRANCH   2  20
BRANCH   5  23
ATOM     23  O   UNL     1      35.103 -18.211 -22.201  0.00  0.00    -0.392 OA
BRANCH  23  26
ATOM     24  N   UNL     1      35.435 -19.658 -20.424  0.00  0.00    -0.162 NA
ATOM     25  N   UNL     1      33.237 -19.274 -21.335  0.00  0.00    -0.185 NA
ATOM     26  C   UNL     1      34.566 -19.090 -21.275  0.00  0.00    +0.196 C 
ATOM     27  C   UNL     1      34.879 -20.508 -19.537  0.00  0.00    +0.110 C 
ATOM     28  C   UNL     1      32.748 -20.136 -20.419  0.00  0.00    +0.167 C 
ATOM     29  C   UNL     1      33.528 -20.789 -19.487  0.00  0.00    +0.022 C 
ENDBRANCH  23  26
ENDBRANCH   5  23
TORSDOF 6
ENDMDL
MODEL 3
REMARK VINA RESULT:     -11.1      3.402      8.715
REMARK  Name = 5289162
REMARK  6 active torsions:
REMARK  status: ('A' for Active; 'I' for Inactive)
REMARK    1  A    between atoms: C_1  and  N_8
REMARK    2  A    between atoms: C_2  and  C_20
REMARK    3  A    between atoms: C_5  and  O_23
REMARK    4  A    between atoms: C_9  and  C_13
REMARK    5  A    between atoms: C_20  and  O_21
REMARK    6  A    between atoms: O_23  and  C_26
REMARK                            x       y       z     vdW  Elec       q    Type
REMARK                         _______ _______ _______ _____ _____    ______ ____
ROOT
ATOM      1  C   UNL     1      35.630 -21.796 -16.986  0.00  0.00    +0.057 C 
ATOM      2  C   UNL     1      34.603 -22.636 -16.590  0.00  0.00    +0.092 C 
ATOM      3  C   UNL     1      36.875 -21.844 -16.382  0.00  0.00    +0.018 C 
ATOM      4  C   UNL     1      34.826 -23.549 -15.559  0.00  0.00    +0.046 C 
ATOM      5  C   UNL     1      36.075 -23.609 -14.940  0.00  0.00    +0.160 C 
ATOM      6  C   UNL     1      37.100 -22.757 -15.352  0.00  0.00    +0.040 C 
ENDROOT
BRANCH   1   8
ATOM      7  O   UNL     1      35.541 -22.199 -19.956  0.00  0.00    -0.270 OA
ATOM      8  N   UNL     1      35.424 -20.861 -18.032  0.00  0.00    -0.280 N 
ATOM      9  C   UNL     1      35.391 -21.094 -19.412  0.00  0.00    +0.250 C 
ATOM     10  H   UNL     1      35.288 -19.928 -17.751  0.00  0.00    +0.155 HD
BRANCH   9  13
ATOM     11 CL   UNL     1      32.500 -20.394 -20.197  0.00  0.00    -0.082 Cl
ATOM     12 CL   UNL     1      34.703 -16.254 -22.834  0.00  0.00    -0.082 Cl
ATOM     13  C   UNL     1      35.186 -19.918 -20.248  0.00  0.00    +0.064 C 
ATOM     14  C   UNL     1      33.915 -19.517 -20.658  0.00  0.00    +0.063 C 
ATOM     15  C   UNL     1      36.308 -19.187 -20.637  0.00  0.00    +0.006 C 
ATOM     16  C   UNL     1      33.766 -18.382 -21.458  0.00  0.00    +0.023 C 
ATOM     17  C   UNL     1      36.158 -18.053 -21.436  0.00  0.00    +0.012 C 
ATOM     18  C   UNL     1      34.888 -17.651 -21.846  0.00  0.00    +0.059 C 
ENDBRANCH   9  13
ENDBRANCH   1   8
BRANCH   2  20
ATOM     19  O   UNL     1      32.287 -22.055 -16.738  0.00  0.00    -0.245 OA
ATOM     20  C   UNL     1      33.287 -22.598 -17.215  0.00  0.00    +0.339 C 
BRANCH  20  21
ATOM     21  O   UNL     1      33.265 -23.238 -18.415  0.00  0.00    -0.477 OA
ATOM     22  H   UNL     1      32.447 -23.404 -18.841  0.00  0.00    +0.295 HD
ENDBRANCH  20  21
ENDBRANCH   2  20
BRANCH   5  23
ATOM     23  O   UNL     1      36.294 -24.501 -13.936  0.00  0.00    -0.392 OA
BRANCH  23  26
ATOM     24  N   UNL     1      35.419 -24.846 -11.819  0.00  0.00    -0.162 NA
ATOM     25  N   UNL     1      36.725 -22.886 -12.333  0.00  0.00    -0.185 NA
ATOM     26  C   UNL     1      36.138 -24.056 -12.633  0.00  0.00    +0.196 C 
ATOM     27  C   UNL     1      35.287 -24.383 -10.559  0.00  0.00    +0.110 C 
ATOM     28  C   UNL     1      36.553 -22.483 -11.057  0.00  0.00    +0.167 C 
ATOM     29  C   UNL     1      35.837 -23.196 -10.117  0.00  0.00    +0.022 C 
ENDBRANCH  23  26
ENDBRANCH   5  23
TORSDOF 6
ENDMDL
MODEL 4
REMARK VINA RESULT:     -11.0      7.079     11.580
REMARK  Name = 5289162
REMARK  6 active torsions:
REMARK  status: ('A' for Active; 'I' for Inactive)
REMARK    1  A    between atoms: C_1  and  N_8
REMARK    2  A    between atoms: C_2  and  C_20
REMARK    3  A    between atoms: C_5  and  O_23
REMARK    4  A    between atoms: C_9  and  C_13
REMARK    5  A    between atoms: C_20  and  O_21
REMARK    6  A    between atoms: O_23  and  C_26
REMARK                            x       y       z     vdW  Elec       q    Type
REMARK                         _______ _______ _______ _____ _____    ______ ____
ROOT
ATOM      1  C   UNL     1      32.768 -12.143 -23.391  0.00  0.00    +0.057 C 
ATOM      2  C   UNL     1      33.056 -13.255 -22.618  0.00  0.00    +0.092 C 
ATOM      3  C   UNL     1      32.693 -12.222 -24.771  0.00  0.00    +0.018 C 
ATOM      4  C   UNL     1      33.277 -14.483 -23.244  0.00  0.00    +0.046 C 
ATOM      5  C   UNL     1      33.206 -14.579 -24.634  0.00  0.00    +0.160 C 
ATOM      6  C   UNL     1      32.913 -13.448 -25.397  0.00  0.00    +0.040 C 
ENDROOT
BRANCH   1   8
ATOM      7  O   UNL     1      30.325 -11.070 -22.022  0.00  0.00    -0.270 OA
ATOM      8  N   UNL     1      32.540 -10.886 -22.775  0.00  0.00    -0.280 N 
ATOM      9  C   UNL     1      31.377 -10.425 -22.146  0.00  0.00    +0.250 C 
ATOM     10  H   UNL     1      33.296 -10.256 -22.794  0.00  0.00    +0.155 HD
BRANCH   9  13
ATOM     11 CL   UNL     1      31.440 -10.071 -19.091  0.00  0.00    -0.082 Cl
ATOM     12 CL   UNL     1      31.616  -4.801 -20.164  0.00  0.00    -0.082 Cl
ATOM     13  C   UNL     1      31.435  -9.065 -21.626  0.00  0.00    +0.064 C 
ATOM     14  C   UNL     1      31.467  -8.798 -20.258  0.00  0.00    +0.063 C 
ATOM     15  C   UNL     1      31.459  -8.014 -22.543  0.00  0.00    +0.006 C 
ATOM     16  C   UNL     1      31.524  -7.479 -19.805  0.00  0.00    +0.023 C 
ATOM     17  C   UNL     1      31.516  -6.696 -22.090  0.00  0.00    +0.012 C 
ATOM     18  C   UNL     1      31.549  -6.428 -20.722  0.00  0.00    +0.059 C 
ENDBRANCH   9  13
ENDBRANCH   1   8
BRANCH   2  20
ATOM     19  O   UNL     1      34.183 -13.214 -20.508  0.00  0.00    -0.245 OA
ATOM     20  C   UNL     1      33.139 -13.189 -21.165  0.00  0.00    +0.339 C 
BRANCH  20  21
ATOM     21  O   UNL     1      31.915 -13.090 -20.580  0.00  0.00    -0.477 OA
ATOM     22  H   UNL     1      31.140 -13.203 -21.095  0.00  0.00    +0.295 HD
ENDBRANCH  20  21
ENDBRANCH   2  20
BRANCH   5  23
ATOM     23  O   UNL     1      33.420 -15.776 -25.245  0.00  0.00    -0.392 OA
BRANCH  23  26
ATOM     24  N   UNL     1      34.649 -16.626 -23.476  0.00  0.00    -0.162 NA
ATOM     25  N   UNL     1      33.133 -18.016 -24.732  0.00  0.00    -0.185 NA
ATOM     26  C   UNL     1      33.750 -16.858 -24.446  0.00  0.00    +0.196 C 
ATOM     27  C   UNL     1      34.948 -17.700 -22.717  0.00  0.00    +0.110 C 
ATOM     28  C   UNL     1      33.478 -19.048 -23.934  0.00  0.00    +0.167 C 
ATOM     29  C   UNL     1      34.388 -18.949 -22.902  0.00  0.00    +0.022 C 
ENDBRANCH  23  26
ENDBRANCH   5  23
TORSDOF 6
ENDMDL
MODEL 5
REMARK VINA RESULT:     -10.9      6.142     10.899
REMARK  Name = 5289162
REMARK  6 active torsions:
REMARK  status: ('A' for Active; 'I' for Inactive)
REMARK    1  A    between atoms: C_1  and  N_8
REMARK    2  A    between atoms: C_2  and  C_20
REMARK    3  A    between atoms: C_5  and  O_23
REMARK    4  A    between atoms: C_9  and  C_13
REMARK    5  A    between atoms: C_20  and  O_21
REMARK    6  A    between atoms: O_23  and  C_26
REMARK                            x       y       z     vdW  Elec       q    Type
REMARK                         _______ _______ _______ _____ _____    ______ ____
ROOT
ATOM      1  C   UNL     1      33.498 -13.474 -21.892  0.00  0.00    +0.057 C 
ATOM      2  C   UNL     1      33.567 -13.781 -23.241  0.00  0.00    +0.092 C 
ATOM      3  C   UNL     1      33.841 -14.402 -20.922  0.00  0.00    +0.018 C 
ATOM      4  C   UNL     1      33.991 -15.051 -23.631  0.00  0.00    +0.046 C 
ATOM      5  C   UNL     1      34.339 -15.997 -22.667  0.00  0.00    +0.160 C 
ATOM      6  C   UNL     1      34.264 -15.671 -21.312  0.00  0.00    +0.040 C 
ENDROOT
BRANCH   1   8
ATOM      7  O   UNL     1      30.735 -12.337 -21.643  0.00  0.00    -0.270 OA
ATOM      8  N   UNL     1      33.070 -12.189 -21.473  0.00  0.00    -0.280 N 
ATOM      9  C   UNL     1      31.763 -11.698 -21.372  0.00  0.00    +0.250 C 
ATOM     10  H   UNL     1      33.785 -11.560 -21.222  0.00  0.00    +0.155 HD
BRANCH   9  13
ATOM     11 CL   UNL     1      31.845  -9.510 -23.532  0.00  0.00    -0.082 Cl
ATOM     12 CL   UNL     1      31.238  -6.079 -19.432  0.00  0.00    -0.082 Cl
ATOM     13  C   UNL     1      31.638 -10.314 -20.934  0.00  0.00    +0.064 C 
ATOM     14  C   UNL     1      31.663  -9.249 -21.835  0.00  0.00    +0.063 C 
ATOM     15  C   UNL     1      31.488 -10.070 -19.569  0.00  0.00    +0.006 C 
ATOM     16  C   UNL     1      31.538  -7.939 -21.370  0.00  0.00    +0.023 C 
ATOM     17  C   UNL     1      31.364  -8.760 -19.105  0.00  0.00    +0.012 C 
ATOM     18  C   UNL     1      31.389  -7.696 -20.005  0.00  0.00    +0.059 C 
ENDBRANCH   9  13
ENDBRANCH   1   8
BRANCH   2  20
ATOM     19  O   UNL     1      33.557 -11.633 -24.294  0.00  0.00    -0.245 OA
ATOM     20  C   UNL     1      33.210 -12.817 -24.273  0.00  0.00    +0.339 C 
BRANCH  20  21
ATOM     21  O   UNL     1      32.433 -13.364 -25.246  0.00  0.00    -0.477 OA
ATOM     22  H   UNL     1      31.499 -13.322 -25.178  0.00  0.00    +0.295 HD
ENDBRANCH  20  21
ENDBRANCH   2  20
BRANCH   5  23
ATOM     23  O   UNL     1      34.754 -17.236 -23.047  0.00  0.00    -0.392 OA
BRANCH  23  26
ATOM     24  N   UNL     1      36.212 -18.122 -21.481  0.00  0.00    -0.162 NA
ATOM     25  N   UNL     1      33.991 -19.011 -21.771  0.00  0.00    -0.185 NA
ATOM     26  C   UNL     1      34.998 -18.168 -22.052  0.00  0.00    +0.196 C 
ATOM     27  C   UNL     1      36.416 -19.043 -20.517  0.00  0.00    +0.110 C 
ATOM     28  C   UNL     1      34.263 -19.905 -20.797  0.00  0.00    +0.167 C 
ATOM     29  C   UNL     1      35.468 -19.969 -20.129  0.00  0.00    +0.022 C 
ENDBRANCH  23  26
ENDBRANCH   5  23
TORSDOF 6
ENDMDL
MODEL 6
REMARK VINA RESULT:     -10.8      9.116     13.304
REMARK  Name = 5289162
REMARK  6 active torsions:
REMARK  status: ('A' for Active; 'I' for Inactive)
REMARK    1  A    between atoms: C_1  and  N_8
REMARK    2  A    between atoms: C_2  and  C_20
REMARK    3  A    between atoms: C_5  and  O_23
REMARK    4  A    between atoms: C_9  and  C_13
REMARK    5  A    between atoms: C_20  and  O_21
REMARK    6  A    between atoms: O_23  and  C_26
REMARK                            x       y       z     vdW  Elec       q    Type
REMARK                         _______ _______ _______ _____ _____    ______ ____
ROOT
ATOM      1  C   UNL     1      31.424  -8.072 -22.202  0.00  0.00    +0.057 C 
ATOM      2  C   UNL     1      31.481  -7.159 -21.163  0.00  0.00    +0.092 C 
ATOM      3  C   UNL     1      30.906  -7.727 -23.439  0.00  0.00    +0.018 C 
ATOM      4  C   UNL     1      31.005  -5.863 -21.366  0.00  0.00    +0.046 C 
ATOM      5  C   UNL     1      30.479  -5.500 -22.606  0.00  0.00    +0.160 C 
ATOM      6  C   UNL     1      30.430  -6.432 -23.643  0.00  0.00    +0.040 C 
ENDROOT
BRANCH   1   8
ATOM      7  O   UNL     1      29.926 -10.629 -21.745  0.00  0.00    -0.270 OA
ATOM      8  N   UNL     1      31.902  -9.394 -22.017  0.00  0.00    -0.280 N 
ATOM      9  C   UNL     1      31.162 -10.564 -21.805  0.00  0.00    +0.250 C 
ATOM     10  H   UNL     1      32.880  -9.503 -22.040  0.00  0.00    +0.155 HD
BRANCH   9  13
ATOM     11 CL   UNL     1      33.204 -11.290 -23.988  0.00  0.00    -0.082 Cl
ATOM     12 CL   UNL     1      34.283 -15.572 -20.914  0.00  0.00    -0.082 Cl
ATOM     13  C   UNL     1      31.942 -11.781 -21.621  0.00  0.00    +0.064 C 
ATOM     14  C   UNL     1      32.893 -12.197 -22.552  0.00  0.00    +0.063 C 
ATOM     15  C   UNL     1      31.715 -12.536 -20.470  0.00  0.00    +0.006 C 
ATOM     16  C   UNL     1      33.618 -13.370 -22.333  0.00  0.00    +0.023 C 
ATOM     17  C   UNL     1      32.440 -13.708 -20.252  0.00  0.00    +0.012 C 
ATOM     18  C   UNL     1      33.391 -14.125 -21.182  0.00  0.00    +0.059 C 
ENDBRANCH   9  13
ENDBRANCH   1   8
BRANCH   2  20
ATOM     19  O   UNL     1      31.677  -8.475 -19.175  0.00  0.00    -0.245 OA
ATOM     20  C   UNL     1      32.023  -7.505 -19.855  0.00  0.00    +0.339 C 
BRANCH  20  21
ATOM     21  O   UNL     1      32.979  -6.632 -19.443  0.00  0.00    -0.477 OA
ATOM     22  H   UNL     1      33.338  -6.704 -18.580  0.00  0.00    +0.295 HD
ENDBRANCH  20  21
ENDBRANCH   2  20
BRANCH   5  23
ATOM     23  O   UNL     1      30.017  -4.236 -22.806  0.00  0.00    -0.392 OA
BRANCH  23  26
ATOM     24  N   UNL     1      31.962  -3.668 -23.926  0.00  0.00    -0.162 NA
ATOM     25  N   UNL     1      29.863  -2.599 -24.436  0.00  0.00    -0.185 NA
ATOM     26  C   UNL     1      30.645  -3.464 -23.769  0.00  0.00    +0.196 C 
ATOM     27  C   UNL     1      32.542  -2.900 -24.872  0.00  0.00    +0.110 C 
ATOM     28  C   UNL     1      30.507  -1.863 -25.366  0.00  0.00    +0.167 C 
ATOM     29  C   UNL     1      31.857  -1.971 -25.630  0.00  0.00    +0.022 C 
ENDBRANCH  23  26
ENDBRANCH   5  23
TORSDOF 6
ENDMDL
MODEL 7
REMARK VINA RESULT:     -10.5      2.136      2.728
REMARK  Name = 5289162
REMARK  6 active torsions:
REMARK  status: ('A' for Active; 'I' for Inactive)
REMARK    1  A    between atoms: C_1  and  N_8
REMARK    2  A    between atoms: C_2  and  C_20
REMARK    3  A    between atoms: C_5  and  O_23
REMARK    4  A    between atoms: C_9  and  C_13
REMARK    5  A    between atoms: C_20  and  O_21
REMARK    6  A    between atoms: O_23  and  C_26
REMARK                            x       y       z     vdW  Elec       q    Type
REMARK                         _______ _______ _______ _____ _____    ______ ____
ROOT
ATOM      1  C   UNL     1      34.951 -21.685 -17.528  0.00  0.00    +0.057 C 
ATOM      2  C   UNL     1      33.723 -21.806 -18.156  0.00  0.00    +0.092 C 
ATOM      3  C   UNL     1      36.047 -21.147 -18.181  0.00  0.00    +0.018 C 
ATOM      4  C   UNL     1      33.587 -21.376 -19.477  0.00  0.00    +0.046 C 
ATOM      5  C   UNL     1      34.681 -20.831 -20.149  0.00  0.00    +0.160 C 
ATOM      6  C   UNL     1      35.911 -20.717 -19.501  0.00  0.00    +0.040 C 
ENDROOT
BRANCH   1   8
ATOM      7  O   UNL     1      37.421 -22.506 -16.039  0.00  0.00    -0.270 OA
ATOM      8  N   UNL     1      35.111 -22.116 -16.187  0.00  0.00    -0.280 N 
ATOM      9  C   UNL     1      36.290 -22.492 -15.530  0.00  0.00    +0.250 C 
ATOM     10  H   UNL     1      34.289 -22.156 -15.648  0.00  0.00    +0.155 HD
BRANCH   9  13
ATOM     11 CL   UNL     1      34.927 -25.202 -15.020  0.00  0.00    -0.082 Cl
ATOM     12 CL   UNL     1      35.723 -24.107  -9.813  0.00  0.00    -0.082 Cl
ATOM     13  C   UNL     1      36.134 -22.918 -14.145  0.00  0.00    +0.064 C 
ATOM     14  C   UNL     1      35.530 -24.129 -13.809  0.00  0.00    +0.063 C 
ATOM     15  C   UNL     1      36.612 -22.074 -13.142  0.00  0.00    +0.006 C 
ATOM     16  C   UNL     1      35.403 -24.497 -12.468  0.00  0.00    +0.023 C 
ATOM     17  C   UNL     1      36.485 -22.442 -11.803  0.00  0.00    +0.012 C 
ATOM     18  C   UNL     1      35.882 -23.653 -11.466  0.00  0.00    +0.059 C 
ENDBRANCH   9  13
ENDBRANCH   1   8
BRANCH   2  20
ATOM     19  O   UNL     1      32.593 -23.266 -16.636  0.00  0.00    -0.245 OA
ATOM     20  C   UNL     1      32.560 -22.370 -17.483  0.00  0.00    +0.339 C 
BRANCH  20  21
ATOM     21  O   UNL     1      31.397 -21.795 -17.889  0.00  0.00    -0.477 OA
ATOM     22  H   UNL     1      30.774 -22.295 -18.380  0.00  0.00    +0.295 HD
ENDBRANCH  20  21
ENDBRANCH   2  20
BRANCH   5  23
ATOM     23  O   UNL     1      34.549 -20.411 -21.436  0.00  0.00    -0.392 OA
BRANCH  23  26
ATOM     24  N   UNL     1      34.827 -18.264 -20.612  0.00  0.00    -0.162 NA
ATOM     25  N   UNL     1      34.369 -18.663 -22.944  0.00  0.00    -0.185 NA
ATOM     26  C   UNL     1      34.583 -19.047 -21.675  0.00  0.00    +0.196 C 
ATOM     27  C   UNL     1      34.853 -16.943 -20.880  0.00  0.00    +0.110 C 
ATOM     28  C   UNL     1      34.409 -17.328 -23.141  0.00  0.00    +0.167 C 
ATOM     29  C   UNL     1      34.650 -16.412 -22.138  0.00  0.00    +0.022 C 
ENDBRANCH  23  26
ENDBRANCH   5  23
TORSDOF 6
ENDMDL
MODEL 8
REMARK VINA RESULT:     -10.4      7.747     11.680
REMARK  Name = 5289162
REMARK  6 active torsions:
REMARK  status: ('A' for Active; 'I' for Inactive)
REMARK    1  A    between atoms: C_1  and  N_8
REMARK    2  A    between atoms: C_2  and  C_20
REMARK    3  A    between atoms: C_5  and  O_23
REMARK    4  A    between atoms: C_9  and  C_13
REMARK    5  A    between atoms: C_20  and  O_21
REMARK    6  A    between atoms: O_23  and  C_26
REMARK                            x       y       z     vdW  Elec       q    Type
REMARK                         _______ _______ _______ _____ _____    ______ ____
ROOT
ATOM      1  C   UNL     1      32.778 -12.114 -23.259  0.00  0.00    +0.057 C 
ATOM      2  C   UNL     1      33.051 -13.252 -22.518  0.00  0.00    +0.092 C 
ATOM      3  C   UNL     1      32.698 -12.155 -24.641  0.00  0.00    +0.018 C 
ATOM      4  C   UNL     1      33.250 -14.465 -23.178  0.00  0.00    +0.046 C 
ATOM      5  C   UNL     1      33.173 -14.522 -24.569  0.00  0.00    +0.160 C 
ATOM      6  C   UNL     1      32.897 -13.367 -25.301  0.00  0.00    +0.040 C 
ENDROOT
BRANCH   1   8
ATOM      7  O   UNL     1      30.278 -10.914 -22.120  0.00  0.00    -0.270 OA
ATOM      8  N   UNL     1      32.572 -10.871 -22.609  0.00  0.00    -0.280 N 
ATOM      9  C   UNL     1      31.381 -10.349 -22.091  0.00  0.00    +0.250 C 
ATOM     10  H   UNL     1      33.369 -10.302 -22.510  0.00  0.00    +0.155 HD
BRANCH   9  13
ATOM     11 CL   UNL     1      31.481  -7.942 -24.004  0.00  0.00    -0.082 Cl
ATOM     12 CL   UNL     1      31.773  -4.975 -19.525  0.00  0.00    -0.082 Cl
ATOM     13  C   UNL     1      31.477  -9.021 -21.498  0.00  0.00    +0.064 C 
ATOM     14  C   UNL     1      31.528  -7.866 -22.279  0.00  0.00    +0.063 C 
ATOM     15  C   UNL     1      31.517  -8.925 -20.107  0.00  0.00    +0.006 C 
ATOM     16  C   UNL     1      31.619  -6.614 -21.668  0.00  0.00    +0.023 C 
ATOM     17  C   UNL     1      31.608  -7.673 -19.497  0.00  0.00    +0.012 C 
ATOM     18  C   UNL     1      31.658  -6.519 -20.277  0.00  0.00    +0.059 C 
ENDBRANCH   9  13
ENDBRANCH   1   8
BRANCH   2  20
ATOM     19  O   UNL     1      34.169 -13.408 -20.409  0.00  0.00    -0.245 OA
ATOM     20  C   UNL     1      33.139 -13.226 -21.064  0.00  0.00    +0.339 C 
BRANCH  20  21
ATOM     21  O   UNL     1      31.939 -12.973 -20.476  0.00  0.00    -0.477 OA
ATOM     22  H   UNL     1      31.576 -12.109 -20.508  0.00  0.00    +0.295 HD
ENDBRANCH  20  21
ENDBRANCH   2  20
BRANCH   5  23
ATOM     23  O   UNL     1      33.365 -15.705 -25.213  0.00  0.00    -0.392 OA
BRANCH  23  26
ATOM     24  N   UNL     1      34.597 -16.590 -23.463  0.00  0.00    -0.162 NA
ATOM     25  N   UNL     1      33.122 -17.967 -24.780  0.00  0.00    -0.185 NA
ATOM     26  C   UNL     1      33.712 -16.807 -24.449  0.00  0.00    +0.196 C 
ATOM     27  C   UNL     1      34.912 -17.683 -22.739  0.00  0.00    +0.110 C 
ATOM     28  C   UNL     1      33.482 -19.019 -24.015  0.00  0.00    +0.167 C 
ATOM     29  C   UNL     1      34.381 -18.936 -22.971  0.00  0.00    +0.022 C 
ENDBRANCH  23  26
ENDBRANCH   5  23
TORSDOF 6
ENDMDL
MODEL 9
REMARK VINA RESULT:     -10.4      3.297      8.779
REMARK  Name = 5289162
REMARK  6 active torsions:
REMARK  status: ('A' for Active; 'I' for Inactive)
REMARK    1  A    between atoms: C_1  and  N_8
REMARK    2  A    between atoms: C_2  and  C_20
REMARK    3  A    between atoms: C_5  and  O_23
REMARK    4  A    between atoms: C_9  and  C_13
REMARK    5  A    between atoms: C_20  and  O_21
REMARK    6  A    between atoms: O_23  and  C_26
REMARK                            x       y       z     vdW  Elec       q    Type
REMARK                         _______ _______ _______ _____ _____    ______ ____
ROOT
ATOM      1  C   UNL     1      35.601 -21.428 -17.219  0.00  0.00    +0.057 C 
ATOM      2  C   UNL     1      34.670 -22.400 -16.889  0.00  0.00    +0.092 C 
ATOM      3  C   UNL     1      36.775 -21.281 -16.499  0.00  0.00    +0.018 C 
ATOM      4  C   UNL     1      34.920 -23.248 -15.810  0.00  0.00    +0.046 C 
ATOM      5  C   UNL     1      36.098 -23.112 -15.075  0.00  0.00    +0.160 C 
ATOM      6  C   UNL     1      37.026 -22.128 -15.421  0.00  0.00    +0.040 C 
ENDROOT
BRANCH   1   8
ATOM      7  O   UNL     1      36.105 -21.816 -20.149  0.00  0.00    -0.270 OA
ATOM      8  N   UNL     1      35.366 -20.557 -18.312  0.00  0.00    -0.280 N 
ATOM      9  C   UNL     1      35.619 -20.780 -19.671  0.00  0.00    +0.250 C 
ATOM     10  H   UNL     1      34.977 -19.682 -18.086  0.00  0.00    +0.155 HD
BRANCH   9  13
ATOM     11 CL   UNL     1      32.656 -20.335 -20.367  0.00  0.00    -0.082 Cl
ATOM     12 CL   UNL     1      34.444 -16.221 -23.338  0.00  0.00    -0.082 Cl
ATOM     13  C   UNL     1      35.296 -19.676 -20.564  0.00  0.00    +0.064 C 
ATOM     14  C   UNL     1      33.983 -19.391 -20.941  0.00  0.00    +0.063 C 
ATOM     15  C   UNL     1      36.345 -18.892 -21.045  0.00  0.00    +0.006 C 
ATOM     16  C   UNL     1      33.720 -18.321 -21.799  0.00  0.00    +0.023 C 
ATOM     17  C   UNL     1      36.081 -17.824 -21.902  0.00  0.00    +0.012 C 
ATOM     18  C   UNL     1      34.769 -17.538 -22.279  0.00  0.00    +0.059 C 
ENDBRANCH   9  13
ENDBRANCH   1   8
BRANCH   2  20
ATOM     19  O   UNL     1      33.334 -23.080 -18.754  0.00  0.00    -0.245 OA
ATOM     20  C   UNL     1      33.429 -22.568 -17.635  0.00  0.00    +0.339 C 
BRANCH  20  21
ATOM     21  O   UNL     1      32.349 -22.093 -16.958  0.00  0.00    -0.477 OA
ATOM     22  H   UNL     1      32.411 -21.286 -16.487  0.00  0.00    +0.295 HD
ENDBRANCH  20  21
ENDBRANCH   2  20
BRANCH   5  23
ATOM     23  O   UNL     1      36.344 -23.939 -14.023  0.00  0.00    -0.392 OA
BRANCH  23  26
ATOM     24  N   UNL     1      37.686 -25.708 -14.681  0.00  0.00    -0.162 NA
ATOM     25  N   UNL     1      38.518 -23.976 -13.226  0.00  0.00    -0.185 NA
ATOM     26  C   UNL     1      37.575 -24.571 -13.975  0.00  0.00    +0.196 C 
ATOM     27  C   UNL     1      38.897 -26.298 -14.611  0.00  0.00    +0.110 C 
ATOM     28  C   UNL     1      39.704 -24.618 -13.200  0.00  0.00    +0.167 C 
ATOM     29  C   UNL     1      39.954 -25.794 -13.879  0.00  0.00    +0.022 C 
ENDBRANCH  23  26
ENDBRANCH   5  23
TORSDOF 6
ENDMDL
