MODEL 1
REMARK VINA RESULT:     -11.4      0.000      0.000
REMARK  Name = 78357816
REMARK  8 active torsions:
REMARK  status: ('A' for Active; 'I' for Inactive)
REMARK    1  A    between atoms: C_1  and  C_19
REMARK    2  A    between atoms: C_9  and  O_11
REMARK    3  A    between atoms: C_10  and  O_15
REMARK    4  A    between atoms: O_11  and  C_14
REMARK    5  A    between atoms: O_15  and  C_18
REMARK    6  A    between atoms: C_19  and  C_23
REMARK    7  A    between atoms: C_19  and  C_26
REMARK    8  A    between atoms: C_19  and  O_29
REMARK                            x       y       z     vdW  Elec       q    Type
REMARK                         _______ _______ _______ _____ _____    ______ ____
ROOT
ATOM      1  C   UNL     1      34.430 -19.159 -21.285  0.00  0.00    +0.007 C 
ATOM      2  C   UNL     1      35.253 -19.764 -20.335  0.00  0.00    -0.002 C 
ATOM      3  C   UNL     1      33.060 -19.403 -21.276  0.00  0.00    -0.002 C 
ATOM      4  C   UNL     1      34.715 -20.623 -19.363  0.00  0.00    +0.003 C 
ATOM      5  C   UNL     1      33.321 -20.872 -19.354  0.00  0.00    +0.003 C 
ATOM      6  C   UNL     1      32.508 -20.254 -20.317  0.00  0.00    -0.000 C 
ATOM      7  C   UNL     1      35.529 -21.242 -18.399  0.00  0.00    +0.040 C 
ATOM      8  C   UNL     1      32.783 -21.731 -18.382  0.00  0.00    +0.040 C 
ATOM      9  C   UNL     1      34.977 -22.091 -17.441  0.00  0.00    +0.178 C 
ATOM     10  C   UNL     1      33.608 -22.336 -17.432  0.00  0.00    +0.178 C 
ENDROOT
BRANCH   9  11
ATOM     11  O   UNL     1      35.791 -22.677 -16.519  0.00  0.00    -0.421 OA
BRANCH  11  14
ATOM     12  F   UNL     1      37.987 -22.218 -16.216  0.00  0.00    -0.155 F 
ATOM     13  F   UNL     1      36.626 -22.083 -14.525  0.00  0.00    -0.155 F 
ATOM     14  C   UNL     1      36.734 -21.844 -15.857  0.00  0.00    +0.509 C 
ENDBRANCH  11  14
ENDBRANCH   9  11
BRANCH  10  15
ATOM     15  O   UNL     1      33.057 -23.165 -16.501  0.00  0.00    -0.421 OA
BRANCH  15  18
ATOM     16  F   UNL     1      31.033 -23.838 -15.812  0.00  0.00    -0.155 F 
ATOM     17  F   UNL     1      32.087 -22.355 -14.622  0.00  0.00    -0.155 F 
ATOM     18  C   UNL     1      31.840 -22.749 -15.895  0.00  0.00    +0.509 C 
ENDBRANCH  15  18
ENDBRANCH  10  15
BRANCH   1  19
ATOM     19  C   UNL     1      35.018 -18.251 -22.310  0.00  0.00    +0.145 C 
BRANCH  19  23
ATOM     20  N   UNL     1      34.508 -16.357 -20.726  0.00  0.00    -0.165 NA
ATOM     21  N   UNL     1      34.195 -15.066 -20.916  0.00  0.00    -0.157 N 
ATOM     22  N   UNL     1      34.119 -14.604 -22.175  0.00  0.00    -0.162 NA
ATOM     23  C   UNL     1      34.646 -16.773 -21.988  0.00  0.00    +0.126 C 
ATOM     24  C   UNL     1      34.410 -15.707 -22.868  0.00  0.00    +0.138 C 
ATOM     25  H   UNL     1      34.028 -14.471 -20.150  0.00  0.00    +0.197 HD
ENDBRANCH  19  23
BRANCH  19  26
ATOM     26  C   UNL     1      34.666 -18.583 -23.837  0.00  0.00    +0.034 C 
ATOM     27  C   UNL     1      33.233 -18.153 -24.208  0.00  0.00    +0.003 C 
ATOM     28  C   UNL     1      34.802 -20.075 -24.203  0.00  0.00    +0.003 C 
ENDBRANCH  19  26
BRANCH  19  29
ATOM     29  O   UNL     1      36.477 -18.329 -22.294  0.00  0.00    -0.377 OA
ATOM     30  H   UNL     1      36.844 -17.626 -22.855  0.00  0.00    +0.211 HD
ENDBRANCH  19  29
ENDBRANCH   1  19
TORSDOF 8
ENDMDL
MODEL 2
REMARK VINA RESULT:     -11.3      1.304      3.013
REMARK  Name = 78357816
REMARK  8 active torsions:
REMARK  status: ('A' for Active; 'I' for Inactive)
REMARK    1  A    between atoms: C_1  and  C_19
REMARK    2  A    between atoms: C_9  and  O_11
REMARK    3  A    between atoms: C_10  and  O_15
REMARK    4  A    between atoms: O_11  and  C_14
REMARK    5  A    between atoms: O_15  and  C_18
REMARK    6  A    between atoms: C_19  and  C_23
REMARK    7  A    between atoms: C_19  and  C_26
REMARK    8  A    between atoms: C_19  and  O_29
REMARK                            x       y       z     vdW  Elec       q    Type
REMARK                         _______ _______ _______ _____ _____    ______ ____
ROOT
ATOM      1  C   UNL     1      34.906 -18.917 -21.146  0.00  0.00    +0.007 C 
ATOM      2  C   UNL     1      33.743 -19.537 -20.692  0.00  0.00    -0.002 C 
ATOM      3  C   UNL     1      36.134 -19.237 -20.576  0.00  0.00    -0.002 C 
ATOM      4  C   UNL     1      33.793 -20.487 -19.658  0.00  0.00    +0.003 C 
ATOM      5  C   UNL     1      35.042 -20.812 -19.078  0.00  0.00    +0.003 C 
ATOM      6  C   UNL     1      36.204 -20.178 -19.548  0.00  0.00    -0.000 C 
ATOM      7  C   UNL     1      32.630 -21.121 -19.187  0.00  0.00    +0.040 C 
ATOM      8  C   UNL     1      35.093 -21.761 -18.044  0.00  0.00    +0.040 C 
ATOM      9  C   UNL     1      32.700 -22.062 -18.161  0.00  0.00    +0.178 C 
ATOM     10  C   UNL     1      33.928 -22.382 -17.590  0.00  0.00    +0.178 C 
ENDROOT
BRANCH   9  11
ATOM     11  O   UNL     1      31.556 -22.661 -17.724  0.00  0.00    -0.421 OA
BRANCH  11  14
ATOM     12  F   UNL     1      31.344 -22.960 -15.490  0.00  0.00    -0.155 F 
ATOM     13  F   UNL     1      29.629 -22.281 -16.643  0.00  0.00    -0.155 F 
ATOM     14  C   UNL     1      30.977 -22.164 -16.525  0.00  0.00    +0.509 C 
ENDBRANCH  11  14
ENDBRANCH   9  11
BRANCH  10  15
ATOM     15  O   UNL     1      34.007 -23.299 -16.585  0.00  0.00    -0.421 OA
BRANCH  15  18
ATOM     16  F   UNL     1      34.141 -21.949 -14.800  0.00  0.00    -0.155 F 
ATOM     17  F   UNL     1      34.815 -24.006 -14.591  0.00  0.00    -0.155 F 
ATOM     18  C   UNL     1      34.786 -22.955 -15.446  0.00  0.00    +0.509 C 
ENDBRANCH  15  18
ENDBRANCH  10  15
BRANCH   1  19
ATOM     19  C   UNL     1      34.834 -17.910 -22.243  0.00  0.00    +0.145 C 
BRANCH  19  23
ATOM     20  N   UNL     1      34.429 -16.310 -20.338  0.00  0.00    -0.165 NA
ATOM     21  N   UNL     1      34.109 -15.007 -20.291  0.00  0.00    -0.157 N 
ATOM     22  N   UNL     1      33.955 -14.343 -21.449  0.00  0.00    -0.162 NA
ATOM     23  C   UNL     1      34.487 -16.509 -21.658  0.00  0.00    +0.126 C 
ATOM     24  C   UNL     1      34.200 -15.314 -22.333  0.00  0.00    +0.138 C 
ATOM     25  H   UNL     1      33.991 -14.548 -19.428  0.00  0.00    +0.197 HD
ENDBRANCH  19  23
BRANCH  19  26
ATOM     26  C   UNL     1      33.847 -18.255 -23.457  0.00  0.00    +0.034 C 
ATOM     27  C   UNL     1      34.299 -19.509 -24.233  0.00  0.00    +0.003 C 
ATOM     28  C   UNL     1      33.691 -17.116 -24.484  0.00  0.00    +0.003 C 
ENDBRANCH  19  26
BRANCH  19  29
ATOM     29  O   UNL     1      36.127 -17.777 -22.910  0.00  0.00    -0.377 OA
ATOM     30  H   UNL     1      36.838 -17.858 -22.254  0.00  0.00    +0.211 HD
ENDBRANCH  19  29
ENDBRANCH   1  19
TORSDOF 8
ENDMDL
MODEL 3
REMARK VINA RESULT:     -11.2      5.419      8.905
REMARK  Name = 78357816
REMARK  8 active torsions:
REMARK  status: ('A' for Active; 'I' for Inactive)
REMARK    1  A    between atoms: C_1  and  C_19
REMARK    2  A    between atoms: C_9  and  O_11
REMARK    3  A    between atoms: C_10  and  O_15
REMARK    4  A    between atoms: O_11  and  C_14
REMARK    5  A    between atoms: O_15  and  C_18
REMARK    6  A    between atoms: C_19  and  C_23
REMARK    7  A    between atoms: C_19  and  C_26
REMARK    8  A    between atoms: C_19  and  O_29
REMARK                            x       y       z     vdW  Elec       q    Type
REMARK                         _______ _______ _______ _____ _____    ______ ____
ROOT
ATOM      1  C   UNL     1      36.229 -22.978 -14.573  0.00  0.00    +0.007 C 
ATOM      2  C   UNL     1      34.851 -23.157 -14.693  0.00  0.00    -0.002 C 
ATOM      3  C   UNL     1      36.947 -22.391 -15.610  0.00  0.00    -0.002 C 
ATOM      4  C   UNL     1      34.173 -22.752 -15.855  0.00  0.00    +0.003 C 
ATOM      5  C   UNL     1      34.905 -22.156 -16.910  0.00  0.00    +0.003 C 
ATOM      6  C   UNL     1      36.291 -21.982 -16.772  0.00  0.00    -0.000 C 
ATOM      7  C   UNL     1      32.786 -22.926 -15.993  0.00  0.00    +0.040 C 
ATOM      8  C   UNL     1      34.228 -21.751 -18.072  0.00  0.00    +0.040 C 
ATOM      9  C   UNL     1      32.130 -22.516 -17.154  0.00  0.00    +0.178 C 
ATOM     10  C   UNL     1      32.849 -21.931 -18.191  0.00  0.00    +0.178 C 
ENDROOT
BRANCH   9  11
ATOM     11  O   UNL     1      30.784 -22.698 -17.261  0.00  0.00    -0.421 OA
BRANCH  11  14
ATOM     12  F   UNL     1      29.689 -23.918 -15.699  0.00  0.00    -0.155 F 
ATOM     13  F   UNL     1      28.859 -22.012 -16.338  0.00  0.00    -0.155 F 
ATOM     14  C   UNL     1      30.023 -22.654 -16.061  0.00  0.00    +0.509 C 
ENDBRANCH  11  14
ENDBRANCH   9  11
BRANCH  10  15
ATOM     15  O   UNL     1      32.218 -21.527 -19.330  0.00  0.00    -0.421 OA
BRANCH  15  18
ATOM     16  F   UNL     1      33.759 -20.389 -20.496  0.00  0.00    -0.155 F 
ATOM     17  F   UNL     1      31.664 -19.892 -20.796  0.00  0.00    -0.155 F 
ATOM     18  C   UNL     1      32.570 -20.253 -19.854  0.00  0.00    +0.509 C 
ENDBRANCH  15  18
ENDBRANCH  10  15
BRANCH   1  19
ATOM     19  C   UNL     1      36.931 -23.415 -13.333  0.00  0.00    +0.145 C 
BRANCH  19  23
ATOM     20  N   UNL     1      39.362 -24.083 -13.397  0.00  0.00    -0.165 NA
ATOM     21  N   UNL     1      40.001 -25.162 -13.876  0.00  0.00    -0.157 N 
ATOM     22  N   UNL     1      39.274 -26.133 -14.453  0.00  0.00    -0.162 NA
ATOM     23  C   UNL     1      38.095 -24.385 -13.695  0.00  0.00    +0.126 C 
ATOM     24  C   UNL     1      38.042 -25.631 -14.336  0.00  0.00    +0.138 C 
ATOM     25  H   UNL     1      40.979 -25.240 -13.804  0.00  0.00    +0.197 HD
ENDBRANCH  19  23
BRANCH  19  26
ATOM     26  C   UNL     1      36.014 -24.063 -12.190  0.00  0.00    +0.034 C 
ATOM     27  C   UNL     1      35.649 -23.043 -11.094  0.00  0.00    +0.003 C 
ATOM     28  C   UNL     1      36.651 -25.279 -11.488  0.00  0.00    +0.003 C 
ENDBRANCH  19  26
BRANCH  19  29
ATOM     29  O   UNL     1      37.535 -22.274 -12.650  0.00  0.00    -0.377 OA
ATOM     30  H   UNL     1      38.155 -22.592 -11.975  0.00  0.00    +0.211 HD
ENDBRANCH  19  29
ENDBRANCH   1  19
TORSDOF 8
ENDMDL
MODEL 4
REMARK VINA RESULT:      -9.6      8.647     11.660
REMARK  Name = 78357816
REMARK  8 active torsions:
REMARK  status: ('A' for Active; 'I' for Inactive)
REMARK    1  A    between atoms: C_1  and  C_19
REMARK    2  A    between atoms: C_9  and  O_11
REMARK    3  A    between atoms: C_10  and  O_15
REMARK    4  A    between atoms: O_11  and  C_14
REMARK    5  A    between atoms: O_15  and  C_18
REMARK    6  A    between atoms: C_19  and  C_23
REMARK    7  A    between atoms: C_19  and  C_26
REMARK    8  A    between atoms: C_19  and  O_29
REMARK                            x       y       z     vdW  Elec       q    Type
REMARK                         _______ _______ _______ _____ _____    ______ ____
ROOT
ATOM      1  C   UNL     1      31.377  -8.007 -22.200  0.00  0.00    +0.007 C 
ATOM      2  C   UNL     1      32.073  -8.894 -23.022  0.00  0.00    -0.002 C 
ATOM      3  C   UNL     1      30.821  -8.455 -21.006  0.00  0.00    -0.002 C 
ATOM      4  C   UNL     1      32.220 -10.243 -22.659  0.00  0.00    +0.003 C 
ATOM      5  C   UNL     1      31.654 -10.698 -21.444  0.00  0.00    +0.003 C 
ATOM      6  C   UNL     1      30.957  -9.791 -20.629  0.00  0.00    -0.000 C 
ATOM      7  C   UNL     1      32.917 -11.150 -23.474  0.00  0.00    +0.040 C 
ATOM      8  C   UNL     1      31.801 -12.046 -21.080  0.00  0.00    +0.040 C 
ATOM      9  C   UNL     1      33.055 -12.485 -23.097  0.00  0.00    +0.178 C 
ATOM     10  C   UNL     1      32.498 -12.933 -21.903  0.00  0.00    +0.178 C 
ENDROOT
BRANCH   9  11
ATOM     11  O   UNL     1      33.735 -13.343 -23.908  0.00  0.00    -0.421 OA
BRANCH  11  14
ATOM     12  F   UNL     1      33.656 -15.226 -25.162  0.00  0.00    -0.155 F 
ATOM     13  F   UNL     1      32.890 -13.364 -25.984  0.00  0.00    -0.155 F 
ATOM     14  C   UNL     1      32.976 -14.096 -24.844  0.00  0.00    +0.509 C 
ENDBRANCH  11  14
ENDBRANCH   9  11
BRANCH  10  15
ATOM     15  O   UNL     1      32.625 -14.237 -21.524  0.00  0.00    -0.421 OA
BRANCH  15  18
ATOM     16  F   UNL     1      34.523 -15.401 -21.260  0.00  0.00    -0.155 F 
ATOM     17  F   UNL     1      34.385 -13.431 -20.349  0.00  0.00    -0.155 F 
ATOM     18  C   UNL     1      33.675 -14.554 -20.620  0.00  0.00    +0.509 C 
ENDBRANCH  15  18
ENDBRANCH  10  15
BRANCH   1  19
ATOM     19  C   UNL     1      31.229  -6.579 -22.602  0.00  0.00    +0.145 C 
BRANCH  19  23
ATOM     20  N   UNL     1      30.939  -6.591 -25.107  0.00  0.00    -0.165 NA
ATOM     21  N   UNL     1      31.769  -6.312 -26.124  0.00  0.00    -0.157 N 
ATOM     22  N   UNL     1      33.028  -5.943 -25.841  0.00  0.00    -0.162 NA
ATOM     23  C   UNL     1      31.742  -6.382 -24.060  0.00  0.00    +0.126 C 
ATOM     24  C   UNL     1      33.012  -5.988 -24.506  0.00  0.00    +0.138 C 
ATOM     25  H   UNL     1      31.460  -6.376 -27.057  0.00  0.00    +0.197 HD
ENDBRANCH  19  23
BRANCH  19  26
ATOM     26  C   UNL     1      31.904  -5.497 -21.633  0.00  0.00    +0.034 C 
ATOM     27  C   UNL     1      32.979  -6.124 -20.725  0.00  0.00    +0.003 C 
ATOM     28  C   UNL     1      30.904  -4.764 -20.716  0.00  0.00    +0.003 C 
ENDBRANCH  19  26
BRANCH  19  29
ATOM     29  O   UNL     1      29.823  -6.183 -22.596  0.00  0.00    -0.377 OA
ATOM     30  H   UNL     1      29.267  -6.961 -22.759  0.00  0.00    +0.211 HD
ENDBRANCH  19  29
ENDBRANCH   1  19
TORSDOF 8
ENDMDL
MODEL 5
REMARK VINA RESULT:      -9.5      6.797      8.999
REMARK  Name = 78357816
REMARK  8 active torsions:
REMARK  status: ('A' for Active; 'I' for Inactive)
REMARK    1  A    between atoms: C_1  and  C_19
REMARK    2  A    between atoms: C_9  and  O_11
REMARK    3  A    between atoms: C_10  and  O_15
REMARK    4  A    between atoms: O_11  and  C_14
REMARK    5  A    between atoms: O_15  and  C_18
REMARK    6  A    between atoms: C_19  and  C_23
REMARK    7  A    between atoms: C_19  and  C_26
REMARK    8  A    between atoms: C_19  and  O_29
REMARK                            x       y       z     vdW  Elec       q    Type
REMARK                         _______ _______ _______ _____ _____    ______ ____
ROOT
ATOM      1  C   UNL     1      35.445 -23.207 -14.165  0.00  0.00    +0.007 C 
ATOM      2  C   UNL     1      34.173 -23.534 -13.695  0.00  0.00    -0.002 C 
ATOM      3  C   UNL     1      35.597 -22.653 -15.432  0.00  0.00    -0.002 C 
ATOM      4  C   UNL     1      33.035 -23.311 -14.488  0.00  0.00    +0.003 C 
ATOM      5  C   UNL     1      33.191 -22.747 -15.777  0.00  0.00    +0.003 C 
ATOM      6  C   UNL     1      34.478 -22.424 -16.235  0.00  0.00    -0.000 C 
ATOM      7  C   UNL     1      31.747 -23.635 -14.031  0.00  0.00    +0.040 C 
ATOM      8  C   UNL     1      32.054 -22.524 -16.571  0.00  0.00    +0.040 C 
ATOM      9  C   UNL     1      30.629 -23.405 -14.832  0.00  0.00    +0.178 C 
ATOM     10  C   UNL     1      30.782 -22.852 -16.100  0.00  0.00    +0.178 C 
ENDROOT
BRANCH   9  11
ATOM     11  O   UNL     1      29.392 -23.729 -14.362  0.00  0.00    -0.421 OA
BRANCH  11  14
ATOM     12  F   UNL     1      29.611 -25.879 -15.039  0.00  0.00    -0.155 F 
ATOM     13  F   UNL     1      27.811 -25.273 -13.979  0.00  0.00    -0.155 F 
ATOM     14  C   UNL     1      29.156 -25.092 -14.032  0.00  0.00    +0.509 C 
ENDBRANCH  11  14
ENDBRANCH   9  11
BRANCH  10  15
ATOM     15  O   UNL     1      29.696 -22.624 -16.892  0.00  0.00    -0.421 OA
BRANCH  15  18
ATOM     16  F   UNL     1      27.726 -21.609 -16.550  0.00  0.00    -0.155 F 
ATOM     17  F   UNL     1      27.734 -23.755 -16.902  0.00  0.00    -0.155 F 
ATOM     18  C   UNL     1      28.413 -22.752 -16.293  0.00  0.00    +0.509 C 
ENDBRANCH  15  18
ENDBRANCH  10  15
BRANCH   1  19
ATOM     19  C   UNL     1      36.641 -23.452 -13.310  0.00  0.00    +0.145 C 
BRANCH  19  23
ATOM     20  N   UNL     1      38.825 -23.741 -14.535  0.00  0.00    -0.165 NA
ATOM     21  N   UNL     1      39.405 -24.795 -15.132  0.00  0.00    -0.157 N 
ATOM     22  N   UNL     1      38.762 -25.973 -15.119  0.00  0.00    -0.162 NA
ATOM     23  C   UNL     1      37.691 -24.294 -14.093  0.00  0.00    +0.126 C 
ATOM     24  C   UNL     1      37.653 -25.650 -14.447  0.00  0.00    +0.138 C 
ATOM     25  H   UNL     1      40.284 -24.705 -15.567  0.00  0.00    +0.197 HD
ENDBRANCH  19  23
BRANCH  19  26
ATOM     26  C   UNL     1      36.364 -24.116 -11.879  0.00  0.00    +0.034 C 
ATOM     27  C   UNL     1      36.231 -23.059 -10.765  0.00  0.00    +0.003 C 
ATOM     28  C   UNL     1      37.448 -25.117 -11.430  0.00  0.00    +0.003 C 
ENDBRANCH  19  26
BRANCH  19  29
ATOM     29  O   UNL     1      37.291 -22.193 -12.957  0.00  0.00    -0.377 OA
ATOM     30  H   UNL     1      38.055 -22.049 -13.540  0.00  0.00    +0.211 HD
ENDBRANCH  19  29
ENDBRANCH   1  19
TORSDOF 8
ENDMDL
MODEL 6
REMARK VINA RESULT:      -9.5      9.106     11.976
REMARK  Name = 78357816
REMARK  8 active torsions:
REMARK  status: ('A' for Active; 'I' for Inactive)
REMARK    1  A    between atoms: C_1  and  C_19
REMARK    2  A    between atoms: C_9  and  O_11
REMARK    3  A    between atoms: C_10  and  O_15
REMARK    4  A    between atoms: O_11  and  C_14
REMARK    5  A    between atoms: O_15  and  C_18
REMARK    6  A    between atoms: C_19  and  C_23
REMARK    7  A    between atoms: C_19  and  C_26
REMARK    8  A    between atoms: C_19  and  O_29
REMARK                            x       y       z     vdW  Elec       q    Type
REMARK                         _______ _______ _______ _____ _____    ______ ____
ROOT
ATOM      1  C   UNL     1      32.042  -7.252 -23.042  0.00  0.00    +0.007 C 
ATOM      2  C   UNL     1      32.765  -8.363 -23.475  0.00  0.00    -0.002 C 
ATOM      3  C   UNL     1      31.054  -7.399 -22.074  0.00  0.00    -0.002 C 
ATOM      4  C   UNL     1      32.508  -9.638 -22.944  0.00  0.00    +0.003 C 
ATOM      5  C   UNL     1      31.502  -9.787 -21.959  0.00  0.00    +0.003 C 
ATOM      6  C   UNL     1      30.784  -8.657 -21.535  0.00  0.00    -0.000 C 
ATOM      7  C   UNL     1      33.227 -10.768 -23.369  0.00  0.00    +0.040 C 
ATOM      8  C   UNL     1      31.244 -11.061 -21.429  0.00  0.00    +0.040 C 
ATOM      9  C   UNL     1      32.958 -12.026 -22.829  0.00  0.00    +0.178 C 
ATOM     10  C   UNL     1      31.969 -12.173 -21.862  0.00  0.00    +0.178 C 
ENDROOT
BRANCH   9  11
ATOM     11  O   UNL     1      33.670 -13.105 -23.261  0.00  0.00    -0.421 OA
BRANCH  11  14
ATOM     12  F   UNL     1      33.795 -15.106 -24.311  0.00  0.00    -0.155 F 
ATOM     13  F   UNL     1      32.922 -13.408 -25.352  0.00  0.00    -0.155 F 
ATOM     14  C   UNL     1      33.015 -14.010 -24.139  0.00  0.00    +0.509 C 
ENDBRANCH  11  14
ENDBRANCH   9  11
BRANCH  10  15
ATOM     15  O   UNL     1      31.697 -13.397 -21.329  0.00  0.00    -0.421 OA
BRANCH  15  18
ATOM     16  F   UNL     1      31.534 -14.486 -19.376  0.00  0.00    -0.155 F 
ATOM     17  F   UNL     1      33.418 -14.584 -20.457  0.00  0.00    -0.155 F 
ATOM     18  C   UNL     1      32.390 -13.760 -20.141  0.00  0.00    +0.509 C 
ENDBRANCH  15  18
ENDBRANCH  10  15
BRANCH   1  19
ATOM     19  C   UNL     1      32.328  -5.907 -23.618  0.00  0.00    +0.145 C 
BRANCH  19  23
ATOM     20  N   UNL     1      31.833  -4.403 -21.656  0.00  0.00    -0.165 NA
ATOM     21  N   UNL     1      30.868  -3.502 -21.416  0.00  0.00    -0.157 N 
ATOM     22  N   UNL     1      29.935  -3.295 -22.360  0.00  0.00    -0.162 NA
ATOM     23  C   UNL     1      31.491  -4.822 -22.877  0.00  0.00    +0.126 C 
ATOM     24  C   UNL     1      30.338  -4.149 -23.305  0.00  0.00    +0.138 C 
ATOM     25  H   UNL     1      30.845  -3.003 -20.567  0.00  0.00    +0.197 HD
ENDBRANCH  19  23
BRANCH  19  26
ATOM     26  C   UNL     1      32.137  -5.759 -25.202  0.00  0.00    +0.034 C 
ATOM     27  C   UNL     1      31.128  -6.782 -25.761  0.00  0.00    +0.003 C 
ATOM     28  C   UNL     1      33.441  -5.916 -26.010  0.00  0.00    +0.003 C 
ENDBRANCH  19  26
BRANCH  19  29
ATOM     29  O   UNL     1      33.732  -5.552 -23.431  0.00  0.00    -0.377 OA
ATOM     30  H   UNL     1      33.836  -4.590 -23.510  0.00  0.00    +0.211 HD
ENDBRANCH  19  29
ENDBRANCH   1  19
TORSDOF 8
ENDMDL
MODEL 7
REMARK VINA RESULT:      -9.5      4.532      8.290
REMARK  Name = 78357816
REMARK  8 active torsions:
REMARK  status: ('A' for Active; 'I' for Inactive)
REMARK    1  A    between atoms: C_1  and  C_19
REMARK    2  A    between atoms: C_9  and  O_11
REMARK    3  A    between atoms: C_10  and  O_15
REMARK    4  A    between atoms: O_11  and  C_14
REMARK    5  A    between atoms: O_15  and  C_18
REMARK    6  A    between atoms: C_19  and  C_23
REMARK    7  A    between atoms: C_19  and  C_26
REMARK    8  A    between atoms: C_19  and  O_29
REMARK                            x       y       z     vdW  Elec       q    Type
REMARK                         _______ _______ _______ _____ _____    ______ ____
ROOT
ATOM      1  C   UNL     1      30.918 -23.554 -15.596  0.00  0.00    +0.007 C 
ATOM      2  C   UNL     1      31.303 -23.110 -16.861  0.00  0.00    -0.002 C 
ATOM      3  C   UNL     1      31.820 -23.510 -14.538  0.00  0.00    -0.002 C 
ATOM      4  C   UNL     1      32.599 -22.617 -17.084  0.00  0.00    +0.003 C 
ATOM      5  C   UNL     1      33.517 -22.573 -16.007  0.00  0.00    +0.003 C 
ATOM      6  C   UNL     1      33.112 -23.023 -14.740  0.00  0.00    -0.000 C 
ATOM      7  C   UNL     1      33.005 -22.166 -18.351  0.00  0.00    +0.040 C 
ATOM      8  C   UNL     1      34.813 -22.079 -16.229  0.00  0.00    +0.040 C 
ATOM      9  C   UNL     1      34.296 -21.678 -18.553  0.00  0.00    +0.178 C 
ATOM     10  C   UNL     1      35.198 -21.636 -17.495  0.00  0.00    +0.178 C 
ENDROOT
BRANCH   9  11
ATOM     11  O   UNL     1      34.662 -21.249 -19.793  0.00  0.00    -0.421 OA
BRANCH  11  14
ATOM     12  F   UNL     1      32.907 -20.130 -20.686  0.00  0.00    -0.155 F 
ATOM     13  F   UNL     1      34.929 -19.581 -21.268  0.00  0.00    -0.155 F 
ATOM     14  C   UNL     1      34.171 -19.983 -20.216  0.00  0.00    +0.509 C 
ENDBRANCH  11  14
ENDBRANCH   9  11
BRANCH  10  15
ATOM     15  O   UNL     1      36.463 -21.162 -17.681  0.00  0.00    -0.421 OA
BRANCH  15  18
ATOM     16  F   UNL     1      38.022 -21.697 -16.162  0.00  0.00    -0.155 F 
ATOM     17  F   UNL     1      37.931 -19.642 -16.867  0.00  0.00    -0.155 F 
ATOM     18  C   UNL     1      37.166 -20.709 -16.531  0.00  0.00    +0.509 C 
ENDBRANCH  15  18
ENDBRANCH  10  15
BRANCH   1  19
ATOM     19  C   UNL     1      29.538 -24.076 -15.379  0.00  0.00    +0.145 C 
BRANCH  19  23
ATOM     20  N   UNL     1      27.870 -23.418 -17.151  0.00  0.00    -0.165 NA
ATOM     21  N   UNL     1      27.095 -22.335 -17.320  0.00  0.00    -0.157 N 
ATOM     22  N   UNL     1      27.157 -21.355 -16.404  0.00  0.00    -0.162 NA
ATOM     23  C   UNL     1      28.497 -23.107 -16.013  0.00  0.00    +0.126 C 
ATOM     24  C   UNL     1      28.063 -21.853 -15.559  0.00  0.00    +0.138 C 
ATOM     25  H   UNL     1      26.494 -22.263 -18.096  0.00  0.00    +0.197 HD
ENDBRANCH  19  23
BRANCH  19  26
ATOM     26  C   UNL     1      29.134 -24.398 -13.862  0.00  0.00    +0.034 C 
ATOM     27  C   UNL     1      30.368 -24.658 -12.976  0.00  0.00    +0.003 C 
ATOM     28  C   UNL     1      28.197 -25.613 -13.706  0.00  0.00    +0.003 C 
ENDBRANCH  19  26
BRANCH  19  29
ATOM     29  O   UNL     1      29.364 -25.368 -16.037  0.00  0.00    -0.377 OA
ATOM     30  H   UNL     1      29.638 -25.297 -16.966  0.00  0.00    +0.211 HD
ENDBRANCH  19  29
ENDBRANCH   1  19
TORSDOF 8
ENDMDL
MODEL 8
REMARK VINA RESULT:      -9.4      7.367      9.981
REMARK  Name = 78357816
REMARK  8 active torsions:
REMARK  status: ('A' for Active; 'I' for Inactive)
REMARK    1  A    between atoms: C_1  and  C_19
REMARK    2  A    between atoms: C_9  and  O_11
REMARK    3  A    between atoms: C_10  and  O_15
REMARK    4  A    between atoms: O_11  and  C_14
REMARK    5  A    between atoms: O_15  and  C_18
REMARK    6  A    between atoms: C_19  and  C_23
REMARK    7  A    between atoms: C_19  and  C_26
REMARK    8  A    between atoms: C_19  and  O_29
REMARK                            x       y       z     vdW  Elec       q    Type
REMARK                         _______ _______ _______ _____ _____    ______ ____
ROOT
ATOM      1  C   UNL     1      33.951 -15.221 -21.897  0.00  0.00    +0.007 C 
ATOM      2  C   UNL     1      33.692 -14.117 -22.709  0.00  0.00    -0.002 C 
ATOM      3  C   UNL     1      33.512 -15.233 -20.576  0.00  0.00    -0.002 C 
ATOM      4  C   UNL     1      32.989 -13.009 -22.208  0.00  0.00    +0.003 C 
ATOM      5  C   UNL     1      32.542 -13.021 -20.865  0.00  0.00    +0.003 C 
ATOM      6  C   UNL     1      32.812 -14.141 -20.062  0.00  0.00    -0.000 C 
ATOM      7  C   UNL     1      32.719 -11.888 -23.012  0.00  0.00    +0.040 C 
ATOM      8  C   UNL     1      31.840 -11.913 -20.365  0.00  0.00    +0.040 C 
ATOM      9  C   UNL     1      32.019 -10.797 -22.498  0.00  0.00    +0.178 C 
ATOM     10  C   UNL     1      31.581 -10.808 -21.178  0.00  0.00    +0.178 C 
ENDROOT
BRANCH   9  11
ATOM     11  O   UNL     1      31.772  -9.723 -23.300  0.00  0.00    -0.421 OA
BRANCH  11  14
ATOM     12  F   UNL     1      32.119  -7.572 -23.915  0.00  0.00    -0.155 F 
ATOM     13  F   UNL     1      33.820  -8.814 -23.376  0.00  0.00    -0.155 F 
ATOM     14  C   UNL     1      32.528  -8.543 -23.061  0.00  0.00    +0.509 C 
ENDBRANCH  11  14
ENDBRANCH   9  11
BRANCH  10  15
ATOM     15  O   UNL     1      30.896  -9.747 -20.665  0.00  0.00    -0.421 OA
BRANCH  15  18
ATOM     16  F   UNL     1      31.116  -7.821 -19.539  0.00  0.00    -0.155 F 
ATOM     17  F   UNL     1      30.761  -9.643 -18.407  0.00  0.00    -0.155 F 
ATOM     18  C   UNL     1      31.414  -9.145 -19.486  0.00  0.00    +0.509 C 
ENDBRANCH  15  18
ENDBRANCH  10  15
BRANCH   1  19
ATOM     19  C   UNL     1      34.699 -16.389 -22.444  0.00  0.00    +0.145 C 
BRANCH  19  23
ATOM     20  N   UNL     1      33.836 -18.459 -23.594  0.00  0.00    -0.165 NA
ATOM     21  N   UNL     1      32.978 -18.651 -24.608  0.00  0.00    -0.157 N 
ATOM     22  N   UNL     1      32.418 -17.575 -25.186  0.00  0.00    -0.162 NA
ATOM     23  C   UNL     1      33.832 -17.126 -23.506  0.00  0.00    +0.126 C 
ATOM     24  C   UNL     1      32.970 -16.589 -24.474  0.00  0.00    +0.138 C 
ATOM     25  H   UNL     1      32.763 -19.560 -24.921  0.00  0.00    +0.197 HD
ENDBRANCH  19  23
BRANCH  19  26
ATOM     26  C   UNL     1      35.259 -17.438 -21.370  0.00  0.00    +0.034 C 
ATOM     27  C   UNL     1      36.603 -18.052 -21.808  0.00  0.00    +0.003 C 
ATOM     28  C   UNL     1      34.299 -18.607 -21.074  0.00  0.00    +0.003 C 
ENDBRANCH  19  26
BRANCH  19  29
ATOM     29  O   UNL     1      35.914 -15.951 -23.127  0.00  0.00    -0.377 OA
ATOM     30  H   UNL     1      35.794 -15.044 -23.451  0.00  0.00    +0.211 HD
ENDBRANCH  19  29
ENDBRANCH   1  19
TORSDOF 8
ENDMDL
MODEL 9
REMARK VINA RESULT:      -9.4      6.247      9.037
REMARK  Name = 78357816
REMARK  8 active torsions:
REMARK  status: ('A' for Active; 'I' for Inactive)
REMARK    1  A    between atoms: C_1  and  C_19
REMARK    2  A    between atoms: C_9  and  O_11
REMARK    3  A    between atoms: C_10  and  O_15
REMARK    4  A    between atoms: O_11  and  C_14
REMARK    5  A    between atoms: O_15  and  C_18
REMARK    6  A    between atoms: C_19  and  C_23
REMARK    7  A    between atoms: C_19  and  C_26
REMARK    8  A    between atoms: C_19  and  O_29
REMARK                            x       y       z     vdW  Elec       q    Type
REMARK                         _______ _______ _______ _____ _____    ______ ____
ROOT
ATOM      1  C   UNL     1      32.054 -11.028 -22.032  0.00  0.00    +0.007 C 
ATOM      2  C   UNL     1      32.511 -12.031 -21.177  0.00  0.00    -0.002 C 
ATOM      3  C   UNL     1      32.179 -11.176 -23.409  0.00  0.00    -0.002 C 
ATOM      4  C   UNL     1      33.101 -13.197 -21.691  0.00  0.00    +0.003 C 
ATOM      5  C   UNL     1      33.229 -13.348 -23.093  0.00  0.00    +0.003 C 
ATOM      6  C   UNL     1      32.763 -12.328 -23.938  0.00  0.00    -0.000 C 
ATOM      7  C   UNL     1      33.567 -14.218 -20.845  0.00  0.00    +0.040 C 
ATOM      8  C   UNL     1      33.819 -14.514 -23.607  0.00  0.00    +0.040 C 
ATOM      9  C   UNL     1      34.150 -15.369 -21.374  0.00  0.00    +0.178 C 
ATOM     10  C   UNL     1      34.276 -15.517 -22.752  0.00  0.00    +0.178 C 
ENDROOT
BRANCH   9  11
ATOM     11  O   UNL     1      34.594 -16.342 -20.530  0.00  0.00    -0.421 OA
BRANCH  11  14
ATOM     12  F   UNL     1      34.180 -18.567 -20.591  0.00  0.00    -0.155 F 
ATOM     13  F   UNL     1      36.233 -17.861 -20.710  0.00  0.00    -0.155 F 
ATOM     14  C   UNL     1      34.963 -17.588 -21.106  0.00  0.00    +0.509 C 
ENDBRANCH  11  14
ENDBRANCH   9  11
BRANCH  10  15
ATOM     15  O   UNL     1      34.845 -16.638 -23.279  0.00  0.00    -0.421 OA
BRANCH  15  18
ATOM     16  F   UNL     1      34.091 -18.649 -23.922  0.00  0.00    -0.155 F 
ATOM     17  F   UNL     1      32.819 -16.917 -24.252  0.00  0.00    -0.155 F 
ATOM     18  C   UNL     1      34.107 -17.338 -24.274  0.00  0.00    +0.509 C 
ENDBRANCH  15  18
ENDBRANCH  10  15
BRANCH   1  19
ATOM     19  C   UNL     1      31.431  -9.796 -21.468  0.00  0.00    +0.145 C 
BRANCH  19  23
ATOM     20  N   UNL     1      30.441  -8.062 -23.007  0.00  0.00    -0.165 NA
ATOM     21  N   UNL     1      30.986  -7.139 -23.815  0.00  0.00    -0.157 N 
ATOM     22  N   UNL     1      32.325  -7.052 -23.876  0.00  0.00    -0.162 NA
ATOM     23  C   UNL     1      31.536  -8.629 -22.495  0.00  0.00    +0.126 C 
ATOM     24  C   UNL     1      32.681  -8.015 -23.022  0.00  0.00    +0.138 C 
ATOM     25  H   UNL     1      30.417  -6.539 -24.349  0.00  0.00    +0.197 HD
ENDBRANCH  19  23
BRANCH  19  26
ATOM     26  C   UNL     1      31.974  -9.319 -20.039  0.00  0.00    +0.034 C 
ATOM     27  C   UNL     1      31.177  -9.946 -18.878  0.00  0.00    +0.003 C 
ATOM     28  C   UNL     1      31.948  -7.790 -19.835  0.00  0.00    +0.003 C 
ENDBRANCH  19  26
BRANCH  19  29
ATOM     29  O   UNL     1      30.007 -10.005 -21.216  0.00  0.00    -0.377 OA
ATOM     30  H   UNL     1      29.666  -9.280 -20.669  0.00  0.00    +0.211 HD
ENDBRANCH  19  29
ENDBRANCH   1  19
TORSDOF 8
ENDMDL
