MODEL 1
REMARK VINA RESULT:     -12.1      0.000      0.000
REMARK  Name = 17758816
REMARK  9 active torsions:
REMARK  status: ('A' for Active; 'I' for Inactive)
REMARK    1  A    between atoms: C_3  and  C_8
REMARK    2  A    between atoms: C_4  and  C_20
REMARK    3  A    between atoms: C_11  and  O_14
REMARK    4  A    between atoms: O_14  and  C_15
REMARK    5  A    between atoms: C_15  and  C_17
REMARK    6  A    between atoms: C_17  and  O_18
REMARK    7  A    between atoms: C_20  and  N_23
REMARK    8  A    between atoms: C_28  and  S_32
REMARK    9  A    between atoms: S_32  and  C_34
REMARK                            x       y       z     vdW  Elec       q    Type
REMARK                         _______ _______ _______ _____ _____    ______ ____
ROOT
ATOM      1  N   UNL     1      35.008 -18.845 -20.665  0.00  0.00    -0.317 N 
ATOM      2  N   UNL     1      33.809 -18.652 -22.524  0.00  0.00    -0.316 N 
ATOM      3  C   UNL     1      34.046 -19.811 -20.590  0.00  0.00    +0.060 C 
ATOM      4  C   UNL     1      34.827 -18.174 -21.842  0.00  0.00    +0.164 C 
ATOM      5  C   UNL     1      33.317 -19.672 -21.749  0.00  0.00    +0.074 C 
ATOM      6  H   UNL     1      35.706 -18.665 -19.994  0.00  0.00    +0.148 HD
ATOM      7  H   UNL     1      33.474 -18.346 -23.398  0.00  0.00    +0.148 HD
ENDROOT
BRANCH   3   8
ATOM      8  C   UNL     1      33.919 -20.724 -19.480  0.00  0.00    +0.015 C 
ATOM      9  C   UNL     1      35.059 -21.169 -18.812  0.00  0.00    +0.004 C 
ATOM     10  C   UNL     1      32.658 -21.158 -19.076  0.00  0.00    +0.004 C 
ATOM     11  C   UNL     1      33.674 -22.485 -17.331  0.00  0.00    +0.139 C 
ATOM     12  C   UNL     1      34.936 -22.051 -17.737  0.00  0.00    +0.037 C 
ATOM     13  C   UNL     1      32.535 -22.040 -18.001  0.00  0.00    +0.037 C 
BRANCH  11  14
ATOM     14  O   UNL     1      33.556 -23.346 -16.284  0.00  0.00    -0.464 OA
BRANCH  14  15
ATOM     15  C   UNL     1      34.420 -23.133 -15.167  0.00  0.00    +0.314 C 
BRANCH  15  17
ATOM     16  O   UNL     1      35.583 -25.254 -15.395  0.00  0.00    -0.246 OA
ATOM     17  C   UNL     1      34.981 -24.448 -14.702  0.00  0.00    +0.359 C 
BRANCH  17  18
ATOM     18  O   UNL     1      34.727 -24.623 -13.380  0.00  0.00    -0.478 OA
ATOM     19  H   UNL     1      35.316 -24.277 -12.739  0.00  0.00    +0.295 HD
ENDBRANCH  17  18
ENDBRANCH  15  17
ENDBRANCH  14  15
ENDBRANCH  11  14
ENDBRANCH   3   8
BRANCH   4  20
ATOM     20  C   UNL     1      35.708 -17.060 -22.236  0.00  0.00    +0.131 C 
BRANCH  20  23
ATOM     21  S   UNL     1      32.099 -11.958 -23.003  0.00  0.00    -0.045 S 
ATOM     22  O   UNL     1      34.266 -15.266 -20.543  0.00  0.00    -0.252 OA
ATOM     23  N   UNL     1      34.924 -15.920 -22.657  0.00  0.00    -0.285 N 
ATOM     24  N   UNL     1      33.577 -14.079 -22.453  0.00  0.00    -0.248 N 
ATOM     25  N   UNL     1      32.539 -12.860 -20.621  0.00  0.00    -0.222 NA
ATOM     26  C   UNL     1      34.245 -15.090 -21.758  0.00  0.00    +0.306 C 
ATOM     27  C   UNL     1      32.797 -13.065 -21.892  0.00  0.00    +0.167 C 
ATOM     28  C   UNL     1      31.384 -11.126 -21.685  0.00  0.00    +0.082 C 
ATOM     29  C   UNL     1      31.728 -11.748 -20.503  0.00  0.00    +0.114 C 
ATOM     30  H   UNL     1      34.864 -15.720 -23.619  0.00  0.00    +0.151 HD
ATOM     31  H   UNL     1      33.665 -14.081 -23.434  0.00  0.00    +0.158 HD
BRANCH  28  32
ATOM     32  S   UNL     1      30.382  -9.708 -21.880  0.00  0.00    -0.060 S 
BRANCH  32  34
ATOM     33  N   UNL     1      32.418  -8.469 -23.111  0.00  0.00    -0.237 NA
ATOM     34  C   UNL     1      31.676  -8.473 -21.981  0.00  0.00    +0.111 C 
ATOM     35  C   UNL     1      31.864  -7.597 -20.926  0.00  0.00    +0.026 C 
ATOM     36  C   UNL     1      32.878  -6.652 -21.037  0.00  0.00    +0.004 C 
ATOM     37  C   UNL     1      33.663  -6.615 -22.184  0.00  0.00    +0.021 C 
ATOM     38  C   UNL     1      33.395  -7.536 -23.184  0.00  0.00    +0.099 C 
ENDBRANCH  32  34
ENDBRANCH  28  32
ENDBRANCH  20  23
ENDBRANCH   4  20
TORSDOF 9
ENDMDL
MODEL 2
REMARK VINA RESULT:     -11.9      1.515      1.767
REMARK  Name = 17758816
REMARK  9 active torsions:
REMARK  status: ('A' for Active; 'I' for Inactive)
REMARK    1  A    between atoms: C_3  and  C_8
REMARK    2  A    between atoms: C_4  and  C_20
REMARK    3  A    between atoms: C_11  and  O_14
REMARK    4  A    between atoms: O_14  and  C_15
REMARK    5  A    between atoms: C_15  and  C_17
REMARK    6  A    between atoms: C_17  and  O_18
REMARK    7  A    between atoms: C_20  and  N_23
REMARK    8  A    between atoms: C_28  and  S_32
REMARK    9  A    between atoms: S_32  and  C_34
REMARK                            x       y       z     vdW  Elec       q    Type
REMARK                         _______ _______ _______ _____ _____    ______ ____
ROOT
ATOM      1  N   UNL     1      34.384 -18.584 -21.557  0.00  0.00    -0.317 N 
ATOM      2  N   UNL     1      36.431 -17.856 -22.012  0.00  0.00    -0.316 N 
ATOM      3  C   UNL     1      35.221 -19.280 -20.730  0.00  0.00    +0.060 C 
ATOM      4  C   UNL     1      35.155 -17.742 -22.307  0.00  0.00    +0.164 C 
ATOM      5  C   UNL     1      36.479 -18.813 -21.031  0.00  0.00    +0.074 C 
ATOM      6  H   UNL     1      33.404 -18.674 -21.602  0.00  0.00    +0.148 HD
ATOM      7  H   UNL     1      37.186 -17.362 -22.408  0.00  0.00    +0.148 HD
ENDROOT
BRANCH   3   8
ATOM      8  C   UNL     1      34.764 -20.271 -19.786  0.00  0.00    +0.015 C 
ATOM      9  C   UNL     1      35.670 -20.869 -18.911  0.00  0.00    +0.004 C 
ATOM     10  C   UNL     1      33.417 -20.629 -19.749  0.00  0.00    +0.004 C 
ATOM     11  C   UNL     1      33.881 -22.184 -17.959  0.00  0.00    +0.139 C 
ATOM     12  C   UNL     1      35.228 -21.827 -17.997  0.00  0.00    +0.037 C 
ATOM     13  C   UNL     1      32.975 -21.586 -18.835  0.00  0.00    +0.037 C 
BRANCH  11  14
ATOM     14  O   UNL     1      33.450 -23.119 -17.068  0.00  0.00    -0.464 OA
BRANCH  14  15
ATOM     15  C   UNL     1      33.685 -22.854 -15.685  0.00  0.00    +0.314 C 
BRANCH  15  17
ATOM     16  O   UNL     1      35.522 -24.426 -15.439  0.00  0.00    -0.246 OA
ATOM     17  C   UNL     1      34.438 -24.001 -15.069  0.00  0.00    +0.359 C 
BRANCH  17  18
ATOM     18  O   UNL     1      33.739 -24.511 -14.023  0.00  0.00    -0.478 OA
ATOM     19  H   UNL     1      34.186 -24.975 -13.343  0.00  0.00    +0.295 HD
ENDBRANCH  17  18
ENDBRANCH  15  17
ENDBRANCH  14  15
ENDBRANCH  11  14
ENDBRANCH   3   8
BRANCH   4  20
ATOM     20  C   UNL     1      34.556 -16.840 -23.308  0.00  0.00    +0.131 C 
BRANCH  20  23
ATOM     21  S   UNL     1      31.706 -11.578 -21.350  0.00  0.00    -0.045 S 
ATOM     22  O   UNL     1      34.193 -14.185 -24.301  0.00  0.00    -0.252 OA
ATOM     23  N   UNL     1      33.839 -15.767 -22.657  0.00  0.00    -0.285 N 
ATOM     24  N   UNL     1      32.967 -13.670 -22.361  0.00  0.00    -0.248 N 
ATOM     25  N   UNL     1      32.941 -11.588 -23.621  0.00  0.00    -0.222 NA
ATOM     26  C   UNL     1      33.708 -14.491 -23.215  0.00  0.00    +0.306 C 
ATOM     27  C   UNL     1      32.632 -12.332 -22.583  0.00  0.00    +0.167 C 
ATOM     28  C   UNL     1      31.710 -10.130 -22.267  0.00  0.00    +0.082 C 
ATOM     29  C   UNL     1      32.412 -10.326 -23.439  0.00  0.00    +0.114 C 
ATOM     30  H   UNL     1      33.424 -15.942 -21.781  0.00  0.00    +0.151 HD
ATOM     31  H   UNL     1      32.649 -14.074 -21.521  0.00  0.00    +0.158 HD
BRANCH  28  32
ATOM     32  S   UNL     1      30.922  -8.662 -21.740  0.00  0.00    -0.060 S 
BRANCH  32  34
ATOM     33  N   UNL     1      31.528  -7.097 -23.833  0.00  0.00    -0.237 NA
ATOM     34  C   UNL     1      31.949  -7.477 -22.606  0.00  0.00    +0.111 C 
ATOM     35  C   UNL     1      33.104  -7.009 -22.003  0.00  0.00    +0.026 C 
ATOM     36  C   UNL     1      33.879  -6.091 -22.703  0.00  0.00    +0.004 C 
ATOM     37  C   UNL     1      33.479  -5.675 -23.968  0.00  0.00    +0.021 C 
ATOM     38  C   UNL     1      32.306  -6.202 -24.484  0.00  0.00    +0.099 C 
ENDBRANCH  32  34
ENDBRANCH  28  32
ENDBRANCH  20  23
ENDBRANCH   4  20
TORSDOF 9
ENDMDL
MODEL 3
REMARK VINA RESULT:     -11.8      1.896      2.585
REMARK  Name = 17758816
REMARK  9 active torsions:
REMARK  status: ('A' for Active; 'I' for Inactive)
REMARK    1  A    between atoms: C_3  and  C_8
REMARK    2  A    between atoms: C_4  and  C_20
REMARK    3  A    between atoms: C_11  and  O_14
REMARK    4  A    between atoms: O_14  and  C_15
REMARK    5  A    between atoms: C_15  and  C_17
REMARK    6  A    between atoms: C_17  and  O_18
REMARK    7  A    between atoms: C_20  and  N_23
REMARK    8  A    between atoms: C_28  and  S_32
REMARK    9  A    between atoms: S_32  and  C_34
REMARK                            x       y       z     vdW  Elec       q    Type
REMARK                         _______ _______ _______ _____ _____    ______ ____
ROOT
ATOM      1  N   UNL     1      34.283 -18.486 -21.616  0.00  0.00    -0.317 N 
ATOM      2  N   UNL     1      36.399 -17.887 -21.922  0.00  0.00    -0.316 N 
ATOM      3  C   UNL     1      35.019 -19.267 -20.770  0.00  0.00    +0.060 C 
ATOM      4  C   UNL     1      35.153 -17.673 -22.286  0.00  0.00    +0.164 C 
ATOM      5  C   UNL     1      36.322 -18.879 -20.978  0.00  0.00    +0.074 C 
ATOM      6  H   UNL     1      33.304 -18.504 -21.721  0.00  0.00    +0.148 HD
ATOM      7  H   UNL     1      37.208 -17.434 -22.254  0.00  0.00    +0.148 HD
ENDROOT
BRANCH   3   8
ATOM      8  C   UNL     1      34.440 -20.256 -19.894  0.00  0.00    +0.015 C 
ATOM      9  C   UNL     1      33.058 -20.444 -19.873  0.00  0.00    +0.004 C 
ATOM     10  C   UNL     1      35.261 -21.024 -19.070  0.00  0.00    +0.004 C 
ATOM     11  C   UNL     1      33.319 -22.170 -18.203  0.00  0.00    +0.139 C 
ATOM     12  C   UNL     1      32.497 -21.402 -19.027  0.00  0.00    +0.037 C 
ATOM     13  C   UNL     1      34.701 -21.981 -18.223  0.00  0.00    +0.037 C 
BRANCH  11  14
ATOM     14  O   UNL     1      32.772 -23.103 -17.377  0.00  0.00    -0.464 OA
BRANCH  14  15
ATOM     15  C   UNL     1      32.233 -22.639 -16.139  0.00  0.00    +0.314 C 
BRANCH  15  17
ATOM     16  O   UNL     1      29.979 -22.043 -16.823  0.00  0.00    -0.246 OA
ATOM     17  C   UNL     1      30.733 -22.744 -16.166  0.00  0.00    +0.359 C 
BRANCH  17  18
ATOM     18  O   UNL     1      30.320 -23.744 -15.347  0.00  0.00    -0.478 OA
ATOM     19  H   UNL     1      29.833 -24.464 -15.696  0.00  0.00    +0.295 HD
ENDBRANCH  17  18
ENDBRANCH  15  17
ENDBRANCH  14  15
ENDBRANCH  11  14
ENDBRANCH   3   8
BRANCH   4  20
ATOM     20  C   UNL     1      34.680 -16.697 -23.284  0.00  0.00    +0.131 C 
BRANCH  20  23
ATOM     21  S   UNL     1      31.684 -11.506 -21.352  0.00  0.00    -0.045 S 
ATOM     22  O   UNL     1      34.296 -14.039 -24.260  0.00  0.00    -0.252 OA
ATOM     23  N   UNL     1      33.925 -15.643 -22.642  0.00  0.00    -0.285 N 
ATOM     24  N   UNL     1      33.009 -13.565 -22.349  0.00  0.00    -0.248 N 
ATOM     25  N   UNL     1      32.981 -11.471 -23.588  0.00  0.00    -0.222 NA
ATOM     26  C   UNL     1      33.788 -14.364 -23.190  0.00  0.00    +0.306 C 
ATOM     27  C   UNL     1      32.657 -12.231 -22.567  0.00  0.00    +0.167 C 
ATOM     28  C   UNL     1      31.688 -10.049 -22.254  0.00  0.00    +0.082 C 
ATOM     29  C   UNL     1      32.424 -10.220 -23.408  0.00  0.00    +0.114 C 
ATOM     30  H   UNL     1      33.490 -15.835 -21.780  0.00  0.00    +0.151 HD
ATOM     31  H   UNL     1      32.676 -13.983 -21.523  0.00  0.00    +0.158 HD
BRANCH  28  32
ATOM     32  S   UNL     1      30.860  -8.600 -21.734  0.00  0.00    -0.060 S 
BRANCH  32  34
ATOM     33  N   UNL     1      31.404  -6.971 -23.795  0.00  0.00    -0.237 NA
ATOM     34  C   UNL     1      31.862  -7.391 -22.595  0.00  0.00    +0.111 C 
ATOM     35  C   UNL     1      33.038  -6.946 -22.015  0.00  0.00    +0.026 C 
ATOM     36  C   UNL     1      33.793  -6.008 -22.710  0.00  0.00    +0.004 C 
ATOM     37  C   UNL     1      33.354  -5.551 -23.948  0.00  0.00    +0.021 C 
ATOM     38  C   UNL     1      32.163  -6.058 -24.442  0.00  0.00    +0.099 C 
ENDBRANCH  32  34
ENDBRANCH  28  32
ENDBRANCH  20  23
ENDBRANCH   4  20
TORSDOF 9
ENDMDL
MODEL 4
REMARK VINA RESULT:     -11.5      4.290     12.454
REMARK  Name = 17758816
REMARK  9 active torsions:
REMARK  status: ('A' for Active; 'I' for Inactive)
REMARK    1  A    between atoms: C_3  and  C_8
REMARK    2  A    between atoms: C_4  and  C_20
REMARK    3  A    between atoms: C_11  and  O_14
REMARK    4  A    between atoms: O_14  and  C_15
REMARK    5  A    between atoms: C_15  and  C_17
REMARK    6  A    between atoms: C_17  and  O_18
REMARK    7  A    between atoms: C_20  and  N_23
REMARK    8  A    between atoms: C_28  and  S_32
REMARK    9  A    between atoms: S_32  and  C_34
REMARK                            x       y       z     vdW  Elec       q    Type
REMARK                         _______ _______ _______ _____ _____    ______ ____
ROOT
ATOM      1  N   UNL     1      34.192 -15.231 -22.334  0.00  0.00    -0.317 N 
ATOM      2  N   UNL     1      34.083 -16.125 -24.363  0.00  0.00    -0.316 N 
ATOM      3  C   UNL     1      33.406 -14.391 -23.071  0.00  0.00    +0.060 C 
ATOM      4  C   UNL     1      34.575 -16.257 -23.151  0.00  0.00    +0.164 C 
ATOM      5  C   UNL     1      33.355 -14.964 -24.320  0.00  0.00    +0.074 C 
ATOM      6  H   UNL     1      34.436 -15.118 -21.387  0.00  0.00    +0.148 HD
ATOM      7  H   UNL     1      34.210 -16.727 -25.132  0.00  0.00    +0.148 HD
ENDROOT
BRANCH   3   8
ATOM      8  C   UNL     1      32.814 -13.187 -22.541  0.00  0.00    +0.015 C 
ATOM      9  C   UNL     1      32.192 -13.207 -21.293  0.00  0.00    +0.004 C 
ATOM     10  C   UNL     1      32.864 -12.003 -23.277  0.00  0.00    +0.004 C 
ATOM     11  C   UNL     1      31.672 -10.858 -21.515  0.00  0.00    +0.139 C 
ATOM     12  C   UNL     1      31.620 -12.041 -20.780  0.00  0.00    +0.037 C 
ATOM     13  C   UNL     1      32.293 -10.838 -22.765  0.00  0.00    +0.037 C 
BRANCH  11  14
ATOM     14  O   UNL     1      31.113  -9.722 -21.015  0.00  0.00    -0.464 OA
BRANCH  14  15
ATOM     15  C   UNL     1      31.633  -8.479 -21.489  0.00  0.00    +0.314 C 
BRANCH  15  17
ATOM     16  O   UNL     1      31.659  -7.763 -19.167  0.00  0.00    -0.246 OA
ATOM     17  C   UNL     1      32.027  -7.615 -20.323  0.00  0.00    +0.359 C 
BRANCH  17  18
ATOM     18  O   UNL     1      32.865  -6.630 -20.733  0.00  0.00    -0.478 OA
ATOM     19  H   UNL     1      33.192  -6.628 -21.610  0.00  0.00    +0.295 HD
ENDBRANCH  17  18
ENDBRANCH  15  17
ENDBRANCH  14  15
ENDBRANCH  11  14
ENDBRANCH   3   8
BRANCH   4  20
ATOM     20  C   UNL     1      35.437 -17.349 -22.661  0.00  0.00    +0.131 C 
BRANCH  20  23
ATOM     21  S   UNL     1      32.973 -21.620 -18.746  0.00  0.00    -0.045 S 
ATOM     22  O   UNL     1      36.340 -18.871 -20.418  0.00  0.00    -0.252 OA
ATOM     23  N   UNL     1      34.661 -18.301 -21.897  0.00  0.00    -0.285 N 
ATOM     24  N   UNL     1      34.205 -19.849 -20.272  0.00  0.00    -0.248 N 
ATOM     25  N   UNL     1      35.434 -20.888 -18.446  0.00  0.00    -0.222 NA
ATOM     26  C   UNL     1      35.183 -19.007 -20.808  0.00  0.00    +0.306 C 
ATOM     27  C   UNL     1      34.359 -20.704 -19.178  0.00  0.00    +0.167 C 
ATOM     28  C   UNL     1      33.872 -22.331 -17.470  0.00  0.00    +0.082 C 
ATOM     29  C   UNL     1      35.153 -21.821 -17.467  0.00  0.00    +0.114 C 
ATOM     30  H   UNL     1      33.724 -18.459 -22.154  0.00  0.00    +0.151 HD
ATOM     31  H   UNL     1      33.322 -19.837 -20.706  0.00  0.00    +0.158 HD
BRANCH  28  32
ATOM     32  S   UNL     1      33.204 -23.515 -16.373  0.00  0.00    -0.060 S 
BRANCH  32  34
ATOM     33  N   UNL     1      35.361 -24.769 -15.388  0.00  0.00    -0.237 NA
ATOM     34  C   UNL     1      34.594 -23.664 -15.254  0.00  0.00    +0.111 C 
ATOM     35  C   UNL     1      34.822 -22.670 -14.318  0.00  0.00    +0.026 C 
ATOM     36  C   UNL     1      35.909 -22.818 -13.463  0.00  0.00    +0.004 C 
ATOM     37  C   UNL     1      36.722 -23.941 -13.570  0.00  0.00    +0.021 C 
ATOM     38  C   UNL     1      36.409 -24.879 -14.541  0.00  0.00    +0.099 C 
ENDBRANCH  32  34
ENDBRANCH  28  32
ENDBRANCH  20  23
ENDBRANCH   4  20
TORSDOF 9
ENDMDL
MODEL 5
REMARK VINA RESULT:     -11.5      4.953     12.075
REMARK  Name = 17758816
REMARK  9 active torsions:
REMARK  status: ('A' for Active; 'I' for Inactive)
REMARK    1  A    between atoms: C_3  and  C_8
REMARK    2  A    between atoms: C_4  and  C_20
REMARK    3  A    between atoms: C_11  and  O_14
REMARK    4  A    between atoms: O_14  and  C_15
REMARK    5  A    between atoms: C_15  and  C_17
REMARK    6  A    between atoms: C_17  and  O_18
REMARK    7  A    between atoms: C_20  and  N_23
REMARK    8  A    between atoms: C_28  and  S_32
REMARK    9  A    between atoms: S_32  and  C_34
REMARK                            x       y       z     vdW  Elec       q    Type
REMARK                         _______ _______ _______ _____ _____    ______ ____
ROOT
ATOM      1  N   UNL     1      35.216 -17.458 -21.016  0.00  0.00    -0.317 N 
ATOM      2  N   UNL     1      35.347 -18.913 -22.688  0.00  0.00    -0.316 N 
ATOM      3  C   UNL     1      34.736 -16.807 -22.117  0.00  0.00    +0.060 C 
ATOM      4  C   UNL     1      35.571 -18.719 -21.407  0.00  0.00    +0.164 C 
ATOM      5  C   UNL     1      34.828 -17.725 -23.136  0.00  0.00    +0.074 C 
ATOM      6  H   UNL     1      35.292 -17.087 -20.107  0.00  0.00    +0.148 HD
ATOM      7  H   UNL     1      35.515 -19.731 -23.210  0.00  0.00    +0.148 HD
ENDROOT
BRANCH   3   8
ATOM      8  C   UNL     1      34.263 -15.444 -22.092  0.00  0.00    +0.015 C 
ATOM      9  C   UNL     1      34.105 -14.739 -23.284  0.00  0.00    +0.004 C 
ATOM     10  C   UNL     1      33.965 -14.832 -20.875  0.00  0.00    +0.004 C 
ATOM     11  C   UNL     1      33.347 -12.810 -22.043  0.00  0.00    +0.139 C 
ATOM     12  C   UNL     1      33.647 -13.421 -23.260  0.00  0.00    +0.037 C 
ATOM     13  C   UNL     1      33.507 -13.515 -20.850  0.00  0.00    +0.037 C 
BRANCH  11  14
ATOM     14  O   UNL     1      32.901 -11.524 -22.020  0.00  0.00    -0.464 OA
BRANCH  14  15
ATOM     15  C   UNL     1      31.491 -11.328 -21.909  0.00  0.00    +0.314 C 
BRANCH  15  17
ATOM     16  O   UNL     1      31.338 -10.464 -19.643  0.00  0.00    -0.246 OA
ATOM     17  C   UNL     1      31.203 -10.303 -20.846  0.00  0.00    +0.359 C 
BRANCH  17  18
ATOM     18  O   UNL     1      30.766  -9.151 -21.414  0.00  0.00    -0.478 OA
ATOM     19  H   UNL     1      30.199  -9.181 -22.159  0.00  0.00    +0.295 HD
ENDBRANCH  17  18
ENDBRANCH  15  17
ENDBRANCH  14  15
ENDBRANCH  11  14
ENDBRANCH   3   8
BRANCH   4  20
ATOM     20  C   UNL     1      36.129 -19.691 -20.450  0.00  0.00    +0.131 C 
BRANCH  20  23
ATOM     21  S   UNL     1      32.287 -22.855 -16.593  0.00  0.00    -0.045 S 
ATOM     22  O   UNL     1      36.377 -21.116 -17.985  0.00  0.00    -0.252 OA
ATOM     23  N   UNL     1      35.068 -20.359 -19.730  0.00  0.00    -0.285 N 
ATOM     24  N   UNL     1      34.072 -21.579 -18.066  0.00  0.00    -0.248 N 
ATOM     25  N   UNL     1      34.797 -22.653 -16.007  0.00  0.00    -0.222 NA
ATOM     26  C   UNL     1      35.276 -21.037 -18.524  0.00  0.00    +0.306 C 
ATOM     27  C   UNL     1      33.890 -22.320 -16.897  0.00  0.00    +0.167 C 
ATOM     28  C   UNL     1      32.836 -23.600 -15.150  0.00  0.00    +0.082 C 
ATOM     29  C   UNL     1      34.191 -23.387 -15.006  0.00  0.00    +0.114 C 
ATOM     30  H   UNL     1      34.158 -20.335 -20.105  0.00  0.00    +0.151 HD
ATOM     31  H   UNL     1      33.275 -21.421 -18.622  0.00  0.00    +0.158 HD
BRANCH  28  32
ATOM     32  S   UNL     1      31.784 -24.479 -14.068  0.00  0.00    -0.060 S 
BRANCH  32  34
ATOM     33  N   UNL     1      29.435 -24.693 -15.347  0.00  0.00    -0.237 NA
ATOM     34  C   UNL     1      30.211 -23.841 -14.640  0.00  0.00    +0.111 C 
ATOM     35  C   UNL     1      29.861 -22.534 -14.347  0.00  0.00    +0.026 C 
ATOM     36  C   UNL     1      28.633 -22.070 -14.809  0.00  0.00    +0.004 C 
ATOM     37  C   UNL     1      27.807 -22.917 -15.538  0.00  0.00    +0.021 C 
ATOM     38  C   UNL     1      28.249 -24.208 -15.778  0.00  0.00    +0.099 C 
ENDBRANCH  32  34
ENDBRANCH  28  32
ENDBRANCH  20  23
ENDBRANCH   4  20
TORSDOF 9
ENDMDL
MODEL 6
REMARK VINA RESULT:     -11.5      4.032      6.876
REMARK  Name = 17758816
REMARK  9 active torsions:
REMARK  status: ('A' for Active; 'I' for Inactive)
REMARK    1  A    between atoms: C_3  and  C_8
REMARK    2  A    between atoms: C_4  and  C_20
REMARK    3  A    between atoms: C_11  and  O_14
REMARK    4  A    between atoms: O_14  and  C_15
REMARK    5  A    between atoms: C_15  and  C_17
REMARK    6  A    between atoms: C_17  and  O_18
REMARK    7  A    between atoms: C_20  and  N_23
REMARK    8  A    between atoms: C_28  and  S_32
REMARK    9  A    between atoms: S_32  and  C_34
REMARK                            x       y       z     vdW  Elec       q    Type
REMARK                         _______ _______ _______ _____ _____    ______ ____
ROOT
ATOM      1  N   UNL     1      34.061 -22.332 -16.388  0.00  0.00    -0.317 N 
ATOM      2  N   UNL     1      35.614 -22.784 -14.867  0.00  0.00    -0.316 N 
ATOM      3  C   UNL     1      33.387 -22.790 -15.291  0.00  0.00    +0.060 C 
ATOM      4  C   UNL     1      35.394 -22.346 -16.087  0.00  0.00    +0.164 C 
ATOM      5  C   UNL     1      34.368 -23.063 -14.366  0.00  0.00    +0.074 C 
ATOM      6  H   UNL     1      33.659 -22.044 -17.240  0.00  0.00    +0.148 HD
ATOM      7  H   UNL     1      36.481 -22.887 -14.413  0.00  0.00    +0.148 HD
ENDROOT
BRANCH   3   8
ATOM      8  C   UNL     1      31.952 -22.918 -15.236  0.00  0.00    +0.015 C 
ATOM      9  C   UNL     1      31.345 -23.478 -14.112  0.00  0.00    +0.004 C 
ATOM     10  C   UNL     1      31.171 -22.482 -16.306  0.00  0.00    +0.004 C 
ATOM     11  C   UNL     1      29.175 -23.164 -15.127  0.00  0.00    +0.139 C 
ATOM     12  C   UNL     1      29.956 -23.601 -14.058  0.00  0.00    +0.037 C 
ATOM     13  C   UNL     1      29.782 -22.605 -16.252  0.00  0.00    +0.037 C 
BRANCH  11  14
ATOM     14  O   UNL     1      27.821 -23.285 -15.074  0.00  0.00    -0.464 OA
BRANCH  14  15
ATOM     15  C   UNL     1      27.053 -22.109 -15.332  0.00  0.00    +0.314 C 
BRANCH  15  17
ATOM     16  O   UNL     1      26.716 -23.000 -17.568  0.00  0.00    -0.246 OA
ATOM     17  C   UNL     1      26.664 -22.064 -16.784  0.00  0.00    +0.359 C 
BRANCH  17  18
ATOM     18  O   UNL     1      26.234 -20.820 -17.115  0.00  0.00    -0.478 OA
ATOM     19  H   UNL     1      25.380 -20.701 -17.479  0.00  0.00    +0.295 HD
ENDBRANCH  17  18
ENDBRANCH  15  17
ENDBRANCH  14  15
ENDBRANCH  11  14
ENDBRANCH   3   8
BRANCH   4  20
ATOM     20  C   UNL     1      36.407 -21.906 -17.064  0.00  0.00    +0.131 C 
BRANCH  20  23
ATOM     21  S   UNL     1      34.220 -19.130 -22.275  0.00  0.00    -0.045 S 
ATOM     22  O   UNL     1      36.777 -19.403 -18.392  0.00  0.00    -0.252 OA
ATOM     23  N   UNL     1      35.773 -21.480 -18.292  0.00  0.00    -0.285 N 
ATOM     24  N   UNL     1      35.262 -20.103 -20.049  0.00  0.00    -0.248 N 
ATOM     25  N   UNL     1      35.910 -17.873 -20.776  0.00  0.00    -0.222 NA
ATOM     26  C   UNL     1      36.011 -20.231 -18.877  0.00  0.00    +0.306 C 
ATOM     27  C   UNL     1      35.241 -18.997 -20.902  0.00  0.00    +0.167 C 
ATOM     28  C   UNL     1      34.701 -17.555 -22.753  0.00  0.00    +0.082 C 
ATOM     29  C   UNL     1      35.600 -17.048 -21.839  0.00  0.00    +0.114 C 
ATOM     30  H   UNL     1      35.146 -22.095 -18.736  0.00  0.00    +0.151 HD
ATOM     31  H   UNL     1      34.693 -20.867 -20.299  0.00  0.00    +0.158 HD
BRANCH  28  32
ATOM     32  S   UNL     1      34.106 -16.771 -24.197  0.00  0.00    -0.060 S 
BRANCH  32  34
ATOM     33  N   UNL     1      33.161 -14.264 -24.331  0.00  0.00    -0.237 NA
ATOM     34  C   UNL     1      33.732 -15.164 -23.500  0.00  0.00    +0.111 C 
ATOM     35  C   UNL     1      34.037 -14.911 -22.173  0.00  0.00    +0.026 C 
ATOM     36  C   UNL     1      33.735 -13.653 -21.664  0.00  0.00    +0.004 C 
ATOM     37  C   UNL     1      33.146 -12.700 -22.487  0.00  0.00    +0.021 C 
ATOM     38  C   UNL     1      32.881 -13.052 -23.801  0.00  0.00    +0.099 C 
ENDBRANCH  32  34
ENDBRANCH  28  32
ENDBRANCH  20  23
ENDBRANCH   4  20
TORSDOF 9
ENDMDL
MODEL 7
REMARK VINA RESULT:     -11.1      1.692      2.265
REMARK  Name = 17758816
REMARK  9 active torsions:
REMARK  status: ('A' for Active; 'I' for Inactive)
REMARK    1  A    between atoms: C_3  and  C_8
REMARK    2  A    between atoms: C_4  and  C_20
REMARK    3  A    between atoms: C_11  and  O_14
REMARK    4  A    between atoms: O_14  and  C_15
REMARK    5  A    between atoms: C_15  and  C_17
REMARK    6  A    between atoms: C_17  and  O_18
REMARK    7  A    between atoms: C_20  and  N_23
REMARK    8  A    between atoms: C_28  and  S_32
REMARK    9  A    between atoms: S_32  and  C_34
REMARK                            x       y       z     vdW  Elec       q    Type
REMARK                         _______ _______ _______ _____ _____    ______ ____
ROOT
ATOM      1  N   UNL     1      35.592 -19.176 -19.865  0.00  0.00    -0.317 N 
ATOM      2  N   UNL     1      34.290 -19.704 -21.585  0.00  0.00    -0.316 N 
ATOM      3  C   UNL     1      35.035 -20.384 -19.555  0.00  0.00    +0.060 C 
ATOM      4  C   UNL     1      35.116 -18.807 -21.092  0.00  0.00    +0.164 C 
ATOM      5  C   UNL     1      34.235 -20.689 -20.631  0.00  0.00    +0.074 C 
ATOM      6  H   UNL     1      36.222 -18.664 -19.307  0.00  0.00    +0.148 HD
ATOM      7  H   UNL     1      33.817 -19.675 -22.447  0.00  0.00    +0.148 HD
ENDROOT
BRANCH   3   8
ATOM      8  C   UNL     1      35.303 -21.092 -18.327  0.00  0.00    +0.015 C 
ATOM      9  C   UNL     1      34.340 -21.945 -17.790  0.00  0.00    +0.004 C 
ATOM     10  C   UNL     1      36.526 -20.922 -17.678  0.00  0.00    +0.004 C 
ATOM     11  C   UNL     1      35.824 -22.462 -15.953  0.00  0.00    +0.139 C 
ATOM     12  C   UNL     1      34.601 -22.631 -16.602  0.00  0.00    +0.037 C 
ATOM     13  C   UNL     1      36.786 -21.607 -16.490  0.00  0.00    +0.037 C 
BRANCH  11  14
ATOM     14  O   UNL     1      36.077 -23.130 -14.795  0.00  0.00    -0.464 OA
BRANCH  14  15
ATOM     15  C   UNL     1      36.763 -24.378 -14.901  0.00  0.00    +0.314 C 
BRANCH  15  17
ATOM     16  O   UNL     1      39.191 -24.449 -14.969  0.00  0.00    -0.246 OA
ATOM     17  C   UNL     1      38.157 -24.239 -14.354  0.00  0.00    +0.359 C 
BRANCH  17  18
ATOM     18  O   UNL     1      38.113 -23.839 -13.058  0.00  0.00    -0.478 OA
ATOM     19  H   UNL     1      37.296 -23.591 -12.671  0.00  0.00    +0.295 HD
ENDBRANCH  17  18
ENDBRANCH  15  17
ENDBRANCH  14  15
ENDBRANCH  11  14
ENDBRANCH   3   8
BRANCH   4  20
ATOM     20  C   UNL     1      35.526 -17.541 -21.727  0.00  0.00    +0.131 C 
BRANCH  20  23
ATOM     21  S   UNL     1      31.922 -12.433 -20.970  0.00  0.00    -0.045 S 
ATOM     22  O   UNL     1      34.890 -15.207 -23.248  0.00  0.00    -0.252 OA
ATOM     23  N   UNL     1      34.641 -16.468 -21.330  0.00  0.00    -0.285 N 
ATOM     24  N   UNL     1      33.495 -14.492 -21.494  0.00  0.00    -0.248 N 
ATOM     25  N   UNL     1      33.282 -12.721 -23.150  0.00  0.00    -0.222 NA
ATOM     26  C   UNL     1      34.384 -15.356 -22.139  0.00  0.00    +0.306 C 
ATOM     27  C   UNL     1      33.008 -13.282 -21.994  0.00  0.00    +0.167 C 
ATOM     28  C   UNL     1      31.799 -11.206 -22.161  0.00  0.00    +0.082 C 
ATOM     29  C   UNL     1      32.588 -11.531 -23.245  0.00  0.00    +0.114 C 
ATOM     30  H   UNL     1      34.200 -16.522 -20.451  0.00  0.00    +0.151 HD
ATOM     31  H   UNL     1      33.181 -14.762 -20.601  0.00  0.00    +0.158 HD
BRANCH  28  32
ATOM     32  S   UNL     1      30.802  -9.784 -21.969  0.00  0.00    -0.060 S 
BRANCH  32  34
ATOM     33  N   UNL     1      32.101  -7.547 -21.258  0.00  0.00    -0.237 NA
ATOM     34  C   UNL     1      32.067  -8.534 -22.181  0.00  0.00    +0.111 C 
ATOM     35  C   UNL     1      32.937  -8.623 -23.255  0.00  0.00    +0.026 C 
ATOM     36  C   UNL     1      33.907  -7.635 -23.391  0.00  0.00    +0.004 C 
ATOM     37  C   UNL     1      33.974  -6.603 -22.461  0.00  0.00    +0.021 C 
ATOM     38  C   UNL     1      33.057  -6.605 -21.422  0.00  0.00    +0.099 C 
ENDBRANCH  32  34
ENDBRANCH  28  32
ENDBRANCH  20  23
ENDBRANCH   4  20
TORSDOF 9
ENDMDL
MODEL 8
REMARK VINA RESULT:     -11.1      4.621      7.875
REMARK  Name = 17758816
REMARK  9 active torsions:
REMARK  status: ('A' for Active; 'I' for Inactive)
REMARK    1  A    between atoms: C_3  and  C_8
REMARK    2  A    between atoms: C_4  and  C_20
REMARK    3  A    between atoms: C_11  and  O_14
REMARK    4  A    between atoms: O_14  and  C_15
REMARK    5  A    between atoms: C_15  and  C_17
REMARK    6  A    between atoms: C_17  and  O_18
REMARK    7  A    between atoms: C_20  and  N_23
REMARK    8  A    between atoms: C_28  and  S_32
REMARK    9  A    between atoms: S_32  and  C_34
REMARK                            x       y       z     vdW  Elec       q    Type
REMARK                         _______ _______ _______ _____ _____    ______ ____
ROOT
ATOM      1  N   UNL     1      32.534 -23.590 -15.308  0.00  0.00    -0.317 N 
ATOM      2  N   UNL     1      31.188 -22.294 -14.109  0.00  0.00    -0.316 N 
ATOM      3  C   UNL     1      33.177 -23.382 -14.119  0.00  0.00    +0.060 C 
ATOM      4  C   UNL     1      31.345 -22.919 -15.256  0.00  0.00    +0.164 C 
ATOM      5  C   UNL     1      32.326 -22.578 -13.397  0.00  0.00    +0.074 C 
ATOM      6  H   UNL     1      32.868 -24.128 -16.063  0.00  0.00    +0.148 HD
ATOM      7  H   UNL     1      30.422 -21.744 -13.825  0.00  0.00    +0.148 HD
ENDROOT
BRANCH   3   8
ATOM      8  C   UNL     1      34.470 -23.937 -13.806  0.00  0.00    +0.015 C 
ATOM      9  C   UNL     1      34.906 -23.985 -12.482  0.00  0.00    +0.004 C 
ATOM     10  C   UNL     1      35.284 -24.427 -14.827  0.00  0.00    +0.004 C 
ATOM     11  C   UNL     1      36.971 -25.014 -13.200  0.00  0.00    +0.139 C 
ATOM     12  C   UNL     1      36.157 -24.523 -12.179  0.00  0.00    +0.037 C 
ATOM     13  C   UNL     1      36.535 -24.965 -14.524  0.00  0.00    +0.037 C 
BRANCH  11  14
ATOM     14  O   UNL     1      38.191 -25.538 -12.903  0.00  0.00    -0.464 OA
BRANCH  14  15
ATOM     15  C   UNL     1      39.335 -24.844 -13.401  0.00  0.00    +0.314 C 
BRANCH  15  17
ATOM     16  O   UNL     1      40.940 -26.630 -13.770  0.00  0.00    -0.246 OA
ATOM     17  C   UNL     1      40.184 -25.780 -14.216  0.00  0.00    +0.359 C 
BRANCH  17  18
ATOM     18  O   UNL     1      39.993 -25.553 -15.540  0.00  0.00    -0.478 OA
ATOM     19  H   UNL     1      39.645 -26.230 -16.086  0.00  0.00    +0.295 HD
ENDBRANCH  17  18
ENDBRANCH  15  17
ENDBRANCH  14  15
ENDBRANCH  11  14
ENDBRANCH   3   8
BRANCH   4  20
ATOM     20  C   UNL     1      30.402 -22.939 -16.388  0.00  0.00    +0.131 C 
BRANCH  20  23
ATOM     21  S   UNL     1      33.190 -19.300 -20.704  0.00  0.00    -0.045 S 
ATOM     22  O   UNL     1      33.029 -22.651 -17.474  0.00  0.00    -0.252 OA
ATOM     23  N   UNL     1      30.815 -21.999 -17.407  0.00  0.00    -0.285 N 
ATOM     24  N   UNL     1      32.225 -20.928 -18.859  0.00  0.00    -0.248 N 
ATOM     25  N   UNL     1      34.582 -21.079 -19.447  0.00  0.00    -0.222 NA
ATOM     26  C   UNL     1      32.128 -21.924 -17.884  0.00  0.00    +0.306 C 
ATOM     27  C   UNL     1      33.378 -20.566 -19.560  0.00  0.00    +0.167 C 
ATOM     28  C   UNL     1      34.855 -19.437 -21.090  0.00  0.00    +0.082 C 
ATOM     29  C   UNL     1      35.428 -20.431 -20.325  0.00  0.00    +0.114 C 
ATOM     30  H   UNL     1      30.143 -21.385 -17.781  0.00  0.00    +0.151 HD
ATOM     31  H   UNL     1      31.401 -20.434 -19.073  0.00  0.00    +0.158 HD
BRANCH  28  32
ATOM     32  S   UNL     1      35.644 -18.437 -22.287  0.00  0.00    -0.060 S 
BRANCH  32  34
ATOM     33  N   UNL     1      34.741 -16.587 -20.568  0.00  0.00    -0.237 NA
ATOM     34  C   UNL     1      34.875 -16.871 -21.883  0.00  0.00    +0.111 C 
ATOM     35  C   UNL     1      34.456 -16.036 -22.904  0.00  0.00    +0.026 C 
ATOM     36  C   UNL     1      33.862 -14.828 -22.555  0.00  0.00    +0.004 C 
ATOM     37  C   UNL     1      33.706 -14.499 -21.213  0.00  0.00    +0.021 C 
ATOM     38  C   UNL     1      34.159 -15.404 -20.267  0.00  0.00    +0.099 C 
ENDBRANCH  32  34
ENDBRANCH  28  32
ENDBRANCH  20  23
ENDBRANCH   4  20
TORSDOF 9
ENDMDL
MODEL 9
REMARK VINA RESULT:     -11.1      4.972     12.940
REMARK  Name = 17758816
REMARK  9 active torsions:
REMARK  status: ('A' for Active; 'I' for Inactive)
REMARK    1  A    between atoms: C_3  and  C_8
REMARK    2  A    between atoms: C_4  and  C_20
REMARK    3  A    between atoms: C_11  and  O_14
REMARK    4  A    between atoms: O_14  and  C_15
REMARK    5  A    between atoms: C_15  and  C_17
REMARK    6  A    between atoms: C_17  and  O_18
REMARK    7  A    between atoms: C_20  and  N_23
REMARK    8  A    between atoms: C_28  and  S_32
REMARK    9  A    between atoms: S_32  and  C_34
REMARK                            x       y       z     vdW  Elec       q    Type
REMARK                         _______ _______ _______ _____ _____    ______ ____
ROOT
ATOM      1  N   UNL     1      34.098 -18.121 -21.430  0.00  0.00    -0.317 N 
ATOM      2  N   UNL     1      36.184 -18.879 -21.388  0.00  0.00    -0.316 N 
ATOM      3  C   UNL     1      34.892 -17.046 -21.714  0.00  0.00    +0.060 C 
ATOM      4  C   UNL     1      34.916 -19.199 -21.242  0.00  0.00    +0.164 C 
ATOM      5  C   UNL     1      36.175 -17.540 -21.681  0.00  0.00    +0.074 C 
ATOM      6  H   UNL     1      33.115 -18.119 -21.372  0.00  0.00    +0.148 HD
ATOM      7  H   UNL     1      36.966 -19.472 -21.305  0.00  0.00    +0.148 HD
ENDROOT
BRANCH   3   8
ATOM      8  C   UNL     1      34.378 -15.723 -21.973  0.00  0.00    +0.015 C 
ATOM      9  C   UNL     1      34.260 -15.266 -23.285  0.00  0.00    +0.004 C 
ATOM     10  C   UNL     1      33.998 -14.903 -20.912  0.00  0.00    +0.004 C 
ATOM     11  C   UNL     1      33.381 -13.167 -22.474  0.00  0.00    +0.139 C 
ATOM     12  C   UNL     1      33.762 -13.987 -23.536  0.00  0.00    +0.037 C 
ATOM     13  C   UNL     1      33.500 -13.624 -21.162  0.00  0.00    +0.037 C 
BRANCH  11  14
ATOM     14  O   UNL     1      32.896 -11.919 -22.719  0.00  0.00    -0.464 OA
BRANCH  14  15
ATOM     15  C   UNL     1      31.675 -11.558 -22.072  0.00  0.00    +0.314 C 
BRANCH  15  17
ATOM     16  O   UNL     1      31.115  -9.402 -21.102  0.00  0.00    -0.246 OA
ATOM     17  C   UNL     1      31.541 -10.061 -22.038  0.00  0.00    +0.359 C 
BRANCH  17  18
ATOM     18  O   UNL     1      31.967  -9.527 -23.211  0.00  0.00    -0.478 OA
ATOM     19  H   UNL     1      32.545  -8.790 -23.207  0.00  0.00    +0.295 HD
ENDBRANCH  17  18
ENDBRANCH  15  17
ENDBRANCH  14  15
ENDBRANCH  11  14
ENDBRANCH   3   8
BRANCH   4  20
ATOM     20  C   UNL     1      34.372 -20.530 -20.917  0.00  0.00    +0.131 C 
BRANCH  20  23
ATOM     21  S   UNL     1      35.221 -22.678 -15.059  0.00  0.00    -0.045 S 
ATOM     22  O   UNL     1      32.767 -21.789 -18.917  0.00  0.00    -0.252 OA
ATOM     23  N   UNL     1      34.804 -20.945 -19.601  0.00  0.00    -0.285 N 
ATOM     24  N   UNL     1      34.644 -21.843 -17.500  0.00  0.00    -0.248 N 
ATOM     25  N   UNL     1      32.892 -22.875 -16.163  0.00  0.00    -0.222 NA
ATOM     26  C   UNL     1      33.949 -21.557 -18.678  0.00  0.00    +0.306 C 
ATOM     27  C   UNL     1      34.121 -22.453 -16.358  0.00  0.00    +0.167 C 
ATOM     28  C   UNL     1      33.960 -23.398 -14.149  0.00  0.00    +0.082 C 
ATOM     29  C   UNL     1      32.801 -23.417 -14.896  0.00  0.00    +0.114 C 
ATOM     30  H   UNL     1      35.741 -20.790 -19.343  0.00  0.00    +0.151 HD
ATOM     31  H   UNL     1      35.595 -21.590 -17.473  0.00  0.00    +0.158 HD
BRANCH  28  32
ATOM     32  S   UNL     1      34.179 -24.002 -12.524  0.00  0.00    -0.060 S 
BRANCH  32  34
ATOM     33  N   UNL     1      36.196 -25.539 -13.399  0.00  0.00    -0.237 NA
ATOM     34  C   UNL     1      35.906 -24.462 -12.635  0.00  0.00    +0.111 C 
ATOM     35  C   UNL     1      36.853 -23.718 -11.951  0.00  0.00    +0.026 C 
ATOM     36  C   UNL     1      38.185 -24.104 -12.057  0.00  0.00    +0.004 C 
ATOM     37  C   UNL     1      38.523 -25.206 -12.835  0.00  0.00    +0.021 C 
ATOM     38  C   UNL     1      37.501 -25.883 -13.480  0.00  0.00    +0.099 C 
ENDBRANCH  32  34
ENDBRANCH  28  32
ENDBRANCH  20  23
ENDBRANCH   4  20
TORSDOF 9
ENDMDL
