MODEL 1
REMARK VINA RESULT:     -12.2      0.000      0.000
REMARK  Name = 24894149
REMARK  3 active torsions:
REMARK  status: ('A' for Active; 'I' for Inactive)
REMARK    1  A    between atoms: C_15  and  C_23
REMARK    2  A    between atoms: C_28  and  C_29
REMARK    3  A    between atoms: C_29  and  N_30
REMARK                            x       y       z     vdW  Elec       q    Type
REMARK                         _______ _______ _______ _____ _____    ______ ____
ROOT
ATOM      1  F   UNL     1      30.577  -7.201 -22.587  0.00  0.00    -0.204 F 
ATOM      2  O   UNL     1      33.247 -15.957 -25.487  0.00  0.00    -0.270 OA
ATOM      3  N   UNL     1      32.922 -14.354 -23.815  0.00  0.00    -0.276 N 
ATOM      4  N   UNL     1      34.114 -10.384 -23.343  0.00  0.00    -0.318 N 
ATOM      5  N   UNL     1      31.829 -11.201 -22.723  0.00  0.00    -0.242 NA
ATOM      6  N   UNL     1      30.169  -9.735 -22.087  0.00  0.00    -0.343 N 
ATOM      7  C   UNL     1      33.167 -11.484 -23.264  0.00  0.00    +0.145 C 
ATOM      8  C   UNL     1      32.984 -12.054 -24.693  0.00  0.00    +0.063 C 
ATOM      9  C   UNL     1      33.800 -12.569 -22.358  0.00  0.00    +0.063 C 
ATOM     10  C   UNL     1      32.261 -13.400 -24.703  0.00  0.00    +0.097 C 
ATOM     11  C   UNL     1      33.063 -13.908 -22.424  0.00  0.00    +0.097 C 
ATOM     12  C   UNL     1      33.636  -9.088 -23.296  0.00  0.00    +0.051 C 
ATOM     13  C   UNL     1      31.430  -9.973 -22.585  0.00  0.00    +0.125 C 
ATOM     14  C   UNL     1      32.309  -8.817 -22.940  0.00  0.00    +0.071 C 
ATOM     15  C   UNL     1      33.363 -15.578 -24.323  0.00  0.00    +0.249 C 
ATOM     16  C   UNL     1      34.494  -8.015 -23.582  0.00  0.00    +0.015 C 
ATOM     17  C   UNL     1      31.846  -7.494 -22.907  0.00  0.00    +0.144 C 
ATOM     18  C   UNL     1      34.034  -6.700 -23.542  0.00  0.00    +0.004 C 
ATOM     19  C   UNL     1      32.709  -6.441 -23.210  0.00  0.00    +0.030 C 
ATOM     20  H   UNL     1      35.079 -10.559 -23.428  0.00  0.00    +0.148 HD
ATOM     21  H   UNL     1      29.582 -10.489 -21.850  0.00  0.00    +0.144 HD
ATOM     22  H   UNL     1      29.853  -8.810 -21.967  0.00  0.00    +0.144 HD
ENDROOT
BRANCH  15  23
ATOM     23  C   UNL     1      34.024 -16.511 -23.402  0.00  0.00    +0.054 C 
ATOM     24  C   UNL     1      34.661 -16.028 -22.259  0.00  0.00    +0.004 C 
ATOM     25  C   UNL     1      34.014 -17.880 -23.670  0.00  0.00    +0.004 C 
ATOM     26  C   UNL     1      35.289 -16.915 -21.384  0.00  0.00    -0.006 C 
ATOM     27  C   UNL     1      34.642 -18.767 -22.795  0.00  0.00    -0.006 C 
ATOM     28  C   UNL     1      35.279 -18.284 -21.651  0.00  0.00    -0.044 C 
BRANCH  28  29
ATOM     29  C   UNL     1      35.950 -19.232 -20.717  0.00  0.00    -0.059 C 
BRANCH  29  30
ATOM     30  N   UNL     1      34.995 -20.067 -19.987  0.00  0.00    +0.383 N 
ATOM     31  H   UNL     1      34.182 -20.249 -20.576  0.00  0.00    -0.089 HD
ATOM     32  H   UNL     1      34.698 -19.582 -19.140  0.00  0.00    -0.089 HD
ATOM     33  H   UNL     1      35.438 -20.950 -19.735  0.00  0.00    -0.089 HD
ENDBRANCH  29  30
ENDBRANCH  28  29
ENDBRANCH  15  23
TORSDOF 3
ENDMDL
MODEL 2
REMARK VINA RESULT:     -10.4      5.371      8.681
REMARK  Name = 24894149
REMARK  3 active torsions:
REMARK  status: ('A' for Active; 'I' for Inactive)
REMARK    1  A    between atoms: C_15  and  C_23
REMARK    2  A    between atoms: C_28  and  C_29
REMARK    3  A    between atoms: C_29  and  N_30
REMARK                            x       y       z     vdW  Elec       q    Type
REMARK                         _______ _______ _______ _____ _____    ______ ____
ROOT
ATOM      1  F   UNL     1      34.193 -17.020 -25.565  0.00  0.00    -0.204 F 
ATOM      2  O   UNL     1      36.603 -21.877 -17.639  0.00  0.00    -0.270 OA
ATOM      3  N   UNL     1      35.016 -21.092 -19.168  0.00  0.00    -0.276 N 
ATOM      4  N   UNL     1      34.143 -17.334 -20.758  0.00  0.00    -0.318 N 
ATOM      5  N   UNL     1      34.135 -19.428 -22.132  0.00  0.00    -0.242 NA
ATOM      6  N   UNL     1      33.887 -19.352 -24.421  0.00  0.00    -0.343 N 
ATOM      7  C   UNL     1      34.335 -18.773 -20.830  0.00  0.00    +0.145 C 
ATOM      8  C   UNL     1      35.781 -19.081 -20.368  0.00  0.00    +0.063 C 
ATOM      9  C   UNL     1      33.334 -19.419 -19.842  0.00  0.00    +0.063 C 
ATOM     10  C   UNL     1      36.011 -20.568 -20.102  0.00  0.00    +0.097 C 
ATOM     11  C   UNL     1      33.621 -20.899 -19.581  0.00  0.00    +0.097 C 
ATOM     12  C   UNL     1      34.176 -16.597 -21.926  0.00  0.00    +0.051 C 
ATOM     13  C   UNL     1      34.063 -18.715 -23.214  0.00  0.00    +0.125 C 
ATOM     14  C   UNL     1      34.153 -17.222 -23.179  0.00  0.00    +0.071 C 
ATOM     15  C   UNL     1      35.435 -21.713 -17.989  0.00  0.00    +0.249 C 
ATOM     16  C   UNL     1      34.208 -15.195 -21.868  0.00  0.00    +0.015 C 
ATOM     17  C   UNL     1      34.197 -16.453 -24.350  0.00  0.00    +0.144 C 
ATOM     18  C   UNL     1      34.244 -14.431 -23.034  0.00  0.00    +0.004 C 
ATOM     19  C   UNL     1      34.243 -15.061 -24.274  0.00  0.00    +0.030 C 
ATOM     20  H   UNL     1      33.991 -16.892 -19.891  0.00  0.00    +0.148 HD
ATOM     21  H   UNL     1      33.827 -20.334 -24.456  0.00  0.00    +0.144 HD
ATOM     22  H   UNL     1      33.821 -18.826 -25.252  0.00  0.00    +0.144 HD
ENDROOT
BRANCH  15  23
ATOM     23  C   UNL     1      34.408 -22.224 -17.074  0.00  0.00    +0.054 C 
ATOM     24  C   UNL     1      34.724 -22.464 -15.736  0.00  0.00    +0.004 C 
ATOM     25  C   UNL     1      33.117 -22.469 -17.541  0.00  0.00    +0.004 C 
ATOM     26  C   UNL     1      33.747 -22.950 -14.867  0.00  0.00    -0.006 C 
ATOM     27  C   UNL     1      32.141 -22.955 -16.671  0.00  0.00    -0.006 C 
ATOM     28  C   UNL     1      32.456 -23.195 -15.333  0.00  0.00    -0.044 C 
BRANCH  28  29
ATOM     29  C   UNL     1      31.412 -23.714 -14.405  0.00  0.00    -0.059 C 
BRANCH  29  30
ATOM     30  N   UNL     1      31.946 -24.690 -13.454  0.00  0.00    +0.383 N 
ATOM     31  H   UNL     1      31.850 -24.328 -12.505  0.00  0.00    -0.089 HD
ATOM     32  H   UNL     1      32.932 -24.857 -13.656  0.00  0.00    -0.089 HD
ATOM     33  H   UNL     1      31.429 -25.565 -13.538  0.00  0.00    -0.089 HD
ENDBRANCH  29  30
ENDBRANCH  28  29
ENDBRANCH  15  23
TORSDOF 3
ENDMDL
