MODEL 1
REMARK VINA RESULT:     -10.7      0.000      0.000
REMARK  Name = 11691484
REMARK  7 active torsions:
REMARK  status: ('A' for Active; 'I' for Inactive)
REMARK    1  A    between atoms: C_3  and  O_22
REMARK    2  A    between atoms: C_4  and  O_7
REMARK    3  A    between atoms: N_9  and  C_12
REMARK    4  A    between atoms: C_15  and  S_18
REMARK    5  A    between atoms: O_22  and  C_25
REMARK    6  A    between atoms: C_30  and  O_31
REMARK    7  A    between atoms: O_31  and  C_32
REMARK                            x       y       z     vdW  Elec       q    Type
REMARK                         _______ _______ _______ _____ _____    ______ ____
ROOT
ATOM      1  N   UNL     1      31.186 -11.046 -20.248  0.00  0.00    -0.212 NA
ATOM      2  N   UNL     1      31.497  -8.728 -20.826  0.00  0.00    -0.231 NA
ATOM      3  C   UNL     1      31.574 -11.372 -21.499  0.00  0.00    +0.233 C 
ATOM      4  C   UNL     1      31.934 -10.445 -22.455  0.00  0.00    +0.244 C 
ATOM      5  C   UNL     1      31.876  -9.125 -22.058  0.00  0.00    +0.139 C 
ATOM      6  C   UNL     1      31.170  -9.726 -19.984  0.00  0.00    +0.254 C 
ATOM      7  N   UNL     1      32.235  -8.129 -23.001  0.00  0.00    -0.312 N 
ATOM      8  H   UNL     1      32.906  -8.426 -23.657  0.00  0.00    +0.149 HD
ENDROOT
BRANCH   7  10
ATOM      9  N   UNL     1      32.350  -4.443 -23.267  0.00  0.00    -0.390 NA
ATOM     10  C   UNL     1      31.818  -6.801 -23.180  0.00  0.00    +0.142 C 
ATOM     11  C   UNL     1      32.703  -5.738 -23.100  0.00  0.00    +0.111 C 
ATOM     12  C   UNL     1      30.483  -6.516 -23.448  0.00  0.00    +0.004 C 
ATOM     13  C   UNL     1      31.045  -4.206 -23.526  0.00  0.00    +0.234 C 
ATOM     14  C   UNL     1      30.081  -5.197 -23.625  0.00  0.00    +0.049 C 
ATOM     15  C   UNL     1      34.150  -5.979 -22.813  0.00  0.00    +0.064 C 
BRANCH  13  16
ATOM     16  S   UNL     1      30.686  -2.519 -23.727  0.00  0.00    +0.038 S 
ATOM     17  O   UNL     1      31.943  -1.805 -23.924  0.00  0.00    -0.166 OA
ATOM     18  O   UNL     1      29.617  -2.368 -24.707  0.00  0.00    -0.166 OA
ATOM     19  C   UNL     1      30.017  -2.010 -22.157  0.00  0.00    +0.185 C 
ENDBRANCH  13  16
ENDBRANCH   7  10
BRANCH   4  20
ATOM     20  O   UNL     1      32.318 -10.820 -23.699  0.00  0.00    -0.338 OA
ATOM     21  C   UNL     1      33.720 -10.825 -23.980  0.00  0.00    +0.175 C 
ENDBRANCH   4  20
BRANCH   3  22
ATOM     22  O   UNL     1      31.605 -12.708 -21.803  0.00  0.00    -0.465 OA
BRANCH  22  25
ATOM     23  O   UNL     1      34.929 -17.694 -23.058  0.00  0.00    -0.226 OA
ATOM     24  N   UNL     1      34.413 -15.791 -21.828  0.00  0.00    -0.246 N 
ATOM     25  C   UNL     1      32.873 -13.349 -21.746  0.00  0.00    +0.171 C 
ATOM     26  C   UNL     1      32.878 -14.329 -20.573  0.00  0.00    +0.065 C 
ATOM     27  C   UNL     1      33.144 -14.080 -23.063  0.00  0.00    +0.065 C 
ATOM     28  C   UNL     1      34.168 -15.143 -20.534  0.00  0.00    +0.100 C 
ATOM     29  C   UNL     1      34.429 -14.896 -22.986  0.00  0.00    +0.100 C 
ATOM     30  C   UNL     1      34.674 -17.155 -21.982  0.00  0.00    +0.405 C 
BRANCH  30  31
ATOM     31  O   UNL     1      34.619 -17.842 -20.798  0.00  0.00    -0.438 OA
BRANCH  31  32
ATOM     32  C   UNL     1      34.597 -19.270 -20.897  0.00  0.00    +0.171 C 
ATOM     33  C   UNL     1      33.236 -19.783 -20.449  0.00  0.00    +0.047 C 
ATOM     34  C   UNL     1      35.725 -19.848 -20.056  0.00  0.00    +0.047 C 
ENDBRANCH  31  32
ENDBRANCH  30  31
ENDBRANCH  22  25
ENDBRANCH   3  22
TORSDOF 7
ENDMDL
MODEL 2
REMARK VINA RESULT:     -10.1      7.763     15.080
REMARK  Name = 11691484
REMARK  7 active torsions:
REMARK  status: ('A' for Active; 'I' for Inactive)
REMARK    1  A    between atoms: C_3  and  O_22
REMARK    2  A    between atoms: C_4  and  O_7
REMARK    3  A    between atoms: N_9  and  C_12
REMARK    4  A    between atoms: C_15  and  S_18
REMARK    5  A    between atoms: O_22  and  C_25
REMARK    6  A    between atoms: C_30  and  O_31
REMARK    7  A    between atoms: O_31  and  C_32
REMARK                            x       y       z     vdW  Elec       q    Type
REMARK                         _______ _______ _______ _____ _____    ______ ____
ROOT
ATOM      1  N   UNL     1      36.835 -19.371 -19.098  0.00  0.00    -0.212 NA
ATOM      2  N   UNL     1      36.520 -20.324 -16.907  0.00  0.00    -0.231 NA
ATOM      3  C   UNL     1      35.979 -20.296 -19.582  0.00  0.00    +0.233 C 
ATOM      4  C   UNL     1      35.363 -21.253 -18.801  0.00  0.00    +0.244 C 
ATOM      5  C   UNL     1      35.674 -21.218 -17.458  0.00  0.00    +0.139 C 
ATOM      6  C   UNL     1      37.056 -19.442 -17.771  0.00  0.00    +0.254 C 
ATOM      7  N   UNL     1      35.070 -22.179 -16.609  0.00  0.00    -0.312 N 
ATOM      8  H   UNL     1      34.180 -22.471 -16.910  0.00  0.00    +0.149 HD
ENDROOT
BRANCH   7  10
ATOM      9  N   UNL     1      34.968 -23.740 -13.260  0.00  0.00    -0.390 NA
ATOM     10  C   UNL     1      35.496 -22.794 -15.422  0.00  0.00    +0.142 C 
ATOM     11  C   UNL     1      34.607 -23.145 -14.418  0.00  0.00    +0.111 C 
ATOM     12  C   UNL     1      36.844 -23.072 -15.222  0.00  0.00    +0.004 C 
ATOM     13  C   UNL     1      36.287 -23.995 -13.102  0.00  0.00    +0.234 C 
ATOM     14  C   UNL     1      37.255 -23.683 -14.043  0.00  0.00    +0.049 C 
ATOM     15  C   UNL     1      33.146 -22.871 -14.573  0.00  0.00    +0.064 C 
BRANCH  13  16
ATOM     16  S   UNL     1      36.655 -24.761 -11.588  0.00  0.00    +0.038 S 
ATOM     17  O   UNL     1      36.607 -26.206 -11.782  0.00  0.00    -0.166 OA
ATOM     18  O   UNL     1      37.856 -24.156 -11.022  0.00  0.00    -0.166 OA
ATOM     19  C   UNL     1      35.304 -24.315 -10.516  0.00  0.00    +0.185 C 
ENDBRANCH  13  16
ENDBRANCH   7  10
BRANCH   4  20
ATOM     20  O   UNL     1      34.511 -22.162 -19.333  0.00  0.00    -0.338 OA
ATOM     21  C   UNL     1      33.112 -21.879 -19.245  0.00  0.00    +0.175 C 
ENDBRANCH   4  20
BRANCH   3  22
ATOM     22  O   UNL     1      35.728 -20.252 -20.928  0.00  0.00    -0.465 OA
BRANCH  22  25
ATOM     23  O   UNL     1      34.166 -15.946 -24.992  0.00  0.00    -0.226 OA
ATOM     24  N   UNL     1      34.107 -16.953 -22.896  0.00  0.00    -0.246 N 
ATOM     25  C   UNL     1      34.751 -19.316 -21.368  0.00  0.00    +0.171 C 
ATOM     26  C   UNL     1      35.154 -17.922 -20.889  0.00  0.00    +0.065 C 
ATOM     27  C   UNL     1      34.646 -19.355 -22.894  0.00  0.00    +0.065 C 
ATOM     28  C   UNL     1      34.214 -16.852 -21.436  0.00  0.00    +0.100 C 
ATOM     29  C   UNL     1      33.713 -18.265 -23.410  0.00  0.00    +0.100 C 
ATOM     30  C   UNL     1      34.303 -15.879 -23.771  0.00  0.00    +0.405 C 
BRANCH  30  31
ATOM     31  O   UNL     1      34.667 -14.729 -23.122  0.00  0.00    -0.438 OA
BRANCH  31  32
ATOM     32  C   UNL     1      33.598 -13.866 -22.719  0.00  0.00    +0.171 C 
ATOM     33  C   UNL     1      33.513 -12.690 -23.681  0.00  0.00    +0.047 C 
ATOM     34  C   UNL     1      33.834 -13.411 -21.287  0.00  0.00    +0.047 C 
ENDBRANCH  31  32
ENDBRANCH  30  31
ENDBRANCH  22  25
ENDBRANCH   3  22
TORSDOF 7
ENDMDL
MODEL 3
REMARK VINA RESULT:      -9.7      1.511      2.143
REMARK  Name = 11691484
REMARK  7 active torsions:
REMARK  status: ('A' for Active; 'I' for Inactive)
REMARK    1  A    between atoms: C_3  and  O_22
REMARK    2  A    between atoms: C_4  and  O_7
REMARK    3  A    between atoms: N_9  and  C_12
REMARK    4  A    between atoms: C_15  and  S_18
REMARK    5  A    between atoms: O_22  and  C_25
REMARK    6  A    between atoms: C_30  and  O_31
REMARK    7  A    between atoms: O_31  and  C_32
REMARK                            x       y       z     vdW  Elec       q    Type
REMARK                         _______ _______ _______ _____ _____    ______ ____
ROOT
ATOM      1  N   UNL     1      33.384 -11.719 -23.136  0.00  0.00    -0.212 NA
ATOM      2  N   UNL     1      32.457  -9.608 -23.834  0.00  0.00    -0.231 NA
ATOM      3  C   UNL     1      32.520 -11.714 -22.100  0.00  0.00    +0.233 C 
ATOM      4  C   UNL     1      31.607 -10.705 -21.868  0.00  0.00    +0.244 C 
ATOM      5  C   UNL     1      31.620  -9.668 -22.777  0.00  0.00    +0.139 C 
ATOM      6  C   UNL     1      33.299 -10.651 -23.951  0.00  0.00    +0.254 C 
ATOM      7  N   UNL     1      30.703  -8.604 -22.588  0.00  0.00    -0.312 N 
ATOM      8  H   UNL     1      29.865  -8.875 -22.150  0.00  0.00    +0.149 HD
ENDROOT
BRANCH   7  10
ATOM      9  N   UNL     1      31.170  -4.955 -22.219  0.00  0.00    -0.390 NA
ATOM     10  C   UNL     1      30.760  -7.238 -22.905  0.00  0.00    +0.142 C 
ATOM     11  C   UNL     1      31.100  -6.281 -21.962  0.00  0.00    +0.111 C 
ATOM     12  C   UNL     1      30.473  -6.805 -24.196  0.00  0.00    +0.004 C 
ATOM     13  C   UNL     1      30.884  -4.573 -23.484  0.00  0.00    +0.234 C 
ATOM     14  C   UNL     1      30.534  -5.450 -24.498  0.00  0.00    +0.049 C 
ATOM     15  C   UNL     1      31.418  -6.682 -20.558  0.00  0.00    +0.064 C 
BRANCH  13  16
ATOM     16  S   UNL     1      31.003  -2.857 -23.720  0.00  0.00    +0.038 S 
ATOM     17  O   UNL     1      29.792  -2.403 -24.395  0.00  0.00    -0.166 OA
ATOM     18  O   UNL     1      31.402  -2.226 -22.467  0.00  0.00    -0.166 OA
ATOM     19  C   UNL     1      32.361  -2.650 -24.853  0.00  0.00    +0.185 C 
ENDBRANCH  13  16
ENDBRANCH   7  10
BRANCH   4  20
ATOM     20  O   UNL     1      30.758 -10.744 -20.813  0.00  0.00    -0.338 OA
ATOM     21  C   UNL     1      31.195 -10.133 -19.596  0.00  0.00    +0.175 C 
ENDBRANCH   4  20
BRANCH   3  22
ATOM     22  O   UNL     1      32.576 -12.788 -21.250  0.00  0.00    -0.465 OA
BRANCH  22  25
ATOM     23  O   UNL     1      34.108 -18.285 -23.467  0.00  0.00    -0.226 OA
ATOM     24  N   UNL     1      34.364 -16.472 -22.035  0.00  0.00    -0.246 N 
ATOM     25  C   UNL     1      33.605 -13.740 -21.488  0.00  0.00    +0.171 C 
ATOM     26  C   UNL     1      33.539 -14.819 -20.407  0.00  0.00    +0.065 C 
ATOM     27  C   UNL     1      33.430 -14.356 -22.878  0.00  0.00    +0.065 C 
ATOM     28  C   UNL     1      34.536 -15.940 -20.678  0.00  0.00    +0.100 C 
ATOM     29  C   UNL     1      34.429 -15.483 -23.111  0.00  0.00    +0.100 C 
ATOM     30  C   UNL     1      34.203 -17.829 -22.328  0.00  0.00    +0.405 C 
BRANCH  30  31
ATOM     31  O   UNL     1      34.163 -18.612 -21.205  0.00  0.00    -0.438 OA
BRANCH  31  32
ATOM     32  C   UNL     1      35.226 -19.561 -21.058  0.00  0.00    +0.171 C 
ATOM     33  C   UNL     1      34.870 -20.546 -19.955  0.00  0.00    +0.047 C 
ATOM     34  C   UNL     1      36.521 -18.820 -20.761  0.00  0.00    +0.047 C 
ENDBRANCH  31  32
ENDBRANCH  30  31
ENDBRANCH  22  25
ENDBRANCH   3  22
TORSDOF 7
ENDMDL
MODEL 4
REMARK VINA RESULT:      -9.4      3.445     11.441
REMARK  Name = 11691484
REMARK  7 active torsions:
REMARK  status: ('A' for Active; 'I' for Inactive)
REMARK    1  A    between atoms: C_3  and  O_22
REMARK    2  A    between atoms: C_4  and  O_7
REMARK    3  A    between atoms: N_9  and  C_12
REMARK    4  A    between atoms: C_15  and  S_18
REMARK    5  A    between atoms: O_22  and  C_25
REMARK    6  A    between atoms: C_30  and  O_31
REMARK    7  A    between atoms: O_31  and  C_32
REMARK                            x       y       z     vdW  Elec       q    Type
REMARK                         _______ _______ _______ _____ _____    ______ ____
ROOT
ATOM      1  N   UNL     1      31.561 -10.445 -21.610  0.00  0.00    -0.212 NA
ATOM      2  N   UNL     1      32.059 -12.798 -21.462  0.00  0.00    -0.231 NA
ATOM      3  C   UNL     1      32.090 -10.449 -22.851  0.00  0.00    +0.233 C 
ATOM      4  C   UNL     1      32.616 -11.572 -23.457  0.00  0.00    +0.244 C 
ATOM      5  C   UNL     1      32.572 -12.729 -22.708  0.00  0.00    +0.139 C 
ATOM      6  C   UNL     1      31.577 -11.636 -20.982  0.00  0.00    +0.254 C 
ATOM      7  N   UNL     1      33.099 -13.914 -23.280  0.00  0.00    -0.312 N 
ATOM      8  H   UNL     1      33.024 -13.949 -24.261  0.00  0.00    +0.149 HD
ENDROOT
BRANCH   7  10
ATOM      9  N   UNL     1      34.608 -17.276 -22.985  0.00  0.00    -0.390 NA
ATOM     10  C   UNL     1      33.708 -15.047 -22.719  0.00  0.00    +0.142 C 
ATOM     11  C   UNL     1      34.020 -16.163 -23.478  0.00  0.00    +0.111 C 
ATOM     12  C   UNL     1      34.017 -15.076 -21.363  0.00  0.00    +0.004 C 
ATOM     13  C   UNL     1      34.894 -17.267 -21.663  0.00  0.00    +0.234 C 
ATOM     14  C   UNL     1      34.621 -16.204 -20.818  0.00  0.00    +0.049 C 
ATOM     15  C   UNL     1      33.711 -16.193 -24.940  0.00  0.00    +0.064 C 
BRANCH  13  16
ATOM     16  S   UNL     1      35.647 -18.735 -21.120  0.00  0.00    +0.038 S 
ATOM     17  O   UNL     1      36.141 -19.455 -22.288  0.00  0.00    -0.166 OA
ATOM     18  O   UNL     1      36.564 -18.429 -20.027  0.00  0.00    -0.166 OA
ATOM     19  C   UNL     1      34.318 -19.691 -20.420  0.00  0.00    +0.185 C 
ENDBRANCH  13  16
ENDBRANCH   7  10
BRANCH   4  20
ATOM     20  O   UNL     1      33.137 -11.527 -24.706  0.00  0.00    -0.338 OA
ATOM     21  C   UNL     1      32.566 -12.396 -25.688  0.00  0.00    +0.175 C 
ENDBRANCH   4  20
BRANCH   3  22
ATOM     22  O   UNL     1      32.088  -9.254 -23.522  0.00  0.00    -0.465 OA
BRANCH  22  25
ATOM     23  O   UNL     1      30.027  -3.574 -22.528  0.00  0.00    -0.226 OA
ATOM     24  N   UNL     1      31.641  -5.246 -22.460  0.00  0.00    -0.246 N 
ATOM     25  C   UNL     1      32.157  -8.074 -22.730  0.00  0.00    +0.171 C 
ATOM     26  C   UNL     1      33.002  -7.035 -23.466  0.00  0.00    +0.065 C 
ATOM     27  C   UNL     1      30.747  -7.539 -22.471  0.00  0.00    +0.065 C 
ATOM     28  C   UNL     1      33.011  -5.700 -22.727  0.00  0.00    +0.100 C 
ATOM     29  C   UNL     1      30.789  -6.199 -21.747  0.00  0.00    +0.100 C 
ATOM     30  C   UNL     1      31.159  -3.977 -22.794  0.00  0.00    +0.405 C 
BRANCH  30  31
ATOM     31  O   UNL     1      32.085  -3.217 -23.456  0.00  0.00    -0.438 OA
BRANCH  31  32
ATOM     32  C   UNL     1      31.920  -3.112 -24.875  0.00  0.00    +0.171 C 
ATOM     33  C   UNL     1      33.277  -3.249 -25.550  0.00  0.00    +0.047 C 
ATOM     34  C   UNL     1      31.253  -1.786 -25.206  0.00  0.00    +0.047 C 
ENDBRANCH  31  32
ENDBRANCH  30  31
ENDBRANCH  22  25
ENDBRANCH   3  22
TORSDOF 7
ENDMDL
MODEL 5
REMARK VINA RESULT:      -9.3      2.769      5.798
REMARK  Name = 11691484
REMARK  7 active torsions:
REMARK  status: ('A' for Active; 'I' for Inactive)
REMARK    1  A    between atoms: C_3  and  O_22
REMARK    2  A    between atoms: C_4  and  O_7
REMARK    3  A    between atoms: N_9  and  C_12
REMARK    4  A    between atoms: C_15  and  S_18
REMARK    5  A    between atoms: O_22  and  C_25
REMARK    6  A    between atoms: C_30  and  O_31
REMARK    7  A    between atoms: O_31  and  C_32
REMARK                            x       y       z     vdW  Elec       q    Type
REMARK                         _______ _______ _______ _____ _____    ______ ____
ROOT
ATOM      1  N   UNL     1      34.784 -16.560 -23.386  0.00  0.00    -0.212 NA
ATOM      2  N   UNL     1      33.530 -14.524 -23.679  0.00  0.00    -0.231 NA
ATOM      3  C   UNL     1      34.750 -16.345 -22.054  0.00  0.00    +0.233 C 
ATOM      4  C   UNL     1      34.135 -15.257 -21.469  0.00  0.00    +0.244 C 
ATOM      5  C   UNL     1      33.534 -14.371 -22.339  0.00  0.00    +0.139 C 
ATOM      6  C   UNL     1      34.163 -15.624 -24.128  0.00  0.00    +0.254 C 
ATOM      7  N   UNL     1      32.887 -13.235 -21.792  0.00  0.00    -0.312 N 
ATOM      8  H   UNL     1      32.515 -13.384 -20.893  0.00  0.00    +0.149 HD
ENDROOT
BRANCH   7  10
ATOM      9  N   UNL     1      31.590  -9.786 -22.087  0.00  0.00    -0.390 NA
ATOM     10  C   UNL     1      32.673 -11.939 -22.286  0.00  0.00    +0.142 C 
ATOM     11  C   UNL     1      31.826 -11.044 -21.652  0.00  0.00    +0.111 C 
ATOM     12  C   UNL     1      33.320 -11.514 -23.442  0.00  0.00    +0.004 C 
ATOM     13  C   UNL     1      32.237  -9.409 -23.213  0.00  0.00    +0.234 C 
ATOM     14  C   UNL     1      33.103 -10.227 -23.921  0.00  0.00    +0.049 C 
ATOM     15  C   UNL     1      31.101 -11.441 -20.407  0.00  0.00    +0.064 C 
BRANCH  13  16
ATOM     16  S   UNL     1      31.874  -7.780 -23.693  0.00  0.00    +0.038 S 
ATOM     17  O   UNL     1      33.132  -7.092 -23.965  0.00  0.00    -0.166 OA
ATOM     18  O   UNL     1      30.834  -7.800 -24.716  0.00  0.00    -0.166 OA
ATOM     19  C   UNL     1      31.154  -7.033 -22.245  0.00  0.00    +0.185 C 
ENDBRANCH  13  16
ENDBRANCH   7  10
BRANCH   4  20
ATOM     20  O   UNL     1      34.128 -15.083 -20.125  0.00  0.00    -0.338 OA
ATOM     21  C   UNL     1      32.864 -14.838 -19.502  0.00  0.00    +0.175 C 
ENDBRANCH   4  20
BRANCH   3  22
ATOM     22  O   UNL     1      35.370 -17.279 -21.266  0.00  0.00    -0.465 OA
BRANCH  22  25
ATOM     23  O   UNL     1      32.159 -21.623 -18.382  0.00  0.00    -0.226 OA
ATOM     24  N   UNL     1      33.786 -20.873 -19.865  0.00  0.00    -0.246 N 
ATOM     25  C   UNL     1      34.839 -18.598 -21.298  0.00  0.00    +0.171 C 
ATOM     26  C   UNL     1      35.747 -19.516 -20.480  0.00  0.00    +0.065 C 
ATOM     27  C   UNL     1      33.417 -18.598 -20.731  0.00  0.00    +0.065 C 
ATOM     28  C   UNL     1      35.163 -20.921 -20.369  0.00  0.00    +0.100 C 
ATOM     29  C   UNL     1      32.869 -20.016 -20.618  0.00  0.00    +0.100 C 
ATOM     30  C   UNL     1      33.324 -21.622 -18.778  0.00  0.00    +0.405 C 
BRANCH  30  31
ATOM     31  O   UNL     1      34.313 -22.366 -18.191  0.00  0.00    -0.438 OA
BRANCH  31  32
ATOM     32  C   UNL     1      34.717 -21.956 -16.879  0.00  0.00    +0.171 C 
ATOM     33  C   UNL     1      36.218 -21.707 -16.872  0.00  0.00    +0.047 C 
ATOM     34  C   UNL     1      34.316 -23.024 -15.874  0.00  0.00    +0.047 C 
ENDBRANCH  31  32
ENDBRANCH  30  31
ENDBRANCH  22  25
ENDBRANCH   3  22
TORSDOF 7
ENDMDL
MODEL 6
REMARK VINA RESULT:      -9.2      5.767     13.455
REMARK  Name = 11691484
REMARK  7 active torsions:
REMARK  status: ('A' for Active; 'I' for Inactive)
REMARK    1  A    between atoms: C_3  and  O_22
REMARK    2  A    between atoms: C_4  and  O_7
REMARK    3  A    between atoms: N_9  and  C_12
REMARK    4  A    between atoms: C_15  and  S_18
REMARK    5  A    between atoms: O_22  and  C_25
REMARK    6  A    between atoms: C_30  and  O_31
REMARK    7  A    between atoms: O_31  and  C_32
REMARK                            x       y       z     vdW  Elec       q    Type
REMARK                         _______ _______ _______ _____ _____    ______ ____
ROOT
ATOM      1  N   UNL     1      33.302 -18.725 -21.898  0.00  0.00    -0.212 NA
ATOM      2  N   UNL     1      33.735 -20.428 -20.249  0.00  0.00    -0.231 NA
ATOM      3  C   UNL     1      34.546 -18.248 -21.679  0.00  0.00    +0.233 C 
ATOM      4  C   UNL     1      35.429 -18.800 -20.773  0.00  0.00    +0.244 C 
ATOM      5  C   UNL     1      34.965 -19.899 -20.081  0.00  0.00    +0.139 C 
ATOM      6  C   UNL     1      32.968 -19.800 -21.161  0.00  0.00    +0.254 C 
ATOM      7  N   UNL     1      35.830 -20.507 -19.137  0.00  0.00    -0.312 N 
ATOM      8  H   UNL     1      36.785 -20.422 -19.361  0.00  0.00    +0.149 HD
ENDROOT
BRANCH   7  10
ATOM      9  N   UNL     1      36.171 -21.660 -15.641  0.00  0.00    -0.390 NA
ATOM     10  C   UNL     1      35.589 -21.206 -17.944  0.00  0.00    +0.142 C 
ATOM     11  C   UNL     1      36.365 -21.013 -16.812  0.00  0.00    +0.111 C 
ATOM     12  C   UNL     1      34.546 -22.123 -17.868  0.00  0.00    +0.004 C 
ATOM     13  C   UNL     1      35.148 -22.543 -15.606  0.00  0.00    +0.234 C 
ATOM     14  C   UNL     1      34.315 -22.808 -16.681  0.00  0.00    +0.049 C 
ATOM     15  C   UNL     1      37.501 -20.042 -16.831  0.00  0.00    +0.064 C 
BRANCH  13  16
ATOM     16  S   UNL     1      34.975 -23.322 -14.064  0.00  0.00    +0.038 S 
ATOM     17  O   UNL     1      35.831 -22.634 -13.104  0.00  0.00    -0.166 OA
ATOM     18  O   UNL     1      33.556 -23.488 -13.765  0.00  0.00    -0.166 OA
ATOM     19  C   UNL     1      35.641 -24.956 -14.306  0.00  0.00    +0.185 C 
ENDBRANCH  13  16
ENDBRANCH   7  10
BRANCH   4  20
ATOM     20  O   UNL     1      36.668 -18.286 -20.586  0.00  0.00    -0.338 OA
ATOM     21  C   UNL     1      37.530 -18.221 -21.725  0.00  0.00    +0.175 C 
ENDBRANCH   4  20
BRANCH   3  22
ATOM     22  O   UNL     1      34.922 -17.155 -22.414  0.00  0.00    -0.465 OA
BRANCH  22  25
ATOM     23  O   UNL     1      33.393 -11.994 -25.333  0.00  0.00    -0.226 OA
ATOM     24  N   UNL     1      33.142 -13.599 -23.670  0.00  0.00    -0.246 N 
ATOM     25  C   UNL     1      33.894 -16.237 -22.769  0.00  0.00    +0.171 C 
ATOM     26  C   UNL     1      33.975 -15.025 -21.842  0.00  0.00    +0.065 C 
ATOM     27  C   UNL     1      34.060 -15.813 -24.230  0.00  0.00    +0.065 C 
ATOM     28  C   UNL     1      32.979 -13.944 -22.253  0.00  0.00    +0.100 C 
ATOM     29  C   UNL     1      33.063 -14.722 -24.604  0.00  0.00    +0.100 C 
ATOM     30  C   UNL     1      33.306 -12.294 -24.143  0.00  0.00    +0.405 C 
BRANCH  30  31
ATOM     31  O   UNL     1      33.359 -11.368 -23.134  0.00  0.00    -0.438 OA
BRANCH  31  32
ATOM     32  C   UNL     1      32.262 -10.450 -23.061  0.00  0.00    +0.171 C 
ATOM     33  C   UNL     1      32.793  -9.027 -23.149  0.00  0.00    +0.047 C 
ATOM     34  C   UNL     1      31.493 -10.689 -21.771  0.00  0.00    +0.047 C 
ENDBRANCH  31  32
ENDBRANCH  30  31
ENDBRANCH  22  25
ENDBRANCH   3  22
TORSDOF 7
ENDMDL
MODEL 7
REMARK VINA RESULT:      -9.2      2.735      5.214
REMARK  Name = 11691484
REMARK  7 active torsions:
REMARK  status: ('A' for Active; 'I' for Inactive)
REMARK    1  A    between atoms: C_3  and  O_22
REMARK    2  A    between atoms: C_4  and  O_7
REMARK    3  A    between atoms: N_9  and  C_12
REMARK    4  A    between atoms: C_15  and  S_18
REMARK    5  A    between atoms: O_22  and  C_25
REMARK    6  A    between atoms: C_30  and  O_31
REMARK    7  A    between atoms: O_31  and  C_32
REMARK                            x       y       z     vdW  Elec       q    Type
REMARK                         _______ _______ _______ _____ _____    ______ ____
ROOT
ATOM      1  N   UNL     1      33.770 -15.965 -25.102  0.00  0.00    -0.212 NA
ATOM      2  N   UNL     1      32.763 -13.833 -24.606  0.00  0.00    -0.231 NA
ATOM      3  C   UNL     1      34.232 -16.000 -23.835  0.00  0.00    +0.233 C 
ATOM      4  C   UNL     1      34.004 -15.003 -22.908  0.00  0.00    +0.244 C 
ATOM      5  C   UNL     1      33.256 -13.934 -23.354  0.00  0.00    +0.139 C 
ATOM      6  C   UNL     1      33.054 -14.869 -25.415  0.00  0.00    +0.254 C 
ATOM      7  N   UNL     1      32.991 -12.880 -22.444  0.00  0.00    -0.312 N 
ATOM      8  H   UNL     1      32.941 -13.169 -21.505  0.00  0.00    +0.149 HD
ENDROOT
BRANCH   7  10
ATOM      9  N   UNL     1      31.541  -9.496 -22.103  0.00  0.00    -0.390 NA
ATOM     10  C   UNL     1      32.786 -11.503 -22.624  0.00  0.00    +0.142 C 
ATOM     11  C   UNL     1      31.776 -10.820 -21.964  0.00  0.00    +0.111 C 
ATOM     12  C   UNL     1      33.607 -10.779 -23.482  0.00  0.00    +0.004 C 
ATOM     13  C   UNL     1      32.360  -8.826 -22.945  0.00  0.00    +0.234 C 
ATOM     14  C   UNL     1      33.397  -9.415 -23.651  0.00  0.00    +0.049 C 
ATOM     15  C   UNL     1      30.860 -11.542 -21.030  0.00  0.00    +0.064 C 
BRANCH  13  16
ATOM     16  S   UNL     1      31.984  -7.135 -23.057  0.00  0.00    +0.038 S 
ATOM     17  O   UNL     1      32.050  -6.743 -24.461  0.00  0.00    -0.166 OA
ATOM     18  O   UNL     1      30.771  -6.860 -22.295  0.00  0.00    -0.166 OA
ATOM     19  C   UNL     1      33.319  -6.319 -22.206  0.00  0.00    +0.185 C 
ENDBRANCH  13  16
ENDBRANCH   7  10
BRANCH   4  20
ATOM     20  O   UNL     1      34.489 -15.083 -21.646  0.00  0.00    -0.338 OA
ATOM     21  C   UNL     1      33.599 -14.746 -20.578  0.00  0.00    +0.175 C 
ENDBRANCH   4  20
BRANCH   3  22
ATOM     22  O   UNL     1      34.963 -17.103 -23.480  0.00  0.00    -0.465 OA
BRANCH  22  25
ATOM     23  O   UNL     1      36.346 -21.381 -19.322  0.00  0.00    -0.226 OA
ATOM     24  N   UNL     1      34.963 -19.776 -20.279  0.00  0.00    -0.246 N 
ATOM     25  C   UNL     1      34.792 -17.586 -22.152  0.00  0.00    +0.171 C 
ATOM     26  C   UNL     1      33.781 -18.732 -22.171  0.00  0.00    +0.065 C 
ATOM     27  C   UNL     1      36.136 -18.058 -21.595  0.00  0.00    +0.065 C 
ATOM     28  C   UNL     1      33.648 -19.378 -20.795  0.00  0.00    +0.100 C 
ATOM     29  C   UNL     1      35.967 -18.713 -20.229  0.00  0.00    +0.100 C 
ATOM     30  C   UNL     1      35.261 -21.056 -19.802  0.00  0.00    +0.405 C 
BRANCH  30  31
ATOM     31  O   UNL     1      34.209 -21.924 -19.924  0.00  0.00    -0.438 OA
BRANCH  31  32
ATOM     32  C   UNL     1      33.540 -22.281 -18.709  0.00  0.00    +0.171 C 
ATOM     33  C   UNL     1      32.292 -21.425 -18.553  0.00  0.00    +0.047 C 
ATOM     34  C   UNL     1      34.497 -22.105 -17.540  0.00  0.00    +0.047 C 
ENDBRANCH  31  32
ENDBRANCH  30  31
ENDBRANCH  22  25
ENDBRANCH   3  22
TORSDOF 7
ENDMDL
MODEL 8
REMARK VINA RESULT:      -9.1      6.425     13.771
REMARK  Name = 11691484
REMARK  7 active torsions:
REMARK  status: ('A' for Active; 'I' for Inactive)
REMARK    1  A    between atoms: C_3  and  O_22
REMARK    2  A    between atoms: C_4  and  O_7
REMARK    3  A    between atoms: N_9  and  C_12
REMARK    4  A    between atoms: C_15  and  S_18
REMARK    5  A    between atoms: O_22  and  C_25
REMARK    6  A    between atoms: C_30  and  O_31
REMARK    7  A    between atoms: O_31  and  C_32
REMARK                            x       y       z     vdW  Elec       q    Type
REMARK                         _______ _______ _______ _____ _____    ______ ____
ROOT
ATOM      1  N   UNL     1      32.874 -19.235 -21.459  0.00  0.00    -0.212 NA
ATOM      2  N   UNL     1      32.435 -20.799 -19.679  0.00  0.00    -0.231 NA
ATOM      3  C   UNL     1      34.193 -19.452 -21.274  0.00  0.00    +0.233 C 
ATOM      4  C   UNL     1      34.702 -20.315 -20.325  0.00  0.00    +0.244 C 
ATOM      5  C   UNL     1      33.767 -20.968 -19.549  0.00  0.00    +0.139 C 
ATOM      6  C   UNL     1      32.064 -19.931 -20.639  0.00  0.00    +0.254 C 
ATOM      7  N   UNL     1      34.234 -21.867 -18.558  0.00  0.00    -0.312 N 
ATOM      8  H   UNL     1      35.088 -22.300 -18.785  0.00  0.00    +0.149 HD
ENDROOT
BRANCH   7  10
ATOM      9  N   UNL     1      34.055 -22.706 -14.962  0.00  0.00    -0.390 NA
ATOM     10  C   UNL     1      33.715 -22.257 -17.313  0.00  0.00    +0.142 C 
ATOM     11  C   UNL     1      34.509 -22.338 -16.181  0.00  0.00    +0.111 C 
ATOM     12  C   UNL     1      32.367 -22.576 -17.186  0.00  0.00    +0.004 C 
ATOM     13  C   UNL     1      32.740 -23.009 -14.877  0.00  0.00    +0.234 C 
ATOM     14  C   UNL     1      31.863 -22.960 -15.949  0.00  0.00    +0.049 C 
ATOM     15  C   UNL     1      35.965 -22.009 -16.253  0.00  0.00    +0.064 C 
BRANCH  13  16
ATOM     16  S   UNL     1      32.249 -23.468 -13.276  0.00  0.00    +0.038 S 
ATOM     17  O   UNL     1      33.411 -24.005 -12.577  0.00  0.00    -0.166 OA
ATOM     18  O   UNL     1      31.494 -22.374 -12.673  0.00  0.00    -0.166 OA
ATOM     19  C   UNL     1      31.101 -24.807 -13.523  0.00  0.00    +0.185 C 
ENDBRANCH  13  16
ENDBRANCH   7  10
BRANCH   4  20
ATOM     20  O   UNL     1      36.036 -20.499 -20.176  0.00  0.00    -0.338 OA
ATOM     21  C   UNL     1      36.690 -19.755 -19.145  0.00  0.00    +0.175 C 
ENDBRANCH   4  20
BRANCH   3  22
ATOM     22  O   UNL     1      35.048 -18.762 -22.093  0.00  0.00    -0.465 OA
BRANCH  22  25
ATOM     23  O   UNL     1      32.143 -13.599 -20.544  0.00  0.00    -0.226 OA
ATOM     24  N   UNL     1      33.769 -14.815 -21.677  0.00  0.00    -0.246 N 
ATOM     25  C   UNL     1      35.124 -17.354 -21.900  0.00  0.00    +0.171 C 
ATOM     26  C   UNL     1      34.533 -16.656 -23.124  0.00  0.00    +0.065 C 
ATOM     27  C   UNL     1      34.361 -16.963 -20.632  0.00  0.00    +0.065 C 
ATOM     28  C   UNL     1      34.468 -15.145 -22.924  0.00  0.00    +0.100 C 
ATOM     29  C   UNL     1      34.301 -15.449 -20.470  0.00  0.00    +0.100 C 
ATOM     30  C   UNL     1      32.700 -13.917 -21.594  0.00  0.00    +0.405 C 
BRANCH  30  31
ATOM     31  O   UNL     1      32.332 -13.419 -22.815  0.00  0.00    -0.438 OA
BRANCH  31  32
ATOM     32  C   UNL     1      32.964 -12.198 -23.216  0.00  0.00    +0.171 C 
ATOM     33  C   UNL     1      32.164 -11.019 -22.683  0.00  0.00    +0.047 C 
ATOM     34  C   UNL     1      33.077 -12.167 -24.733  0.00  0.00    +0.047 C 
ENDBRANCH  31  32
ENDBRANCH  30  31
ENDBRANCH  22  25
ENDBRANCH   3  22
TORSDOF 7
ENDMDL
MODEL 9
REMARK VINA RESULT:      -8.9      7.514     14.945
REMARK  Name = 11691484
REMARK  7 active torsions:
REMARK  status: ('A' for Active; 'I' for Inactive)
REMARK    1  A    between atoms: C_3  and  O_22
REMARK    2  A    between atoms: C_4  and  O_7
REMARK    3  A    between atoms: N_9  and  C_12
REMARK    4  A    between atoms: C_15  and  S_18
REMARK    5  A    between atoms: O_22  and  C_25
REMARK    6  A    between atoms: C_30  and  O_31
REMARK    7  A    between atoms: O_31  and  C_32
REMARK                            x       y       z     vdW  Elec       q    Type
REMARK                         _______ _______ _______ _____ _____    ______ ____
ROOT
ATOM      1  N   UNL     1      34.221 -20.768 -19.896  0.00  0.00    -0.212 NA
ATOM      2  N   UNL     1      34.587 -22.218 -18.007  0.00  0.00    -0.231 NA
ATOM      3  C   UNL     1      35.391 -20.160 -19.609  0.00  0.00    +0.233 C 
ATOM      4  C   UNL     1      36.203 -20.520 -18.552  0.00  0.00    +0.244 C 
ATOM      5  C   UNL     1      35.746 -21.566 -17.778  0.00  0.00    +0.139 C 
ATOM      6  C   UNL     1      33.886 -21.774 -19.067  0.00  0.00    +0.254 C 
ATOM      7  N   UNL     1      36.540 -21.978 -16.679  0.00  0.00    -0.312 N 
ATOM      8  H   UNL     1      37.504 -21.836 -16.810  0.00  0.00    +0.149 HD
ENDROOT
BRANCH   7  10
ATOM      9  N   UNL     1      36.873 -23.843 -13.504  0.00  0.00    -0.390 NA
ATOM     10  C   UNL     1      36.215 -22.549 -15.438  0.00  0.00    +0.142 C 
ATOM     11  C   UNL     1      37.137 -23.276 -14.703  0.00  0.00    +0.111 C 
ATOM     12  C   UNL     1      34.938 -22.395 -14.909  0.00  0.00    +0.004 C 
ATOM     13  C   UNL     1      35.621 -23.671 -13.022  0.00  0.00    +0.234 C 
ATOM     14  C   UNL     1      34.628 -22.964 -13.679  0.00  0.00    +0.049 C 
ATOM     15  C   UNL     1      38.525 -23.478 -15.218  0.00  0.00    +0.064 C 
BRANCH  13  16
ATOM     16  S   UNL     1      35.376 -24.431 -11.480  0.00  0.00    +0.038 S 
ATOM     17  O   UNL     1      33.942 -24.595 -11.273  0.00  0.00    -0.166 OA
ATOM     18  O   UNL     1      36.252 -25.593 -11.372  0.00  0.00    -0.166 OA
ATOM     19  C   UNL     1      35.959 -23.238 -10.292  0.00  0.00    +0.185 C 
ENDBRANCH  13  16
ENDBRANCH   7  10
BRANCH   4  20
ATOM     20  O   UNL     1      37.370 -19.879 -18.303  0.00  0.00    -0.338 OA
ATOM     21  C   UNL     1      37.561 -19.352 -16.987  0.00  0.00    +0.175 C 
ENDBRANCH   4  20
BRANCH   3  22
ATOM     22  O   UNL     1      35.767 -19.132 -20.434  0.00  0.00    -0.465 OA
BRANCH  22  25
ATOM     23  O   UNL     1      34.093 -15.954 -25.393  0.00  0.00    -0.226 OA
ATOM     24  N   UNL     1      33.939 -16.550 -23.151  0.00  0.00    -0.246 N 
ATOM     25  C   UNL     1      34.726 -18.458 -21.132  0.00  0.00    +0.171 C 
ATOM     26  C   UNL     1      34.879 -16.953 -20.911  0.00  0.00    +0.065 C 
ATOM     27  C   UNL     1      34.798 -18.796 -22.623  0.00  0.00    +0.065 C 
ATOM     28  C   UNL     1      33.868 -16.164 -21.737  0.00  0.00    +0.100 C 
ATOM     29  C   UNL     1      33.789 -17.980 -23.422  0.00  0.00    +0.100 C 
ATOM     30  C   UNL     1      34.083 -15.641 -24.204  0.00  0.00    +0.405 C 
BRANCH  30  31
ATOM     31  O   UNL     1      34.211 -14.348 -23.771  0.00  0.00    -0.438 OA
BRANCH  31  32
ATOM     32  C   UNL     1      33.006 -13.575 -23.724  0.00  0.00    +0.171 C 
ATOM     33  C   UNL     1      32.774 -12.925 -25.080  0.00  0.00    +0.047 C 
ATOM     34  C   UNL     1      33.116 -12.543 -22.612  0.00  0.00    +0.047 C 
ENDBRANCH  31  32
ENDBRANCH  30  31
ENDBRANCH  22  25
ENDBRANCH   3  22
TORSDOF 7
ENDMDL
