MODEL 1
REMARK VINA RESULT:     -10.8      0.000      0.000
REMARK  Name = 10247560
REMARK  5 active torsions:
REMARK  status: ('A' for Active; 'I' for Inactive)
REMARK    1  A    between atoms: C_2  and  C_11
REMARK    2  A    between atoms: C_7  and  C_18
REMARK    3  A    between atoms: C_8  and  O_14
REMARK    4  A    between atoms: C_10  and  O_16
REMARK    5  A    between atoms: C_18  and  C_23
REMARK                            x       y       z     vdW  Elec       q    Type
REMARK                         _______ _______ _______ _____ _____    ______ ____
ROOT
ATOM      1  O   UNL     1      31.814 -22.792 -13.762  0.00  0.00    -0.471 OA
ATOM      2  C   UNL     1      30.431 -22.967 -14.137  0.00  0.00    +0.117 C 
ATOM      3  C   UNL     1      30.108 -22.715 -15.587  0.00  0.00    +0.032 C 
ATOM      4  C   UNL     1      32.755 -22.740 -14.752  0.00  0.00    +0.246 C 
ATOM      5  C   UNL     1      31.048 -22.552 -16.520  0.00  0.00    +0.002 C 
ATOM      6  C   UNL     1      32.440 -22.623 -16.108  0.00  0.00    +0.021 C 
ATOM      7  C   UNL     1      33.472 -22.556 -17.053  0.00  0.00    -0.015 C 
ATOM      8  C   UNL     1      34.091 -22.782 -14.341  0.00  0.00    +0.194 C 
ATOM      9  C   UNL     1      34.805 -22.607 -16.641  0.00  0.00    +0.036 C 
ATOM     10  C   UNL     1      35.113 -22.719 -15.287  0.00  0.00    +0.172 C 
ENDROOT
BRANCH   2  11
ATOM     11  C   UNL     1      29.987 -24.321 -13.650  0.00  0.00    +0.057 C 
ATOM     12  C   UNL     1      28.582 -24.745 -13.914  0.00  0.00    +0.008 C 
ATOM     13  C   UNL     1      29.718 -25.385 -14.659  0.00  0.00    +0.008 C 
ENDBRANCH   2  11
BRANCH   8  14
ATOM     14  O   UNL     1      34.399 -22.888 -13.017  0.00  0.00    -0.469 OA
ATOM     15  C   UNL     1      34.684 -24.194 -12.522  0.00  0.00    +0.252 C 
ENDBRANCH   8  14
BRANCH  10  16
ATOM     16  O   UNL     1      36.418 -22.764 -14.900  0.00  0.00    -0.469 OA
ATOM     17  C   UNL     1      37.387 -22.281 -15.830  0.00  0.00    +0.253 C 
ENDBRANCH  10  16
BRANCH   7  18
ATOM     18  C   UNL     1      33.203 -22.431 -18.519  0.00  0.00    +0.058 C 
BRANCH  18  23
ATOM     19  N   UNL     1      34.009 -19.319 -20.507  0.00  0.00    -0.323 NA
ATOM     20  N   UNL     1      36.052 -20.250 -19.632  0.00  0.00    -0.170 NA
ATOM     21  N   UNL     1      31.929 -20.368 -20.059  0.00  0.00    -0.332 N 
ATOM     22  N   UNL     1      36.078 -18.300 -20.936  0.00  0.00    -0.293 N 
ATOM     23  C   UNL     1      33.959 -21.301 -19.184  0.00  0.00    +0.047 C 
ATOM     24  C   UNL     1      33.338 -20.328 -19.912  0.00  0.00    +0.188 C 
ATOM     25  C   UNL     1      35.318 -21.230 -19.064  0.00  0.00    +0.112 C 
ATOM     26  C   UNL     1      35.344 -19.341 -20.329  0.00  0.00    +0.143 C 
ATOM     27  H   UNL     1      31.468 -19.673 -20.582  0.00  0.00    +0.145 HD
ATOM     28  H   UNL     1      31.412 -21.092 -19.637  0.00  0.00    +0.145 HD
ATOM     29  H   UNL     1      35.611 -17.607 -21.457  0.00  0.00    +0.155 HD
ATOM     30  H   UNL     1      37.057 -18.266 -20.839  0.00  0.00    +0.155 HD
ENDBRANCH  18  23
ENDBRANCH   7  18
TORSDOF 5
ENDMDL
MODEL 2
REMARK VINA RESULT:     -10.7      4.056      5.741
REMARK  Name = 10247560
REMARK  5 active torsions:
REMARK  status: ('A' for Active; 'I' for Inactive)
REMARK    1  A    between atoms: C_2  and  C_11
REMARK    2  A    between atoms: C_7  and  C_18
REMARK    3  A    between atoms: C_8  and  O_14
REMARK    4  A    between atoms: C_10  and  O_16
REMARK    5  A    between atoms: C_18  and  C_23
REMARK                            x       y       z     vdW  Elec       q    Type
REMARK                         _______ _______ _______ _____ _____    ______ ____
ROOT
ATOM      1  O   UNL     1      31.437 -23.214 -16.344  0.00  0.00    -0.471 OA
ATOM      2  C   UNL     1      30.486 -23.720 -15.383  0.00  0.00    +0.117 C 
ATOM      3  C   UNL     1      31.075 -24.392 -14.170  0.00  0.00    +0.032 C 
ATOM      4  C   UNL     1      32.742 -23.081 -15.961  0.00  0.00    +0.246 C 
ATOM      5  C   UNL     1      32.376 -24.345 -13.877  0.00  0.00    +0.002 C 
ATOM      6  C   UNL     1      33.253 -23.610 -14.773  0.00  0.00    +0.021 C 
ATOM      7  C   UNL     1      34.610 -23.443 -14.470  0.00  0.00    -0.015 C 
ATOM      8  C   UNL     1      33.582 -22.395 -16.843  0.00  0.00    +0.194 C 
ATOM      9  C   UNL     1      35.445 -22.751 -15.349  0.00  0.00    +0.036 C 
ATOM     10  C   UNL     1      34.931 -22.228 -16.534  0.00  0.00    +0.172 C 
ENDROOT
BRANCH   2  11
ATOM     11  C   UNL     1      29.530 -22.607 -15.046  0.00  0.00    +0.057 C 
ATOM     12  C   UNL     1      28.657 -22.068 -16.127  0.00  0.00    +0.008 C 
ATOM     13  C   UNL     1      28.070 -22.906 -15.028  0.00  0.00    +0.008 C 
ENDBRANCH   2  11
BRANCH   8  14
ATOM     14  O   UNL     1      33.086 -21.885 -18.006  0.00  0.00    -0.469 OA
ATOM     15  C   UNL     1      33.462 -22.544 -19.213  0.00  0.00    +0.252 C 
ENDBRANCH   8  14
BRANCH  10  16
ATOM     16  O   UNL     1      35.758 -21.557 -17.384  0.00  0.00    -0.469 OA
ATOM     17  C   UNL     1      36.802 -20.784 -16.795  0.00  0.00    +0.253 C 
ENDBRANCH  10  16
BRANCH   7  18
ATOM     18  C   UNL     1      35.220 -23.984 -13.216  0.00  0.00    +0.058 C 
BRANCH  18  23
ATOM     19  N   UNL     1      38.015 -26.317 -14.234  0.00  0.00    -0.323 NA
ATOM     20  N   UNL     1      38.950 -24.411 -13.093  0.00  0.00    -0.170 NA
ATOM     21  N   UNL     1      35.671 -26.486 -14.553  0.00  0.00    -0.332 N 
ATOM     22  N   UNL     1      40.330 -26.125 -13.906  0.00  0.00    -0.293 N 
ATOM     23  C   UNL     1      36.594 -24.586 -13.416  0.00  0.00    +0.047 C 
ATOM     24  C   UNL     1      36.791 -25.776 -14.054  0.00  0.00    +0.188 C 
ATOM     25  C   UNL     1      37.698 -23.930 -12.948  0.00  0.00    +0.112 C 
ATOM     26  C   UNL     1      39.034 -25.591 -13.735  0.00  0.00    +0.143 C 
ATOM     27  H   UNL     1      35.798 -27.346 -15.015  0.00  0.00    +0.145 HD
ATOM     28  H   UNL     1      34.765 -26.118 -14.438  0.00  0.00    +0.145 HD
ATOM     29  H   UNL     1      40.451 -26.986 -14.370  0.00  0.00    +0.155 HD
ATOM     30  H   UNL     1      41.113 -25.638 -13.561  0.00  0.00    +0.155 HD
ENDBRANCH  18  23
ENDBRANCH   7  18
TORSDOF 5
ENDMDL
MODEL 3
REMARK VINA RESULT:     -10.3      3.227      6.213
REMARK  Name = 10247560
REMARK  5 active torsions:
REMARK  status: ('A' for Active; 'I' for Inactive)
REMARK    1  A    between atoms: C_2  and  C_11
REMARK    2  A    between atoms: C_7  and  C_18
REMARK    3  A    between atoms: C_8  and  O_14
REMARK    4  A    between atoms: C_10  and  O_16
REMARK    5  A    between atoms: C_18  and  C_23
REMARK                            x       y       z     vdW  Elec       q    Type
REMARK                         _______ _______ _______ _____ _____    ______ ____
ROOT
ATOM      1  O   UNL     1      36.575 -22.804 -13.662  0.00  0.00    -0.471 OA
ATOM      2  C   UNL     1      36.650 -23.308 -12.312  0.00  0.00    +0.117 C 
ATOM      3  C   UNL     1      35.329 -23.579 -11.639  0.00  0.00    +0.032 C 
ATOM      4  C   UNL     1      35.388 -22.913 -14.333  0.00  0.00    +0.246 C 
ATOM      5  C   UNL     1      34.167 -23.567 -12.294  0.00  0.00    +0.002 C 
ATOM      6  C   UNL     1      34.188 -23.279 -13.719  0.00  0.00    +0.021 C 
ATOM      7  C   UNL     1      33.015 -23.345 -14.481  0.00  0.00    -0.015 C 
ATOM      8  C   UNL     1      35.416 -22.609 -15.697  0.00  0.00    +0.194 C 
ATOM      9  C   UNL     1      33.047 -23.049 -15.845  0.00  0.00    +0.036 C 
ATOM     10  C   UNL     1      34.246 -22.680 -16.451  0.00  0.00    +0.172 C 
ENDROOT
BRANCH   2  11
ATOM     11  C   UNL     1      37.577 -24.495 -12.311  0.00  0.00    +0.057 C 
ATOM     12  C   UNL     1      37.107 -25.764 -12.935  0.00  0.00    +0.008 C 
ATOM     13  C   UNL     1      38.165 -24.938 -13.607  0.00  0.00    +0.008 C 
ENDBRANCH   2  11
BRANCH   8  14
ATOM     14  O   UNL     1      36.586 -22.243 -16.295  0.00  0.00    -0.469 OA
ATOM     15  C   UNL     1      36.827 -20.846 -16.444  0.00  0.00    +0.252 C 
ENDBRANCH   8  14
BRANCH  10  16
ATOM     16  O   UNL     1      34.261 -22.390 -17.782  0.00  0.00    -0.469 OA
ATOM     17  C   UNL     1      33.037 -21.942 -18.361  0.00  0.00    +0.253 C 
ENDBRANCH  10  16
BRANCH   7  18
ATOM     18  C   UNL     1      31.698 -23.731 -13.886  0.00  0.00    +0.058 C 
BRANCH  18  23
ATOM     19  N   UNL     1      28.339 -23.996 -15.599  0.00  0.00    -0.323 NA
ATOM     20  N   UNL     1      29.529 -22.095 -16.480  0.00  0.00    -0.170 NA
ATOM     21  N   UNL     1      29.326 -25.349 -13.919  0.00  0.00    -0.332 N 
ATOM     22  N   UNL     1      27.386 -22.642 -17.261  0.00  0.00    -0.293 N 
ATOM     23  C   UNL     1      30.516 -23.457 -14.791  0.00  0.00    +0.047 C 
ATOM     24  C   UNL     1      29.396 -24.237 -14.794  0.00  0.00    +0.188 C 
ATOM     25  C   UNL     1      30.548 -22.394 -15.648  0.00  0.00    +0.112 C 
ATOM     26  C   UNL     1      28.472 -22.925 -16.405  0.00  0.00    +0.143 C 
ATOM     27  H   UNL     1      28.524 -25.920 -13.911  0.00  0.00    +0.145 HD
ATOM     28  H   UNL     1      30.079 -25.551 -13.319  0.00  0.00    +0.145 HD
ATOM     29  H   UNL     1      26.586 -23.217 -17.248  0.00  0.00    +0.155 HD
ATOM     30  H   UNL     1      27.428 -21.871 -17.872  0.00  0.00    +0.155 HD
ENDBRANCH  18  23
ENDBRANCH   7  18
TORSDOF 5
ENDMDL
MODEL 4
REMARK VINA RESULT:      -9.7      4.016      5.908
REMARK  Name = 10247560
REMARK  5 active torsions:
REMARK  status: ('A' for Active; 'I' for Inactive)
REMARK    1  A    between atoms: C_2  and  C_11
REMARK    2  A    between atoms: C_7  and  C_18
REMARK    3  A    between atoms: C_8  and  O_14
REMARK    4  A    between atoms: C_10  and  O_16
REMARK    5  A    between atoms: C_18  and  C_23
REMARK                            x       y       z     vdW  Elec       q    Type
REMARK                         _______ _______ _______ _____ _____    ______ ____
ROOT
ATOM      1  O   UNL     1      31.964 -22.880 -17.331  0.00  0.00    -0.471 OA
ATOM      2  C   UNL     1      31.279 -23.141 -16.088  0.00  0.00    +0.117 C 
ATOM      3  C   UNL     1      32.156 -23.266 -14.869  0.00  0.00    +0.032 C 
ATOM      4  C   UNL     1      33.261 -22.451 -17.281  0.00  0.00    +0.246 C 
ATOM      5  C   UNL     1      33.452 -22.949 -14.874  0.00  0.00    +0.002 C 
ATOM      6  C   UNL     1      34.032 -22.462 -16.115  0.00  0.00    +0.021 C 
ATOM      7  C   UNL     1      35.360 -22.022 -16.162  0.00  0.00    -0.015 C 
ATOM      8  C   UNL     1      33.816 -22.009 -18.486  0.00  0.00    +0.194 C 
ATOM      9  C   UNL     1      35.910 -21.575 -17.364  0.00  0.00    +0.036 C 
ATOM     10  C   UNL     1      35.138 -21.569 -18.524  0.00  0.00    +0.172 C 
ENDROOT
BRANCH   2  11
ATOM     11  C   UNL     1      30.186 -22.117 -15.937  0.00  0.00    +0.057 C 
ATOM     12  C   UNL     1      28.777 -22.540 -16.176  0.00  0.00    +0.008 C 
ATOM     13  C   UNL     1      29.250 -22.242 -14.783  0.00  0.00    +0.008 C 
ENDBRANCH   2  11
BRANCH   8  14
ATOM     14  O   UNL     1      33.068 -22.005 -19.625  0.00  0.00    -0.469 OA
ATOM     15  C   UNL     1      32.359 -20.807 -19.929  0.00  0.00    +0.252 C 
ENDBRANCH   8  14
BRANCH  10  16
ATOM     16  O   UNL     1      35.689 -21.133 -19.692  0.00  0.00    -0.469 OA
ATOM     17  C   UNL     1      35.820 -19.722 -19.858  0.00  0.00    +0.253 C 
ENDBRANCH  10  16
BRANCH   7  18
ATOM     18  C   UNL     1      36.238 -22.009 -14.951  0.00  0.00    +0.058 C 
BRANCH  18  23
ATOM     19  N   UNL     1      36.332 -24.786 -12.389  0.00  0.00    -0.323 NA
ATOM     20  N   UNL     1      36.954 -25.673 -14.541  0.00  0.00    -0.170 NA
ATOM     21  N   UNL     1      35.786 -22.490 -12.156  0.00  0.00    -0.332 N 
ATOM     22  N   UNL     1      36.877 -27.054 -12.647  0.00  0.00    -0.293 N 
ATOM     23  C   UNL     1      36.405 -23.366 -14.302  0.00  0.00    +0.047 C 
ATOM     24  C   UNL     1      36.186 -23.578 -12.972  0.00  0.00    +0.188 C 
ATOM     25  C   UNL     1      36.788 -24.438 -15.057  0.00  0.00    +0.112 C 
ATOM     26  C   UNL     1      36.714 -25.775 -13.221  0.00  0.00    +0.143 C 
ATOM     27  H   UNL     1      35.625 -22.628 -11.194  0.00  0.00    +0.145 HD
ATOM     28  H   UNL     1      35.670 -21.596 -12.550  0.00  0.00    +0.145 HD
ATOM     29  H   UNL     1      36.714 -27.186 -11.684  0.00  0.00    +0.155 HD
ATOM     30  H   UNL     1      37.155 -27.814 -13.207  0.00  0.00    +0.155 HD
ENDBRANCH  18  23
ENDBRANCH   7  18
TORSDOF 5
ENDMDL
MODEL 5
REMARK VINA RESULT:      -9.5      1.405      4.119
REMARK  Name = 10247560
REMARK  5 active torsions:
REMARK  status: ('A' for Active; 'I' for Inactive)
REMARK    1  A    between atoms: C_2  and  C_11
REMARK    2  A    between atoms: C_7  and  C_18
REMARK    3  A    between atoms: C_8  and  O_14
REMARK    4  A    between atoms: C_10  and  O_16
REMARK    5  A    between atoms: C_18  and  C_23
REMARK                            x       y       z     vdW  Elec       q    Type
REMARK                         _______ _______ _______ _____ _____    ______ ____
ROOT
ATOM      1  O   UNL     1      33.608 -23.466 -13.350  0.00  0.00    -0.471 OA
ATOM      2  C   UNL     1      35.013 -23.792 -13.381  0.00  0.00    +0.117 C 
ATOM      3  C   UNL     1      35.585 -24.100 -14.740  0.00  0.00    +0.032 C 
ATOM      4  C   UNL     1      32.989 -23.143 -14.526  0.00  0.00    +0.246 C 
ATOM      5  C   UNL     1      34.915 -23.883 -15.874  0.00  0.00    +0.002 C 
ATOM      6  C   UNL     1      33.576 -23.325 -15.780  0.00  0.00    +0.021 C 
ATOM      7  C   UNL     1      32.858 -22.986 -16.934  0.00  0.00    -0.015 C 
ATOM      8  C   UNL     1      31.692 -22.632 -14.424  0.00  0.00    +0.194 C 
ATOM      9  C   UNL     1      31.567 -22.468 -16.830  0.00  0.00    +0.036 C 
ATOM     10  C   UNL     1      30.984 -22.292 -15.576  0.00  0.00    +0.172 C 
ENDROOT
BRANCH   2  11
ATOM     11  C   UNL     1      35.758 -22.707 -12.650  0.00  0.00    +0.057 C 
ATOM     12  C   UNL     1      36.108 -22.926 -11.218  0.00  0.00    +0.008 C 
ATOM     13  C   UNL     1      37.178 -22.952 -12.270  0.00  0.00    +0.008 C 
ENDBRANCH   2  11
BRANCH   8  14
ATOM     14  O   UNL     1      31.114 -22.462 -13.201  0.00  0.00    -0.469 OA
ATOM     15  C   UNL     1      30.285 -23.519 -12.724  0.00  0.00    +0.252 C 
ENDBRANCH   8  14
BRANCH  10  16
ATOM     16  O   UNL     1      29.721 -21.789 -15.491  0.00  0.00    -0.469 OA
ATOM     17  C   UNL     1      28.685 -22.524 -16.141  0.00  0.00    +0.253 C 
ENDBRANCH  10  16
BRANCH   7  18
ATOM     18  C   UNL     1      33.429 -23.155 -18.306  0.00  0.00    +0.058 C 
BRANCH  18  23
ATOM     19  N   UNL     1      33.926 -19.890 -20.144  0.00  0.00    -0.323 NA
ATOM     20  N   UNL     1      35.987 -20.510 -19.061  0.00  0.00    -0.170 NA
ATOM     21  N   UNL     1      32.010 -21.273 -19.947  0.00  0.00    -0.332 N 
ATOM     22  N   UNL     1      35.836 -18.539 -20.324  0.00  0.00    -0.293 N 
ATOM     23  C   UNL     1      34.058 -21.897 -18.866  0.00  0.00    +0.047 C 
ATOM     24  C   UNL     1      33.369 -21.013 -19.643  0.00  0.00    +0.188 C 
ATOM     25  C   UNL     1      35.367 -21.613 -18.594  0.00  0.00    +0.112 C 
ATOM     26  C   UNL     1      35.220 -19.704 -19.818  0.00  0.00    +0.143 C 
ATOM     27  H   UNL     1      31.501 -20.644 -20.507  0.00  0.00    +0.145 HD
ATOM     28  H   UNL     1      31.574 -22.083 -19.597  0.00  0.00    +0.145 HD
ATOM     29  H   UNL     1      35.321 -17.913 -20.883  0.00  0.00    +0.155 HD
ATOM     30  H   UNL     1      36.781 -18.352 -20.118  0.00  0.00    +0.155 HD
ENDBRANCH  18  23
ENDBRANCH   7  18
TORSDOF 5
ENDMDL
MODEL 6
REMARK VINA RESULT:      -9.2      3.320      6.761
REMARK  Name = 10247560
REMARK  5 active torsions:
REMARK  status: ('A' for Active; 'I' for Inactive)
REMARK    1  A    between atoms: C_2  and  C_11
REMARK    2  A    between atoms: C_7  and  C_18
REMARK    3  A    between atoms: C_8  and  O_14
REMARK    4  A    between atoms: C_10  and  O_16
REMARK    5  A    between atoms: C_18  and  C_23
REMARK                            x       y       z     vdW  Elec       q    Type
REMARK                         _______ _______ _______ _____ _____    ______ ____
ROOT
ATOM      1  O   UNL     1      35.917 -20.925 -19.123  0.00  0.00    -0.471 OA
ATOM      2  C   UNL     1      35.235 -20.337 -20.251  0.00  0.00    +0.117 C 
ATOM      3  C   UNL     1      33.776 -20.687 -20.391  0.00  0.00    +0.032 C 
ATOM      4  C   UNL     1      35.164 -21.462 -18.116  0.00  0.00    +0.246 C 
ATOM      5  C   UNL     1      33.088 -21.316 -19.436  0.00  0.00    +0.002 C 
ATOM      6  C   UNL     1      33.787 -21.675 -18.213  0.00  0.00    +0.021 C 
ATOM      7  C   UNL     1      33.100 -22.250 -17.137  0.00  0.00    -0.015 C 
ATOM      8  C   UNL     1      35.852 -21.827 -16.954  0.00  0.00    +0.194 C 
ATOM      9  C   UNL     1      33.787 -22.607 -15.975  0.00  0.00    +0.036 C 
ATOM     10  C   UNL     1      35.161 -22.396 -15.885  0.00  0.00    +0.172 C 
ENDROOT
BRANCH   2  11
ATOM     11  C   UNL     1      35.496 -18.854 -20.229  0.00  0.00    +0.057 C 
ATOM     12  C   UNL     1      36.387 -18.274 -21.273  0.00  0.00    +0.008 C 
ATOM     13  C   UNL     1      34.909 -18.014 -21.311  0.00  0.00    +0.008 C 
ENDBRANCH   2  11
BRANCH   8  14
ATOM     14  O   UNL     1      37.197 -21.628 -16.861  0.00  0.00    -0.469 OA
ATOM     15  C   UNL     1      37.631 -20.354 -16.391  0.00  0.00    +0.252 C 
ENDBRANCH   8  14
BRANCH  10  16
ATOM     16  O   UNL     1      35.819 -22.752 -14.747  0.00  0.00    -0.469 OA
ATOM     17  C   UNL     1      36.065 -24.144 -14.548  0.00  0.00    +0.253 C 
ENDBRANCH  10  16
BRANCH   7  18
ATOM     18  C   UNL     1      31.627 -22.505 -17.176  0.00  0.00    +0.058 C 
BRANCH  18  23
ATOM     19  N   UNL     1      29.242 -23.512 -14.422  0.00  0.00    -0.323 NA
ATOM     20  N   UNL     1      31.477 -24.180 -13.817  0.00  0.00    -0.170 NA
ATOM     21  N   UNL     1      28.842 -22.406 -16.481  0.00  0.00    -0.332 N 
ATOM     22  N   UNL     1      29.665 -24.608 -12.391  0.00  0.00    -0.293 N 
ATOM     23  C   UNL     1      31.069 -23.067 -15.886  0.00  0.00    +0.047 C 
ATOM     24  C   UNL     1      29.743 -23.012 -15.571  0.00  0.00    +0.188 C 
ATOM     25  C   UNL     1      31.908 -23.659 -14.985  0.00  0.00    +0.112 C 
ATOM     26  C   UNL     1      30.152 -24.073 -13.603  0.00  0.00    +0.143 C 
ATOM     27  H   UNL     1      27.882 -22.358 -16.266  0.00  0.00    +0.145 HD
ATOM     28  H   UNL     1      29.175 -22.031 -17.328  0.00  0.00    +0.145 HD
ATOM     29  H   UNL     1      28.703 -24.559 -12.183  0.00  0.00    +0.155 HD
ATOM     30  H   UNL     1      30.285 -25.031 -11.754  0.00  0.00    +0.155 HD
ENDBRANCH  18  23
ENDBRANCH   7  18
TORSDOF 5
ENDMDL
MODEL 7
REMARK VINA RESULT:      -9.1      3.418      6.755
REMARK  Name = 10247560
REMARK  5 active torsions:
REMARK  status: ('A' for Active; 'I' for Inactive)
REMARK    1  A    between atoms: C_2  and  C_11
REMARK    2  A    between atoms: C_7  and  C_18
REMARK    3  A    between atoms: C_8  and  O_14
REMARK    4  A    between atoms: C_10  and  O_16
REMARK    5  A    between atoms: C_18  and  C_23
REMARK                            x       y       z     vdW  Elec       q    Type
REMARK                         _______ _______ _______ _____ _____    ______ ____
ROOT
ATOM      1  O   UNL     1      35.246 -21.815 -18.527  0.00  0.00    -0.471 OA
ATOM      2  C   UNL     1      34.761 -21.131 -19.700  0.00  0.00    +0.117 C 
ATOM      3  C   UNL     1      33.264 -21.096 -19.867  0.00  0.00    +0.032 C 
ATOM      4  C   UNL     1      34.363 -22.085 -17.518  0.00  0.00    +0.246 C 
ATOM      5  C   UNL     1      32.420 -21.474 -18.906  0.00  0.00    +0.002 C 
ATOM      6  C   UNL     1      32.980 -21.938 -17.647  0.00  0.00    +0.021 C 
ATOM      7  C   UNL     1      32.148 -22.257 -16.566  0.00  0.00    -0.015 C 
ATOM      8  C   UNL     1      34.912 -22.554 -16.321  0.00  0.00    +0.194 C 
ATOM      9  C   UNL     1      32.699 -22.718 -15.370  0.00  0.00    +0.036 C 
ATOM     10  C   UNL     1      34.079 -22.867 -15.248  0.00  0.00    +0.172 C 
ENDROOT
BRANCH   2  11
ATOM     11  C   UNL     1      35.400 -19.767 -19.739  0.00  0.00    +0.057 C 
ATOM     12  C   UNL     1      36.337 -19.454 -20.855  0.00  0.00    +0.008 C 
ATOM     13  C   UNL     1      34.979 -18.817 -20.807  0.00  0.00    +0.008 C 
ENDBRANCH   2  11
BRANCH   8  14
ATOM     14  O   UNL     1      36.261 -22.707 -16.197  0.00  0.00    -0.469 OA
ATOM     15  C   UNL     1      37.000 -21.576 -15.743  0.00  0.00    +0.252 C 
ENDBRANCH   8  14
BRANCH  10  16
ATOM     16  O   UNL     1      34.602 -23.322 -14.075  0.00  0.00    -0.469 OA
ATOM     17  C   UNL     1      33.677 -23.698 -13.056  0.00  0.00    +0.253 C 
ENDBRANCH  10  16
BRANCH   7  18
ATOM     18  C   UNL     1      30.661 -22.121 -16.638  0.00  0.00    +0.058 C 
BRANCH  18  23
ATOM     19  N   UNL     1      27.900 -24.312 -15.270  0.00  0.00    -0.323 NA
ATOM     20  N   UNL     1      29.981 -24.906 -14.210  0.00  0.00    -0.170 NA
ATOM     21  N   UNL     1      27.837 -22.584 -16.894  0.00  0.00    -0.332 N 
ATOM     22  N   UNL     1      27.989 -26.017 -13.661  0.00  0.00    -0.293 N 
ATOM     23  C   UNL     1      29.913 -23.170 -15.843  0.00  0.00    +0.047 C 
ATOM     24  C   UNL     1      28.571 -23.377 -15.977  0.00  0.00    +0.188 C 
ATOM     25  C   UNL     1      30.587 -23.954 -14.950  0.00  0.00    +0.112 C 
ATOM     26  C   UNL     1      28.657 -25.029 -14.417  0.00  0.00    +0.143 C 
ATOM     27  H   UNL     1      26.868 -22.722 -17.000  0.00  0.00    +0.145 HD
ATOM     28  H   UNL     1      28.297 -21.894 -17.424  0.00  0.00    +0.145 HD
ATOM     29  H   UNL     1      27.020 -26.151 -13.772  0.00  0.00    +0.155 HD
ATOM     30  H   UNL     1      28.492 -26.571 -13.022  0.00  0.00    +0.155 HD
ENDBRANCH  18  23
ENDBRANCH   7  18
TORSDOF 5
ENDMDL
MODEL 8
REMARK VINA RESULT:      -9.1      6.865     10.187
REMARK  Name = 10247560
REMARK  5 active torsions:
REMARK  status: ('A' for Active; 'I' for Inactive)
REMARK    1  A    between atoms: C_2  and  C_11
REMARK    2  A    between atoms: C_7  and  C_18
REMARK    3  A    between atoms: C_8  and  O_14
REMARK    4  A    between atoms: C_10  and  O_16
REMARK    5  A    between atoms: C_18  and  C_23
REMARK                            x       y       z     vdW  Elec       q    Type
REMARK                         _______ _______ _______ _____ _____    ______ ____
ROOT
ATOM      1  O   UNL     1      34.640 -18.634 -22.847  0.00  0.00    -0.471 OA
ATOM      2  C   UNL     1      34.914 -19.108 -21.511  0.00  0.00    +0.117 C 
ATOM      3  C   UNL     1      35.150 -18.042 -20.473  0.00  0.00    +0.032 C 
ATOM      4  C   UNL     1      34.298 -17.321 -23.014  0.00  0.00    +0.246 C 
ATOM      5  C   UNL     1      34.917 -16.748 -20.698  0.00  0.00    +0.002 C 
ATOM      6  C   UNL     1      34.413 -16.361 -22.006  0.00  0.00    +0.021 C 
ATOM      7  C   UNL     1      34.058 -15.033 -22.273  0.00  0.00    -0.015 C 
ATOM      8  C   UNL     1      33.839 -16.956 -24.283  0.00  0.00    +0.194 C 
ATOM      9  C   UNL     1      33.592 -14.672 -23.538  0.00  0.00    +0.036 C 
ATOM     10  C   UNL     1      33.484 -15.633 -24.542  0.00  0.00    +0.172 C 
ENDROOT
BRANCH   2  11
ATOM     11  C   UNL     1      33.829 -20.081 -21.134  0.00  0.00    +0.057 C 
ATOM     12  C   UNL     1      33.952 -20.817 -19.844  0.00  0.00    +0.008 C 
ATOM     13  C   UNL     1      32.926 -19.733 -20.000  0.00  0.00    +0.008 C 
ENDBRANCH   2  11
BRANCH   8  14
ATOM     14  O   UNL     1      33.735 -17.890 -25.271  0.00  0.00    -0.469 OA
ATOM     15  C   UNL     1      32.617 -18.773 -25.211  0.00  0.00    +0.252 C 
ENDBRANCH   8  14
BRANCH  10  16
ATOM     16  O   UNL     1      33.031 -15.266 -25.773  0.00  0.00    -0.469 OA
ATOM     17  C   UNL     1      32.815 -13.873 -25.995  0.00  0.00    +0.253 C 
ENDBRANCH  10  16
BRANCH   7  18
ATOM     18  C   UNL     1      34.156 -13.958 -21.238  0.00  0.00    +0.058 C 
BRANCH  18  23
ATOM     19  N   UNL     1      31.063 -11.831 -20.789  0.00  0.00    -0.323 NA
ATOM     20  N   UNL     1      32.443 -10.867 -22.514  0.00  0.00    -0.170 NA
ATOM     21  N   UNL     1      31.747 -13.814 -19.681  0.00  0.00    -0.332 N 
ATOM     22  N   UNL     1      30.411  -9.870 -21.900  0.00  0.00    -0.293 N 
ATOM     23  C   UNL     1      33.125 -12.861 -21.398  0.00  0.00    +0.047 C 
ATOM     24  C   UNL     1      31.985 -12.807 -20.650  0.00  0.00    +0.188 C 
ATOM     25  C   UNL     1      33.321 -11.873 -22.321  0.00  0.00    +0.112 C 
ATOM     26  C   UNL     1      31.352 -10.907 -21.726  0.00  0.00    +0.143 C 
ATOM     27  H   UNL     1      30.928 -13.788 -19.135  0.00  0.00    +0.145 HD
ATOM     28  H   UNL     1      32.399 -14.540 -19.555  0.00  0.00    +0.145 HD
ATOM     29  H   UNL     1      29.594  -9.849 -21.349  0.00  0.00    +0.155 HD
ATOM     30  H   UNL     1      30.570  -9.167 -22.571  0.00  0.00    +0.155 HD
ENDBRANCH  18  23
ENDBRANCH   7  18
TORSDOF 5
ENDMDL
MODEL 9
REMARK VINA RESULT:      -9.1      8.396     11.663
REMARK  Name = 10247560
REMARK  5 active torsions:
REMARK  status: ('A' for Active; 'I' for Inactive)
REMARK    1  A    between atoms: C_2  and  C_11
REMARK    2  A    between atoms: C_7  and  C_18
REMARK    3  A    between atoms: C_8  and  O_14
REMARK    4  A    between atoms: C_10  and  O_16
REMARK    5  A    between atoms: C_18  and  C_23
REMARK                            x       y       z     vdW  Elec       q    Type
REMARK                         _______ _______ _______ _____ _____    ______ ____
ROOT
ATOM      1  O   UNL     1      34.699 -16.489 -22.570  0.00  0.00    -0.471 OA
ATOM      2  C   UNL     1      34.786 -16.836 -21.172  0.00  0.00    +0.117 C 
ATOM      3  C   UNL     1      34.381 -15.756 -20.202  0.00  0.00    +0.032 C 
ATOM      4  C   UNL     1      33.977 -15.383 -22.923  0.00  0.00    +0.246 C 
ATOM      5  C   UNL     1      33.779 -14.629 -20.585  0.00  0.00    +0.002 C 
ATOM      6  C   UNL     1      33.505 -14.445 -22.001  0.00  0.00    +0.021 C 
ATOM      7  C   UNL     1      32.791 -13.330 -22.455  0.00  0.00    -0.015 C 
ATOM      8  C   UNL     1      33.743 -15.204 -24.289  0.00  0.00    +0.194 C 
ATOM      9  C   UNL     1      32.552 -13.157 -23.819  0.00  0.00    +0.036 C 
ATOM     10  C   UNL     1      33.028 -14.094 -24.735  0.00  0.00    +0.172 C 
ENDROOT
BRANCH   2  11
ATOM     11  C   UNL     1      34.046 -18.131 -20.969  0.00  0.00    +0.057 C 
ATOM     12  C   UNL     1      34.101 -19.158 -22.047  0.00  0.00    +0.008 C 
ATOM     13  C   UNL     1      34.838 -19.376 -20.757  0.00  0.00    +0.008 C 
ENDBRANCH   2  11
BRANCH   8  14
ATOM     14  O   UNL     1      34.210 -16.114 -25.191  0.00  0.00    -0.469 OA
ATOM     15  C   UNL     1      33.658 -17.427 -25.130  0.00  0.00    +0.252 C 
ENDBRANCH   8  14
BRANCH  10  16
ATOM     16  O   UNL     1      32.790 -13.910 -26.063  0.00  0.00    -0.469 OA
ATOM     17  C   UNL     1      32.442 -12.592 -26.484  0.00  0.00    +0.253 C 
ENDBRANCH  10  16
BRANCH   7  18
ATOM     18  C   UNL     1      32.258 -12.290 -21.521  0.00  0.00    +0.058 C 
BRANCH  18  23
ATOM     19  N   UNL     1      30.834  -8.959 -22.601  0.00  0.00    -0.323 NA
ATOM     20  N   UNL     1      33.079  -9.173 -23.449  0.00  0.00    -0.170 NA
ATOM     21  N   UNL     1      29.875 -10.702 -21.309  0.00  0.00    -0.332 N 
ATOM     22  N   UNL     1      31.807  -7.250 -23.880  0.00  0.00    -0.293 N 
ATOM     23  C   UNL     1      32.110 -10.922 -22.151  0.00  0.00    +0.047 C 
ATOM     24  C   UNL     1      30.970 -10.180 -22.041  0.00  0.00    +0.188 C 
ATOM     25  C   UNL     1      33.146 -10.386 -22.863  0.00  0.00    +0.112 C 
ATOM     26  C   UNL     1      31.912  -8.524 -23.281  0.00  0.00    +0.143 C 
ATOM     27  H   UNL     1      29.046 -10.178 -21.222  0.00  0.00    +0.145 HD
ATOM     28  H   UNL     1      29.942 -11.589 -20.889  0.00  0.00    +0.145 HD
ATOM     29  H   UNL     1      30.975  -6.730 -23.789  0.00  0.00    +0.155 HD
ATOM     30  H   UNL     1      32.564  -6.881 -24.390  0.00  0.00    +0.155 HD
ENDBRANCH  18  23
ENDBRANCH   7  18
TORSDOF 5
ENDMDL
