MODEL 1
REMARK VINA RESULT:     -13.4      0.000      0.000
REMARK  Name = 16363
REMARK  6 active torsions:
REMARK  status: ('A' for Active; 'I' for Inactive)
REMARK    1  A    between atoms: N_1  and  C_19
REMARK    2  A    between atoms: C_2  and  N_9
REMARK    3  A    between atoms: C_19  and  C_20
REMARK    4  A    between atoms: C_20  and  C_21
REMARK    5  A    between atoms: C_21  and  C_23
REMARK    6  A    between atoms: C_23  and  C_25
REMARK                            x       y       z     vdW  Elec       q    Type
REMARK                         _______ _______ _______ _____ _____    ______ ____
ROOT
ATOM      1  N   UNL     1      35.303 -18.524 -21.006  0.00  0.00    +0.387 N 
ATOM      2  C   UNL     1      34.738 -20.985 -19.529  0.00  0.00    +0.086 C 
ATOM      3  C   UNL     1      36.022 -20.182 -19.319  0.00  0.00    -0.000 C 
ATOM      4  C   UNL     1      33.628 -20.076 -20.055  0.00  0.00    -0.000 C 
ATOM      5  C   UNL     1      36.401 -19.400 -20.578  0.00  0.00    -0.075 C 
ATOM      6  C   UNL     1      34.085 -19.297 -21.290  0.00  0.00    -0.075 C 
ATOM      7  H   UNL     1      35.096 -17.881 -20.242  0.00  0.00    -0.080 HD
ENDROOT
BRANCH   2   9
ATOM      8  O   UNL     1      32.031 -22.059 -18.747  0.00  0.00    -0.247 OA
ATOM      9  N   UNL     1      34.331 -21.642 -18.313  0.00  0.00    -0.282 N 
ATOM     10  N   UNL     1      33.092 -22.686 -16.729  0.00  0.00    -0.305 N 
ATOM     11  C   UNL     1      35.164 -21.914 -17.219  0.00  0.00    +0.079 A 
ATOM     12  C   UNL     1      33.022 -22.118 -18.032  0.00  0.00    +0.328 A 
ATOM     13  C   UNL     1      34.395 -22.556 -16.250  0.00  0.00    +0.076 A 
ATOM     14  C   UNL     1      36.502 -21.649 -17.019  0.00  0.00    +0.019 C 
ATOM     15  C   UNL     1      34.918 -22.962 -15.042  0.00  0.00    +0.019 C 
ATOM     16  C   UNL     1      37.057 -22.051 -15.800  0.00  0.00    +0.002 C 
ATOM     17  C   UNL     1      36.273 -22.700 -14.822  0.00  0.00    +0.002 C 
ATOM     18  H   UNL     1      32.343 -23.104 -16.245  0.00  0.00    +0.170 HD
ENDBRANCH   2   9
BRANCH   1  19
ATOM     19  C   UNL     1      35.698 -17.745 -22.181  0.00  0.00    -0.077 C 
BRANCH  19  20
ATOM     20  C   UNL     1      34.471 -17.089 -22.817  0.00  0.00    -0.015 C 
BRANCH  20  21
ATOM     21  C   UNL     1      34.574 -15.561 -22.836  0.00  0.00    +0.067 C 
BRANCH  21  23
ATOM     22  O   UNL     1      34.261 -15.360 -20.452  0.00  0.00    -0.291 OA
ATOM     23  C   UNL     1      34.041 -14.903 -21.572  0.00  0.00    +0.173 C 
BRANCH  23  25
ATOM     24  F   UNL     1      31.049 -10.215 -22.056  0.00  0.00    -0.204 F 
ATOM     25  C   UNL     1      33.242 -13.651 -21.700  0.00  0.00    +0.035 C 
ATOM     26  C   UNL     1      33.424 -12.864 -22.816  0.00  0.00    +0.005 C 
ATOM     27  C   UNL     1      32.352 -13.329 -20.701  0.00  0.00    +0.005 C 
ATOM     28  C   UNL     1      32.677 -11.693 -22.937  0.00  0.00    +0.030 C 
ATOM     29  C   UNL     1      31.605 -12.158 -20.822  0.00  0.00    +0.030 C 
ATOM     30  C   UNL     1      31.766 -11.340 -21.940  0.00  0.00    +0.140 C 
ENDBRANCH  23  25
ENDBRANCH  21  23
ENDBRANCH  20  21
ENDBRANCH  19  20
ENDBRANCH   1  19
TORSDOF 6
ENDMDL
MODEL 2
REMARK VINA RESULT:     -13.2      2.347      3.543
REMARK  Name = 16363
REMARK  6 active torsions:
REMARK  status: ('A' for Active; 'I' for Inactive)
REMARK    1  A    between atoms: N_1  and  C_19
REMARK    2  A    between atoms: C_2  and  N_9
REMARK    3  A    between atoms: C_19  and  C_20
REMARK    4  A    between atoms: C_20  and  C_21
REMARK    5  A    between atoms: C_21  and  C_23
REMARK    6  A    between atoms: C_23  and  C_25
REMARK                            x       y       z     vdW  Elec       q    Type
REMARK                         _______ _______ _______ _____ _____    ______ ____
ROOT
ATOM      1  N   UNL     1      34.194 -20.192 -19.791  0.00  0.00    +0.387 N 
ATOM      2  C   UNL     1      33.648 -22.348 -17.890  0.00  0.00    +0.086 C 
ATOM      3  C   UNL     1      35.004 -21.645 -17.961  0.00  0.00    -0.000 C 
ATOM      4  C   UNL     1      32.549 -21.427 -18.417  0.00  0.00    -0.000 C 
ATOM      5  C   UNL     1      35.272 -21.094 -19.363  0.00  0.00    -0.075 C 
ATOM      6  C   UNL     1      32.896 -20.882 -19.804  0.00  0.00    -0.075 C 
ATOM      7  H   UNL     1      34.136 -19.428 -19.119  0.00  0.00    -0.080 HD
ENDROOT
BRANCH   2   9
ATOM      8  O   UNL     1      35.523 -23.350 -15.751  0.00  0.00    -0.247 OA
ATOM      9  N   UNL     1      33.356 -22.780 -16.547  0.00  0.00    -0.282 N 
ATOM     10  N   UNL     1      33.574 -23.552 -14.427  0.00  0.00    -0.305 N 
ATOM     11  C   UNL     1      32.083 -22.813 -15.962  0.00  0.00    +0.079 A 
ATOM     12  C   UNL     1      34.315 -23.239 -15.602  0.00  0.00    +0.328 A 
ATOM     13  C   UNL     1      32.225 -23.288 -14.661  0.00  0.00    +0.076 A 
ATOM     14  C   UNL     1      30.850 -22.467 -16.474  0.00  0.00    +0.019 C 
ATOM     15  C   UNL     1      31.153 -23.442 -13.809  0.00  0.00    +0.019 C 
ATOM     16  C   UNL     1      29.745 -22.614 -15.629  0.00  0.00    +0.002 C 
ATOM     17  C   UNL     1      29.895 -23.096 -14.311  0.00  0.00    +0.002 C 
ATOM     18  H   UNL     1      33.953 -23.897 -13.586  0.00  0.00    +0.170 HD
ENDBRANCH   2   9
BRANCH   1  19
ATOM     19  C   UNL     1      34.489 -19.634 -21.111  0.00  0.00    -0.077 C 
BRANCH  19  20
ATOM     20  C   UNL     1      35.757 -18.781 -21.053  0.00  0.00    -0.015 C 
BRANCH  20  21
ATOM     21  C   UNL     1      35.716 -17.609 -22.038  0.00  0.00    +0.067 C 
BRANCH  21  23
ATOM     22  O   UNL     1      34.602 -16.243 -20.389  0.00  0.00    -0.291 OA
ATOM     23  C   UNL     1      34.824 -16.465 -21.578  0.00  0.00    +0.173 C 
BRANCH  23  25
ATOM     24  F   UNL     1      32.552 -13.128 -25.435  0.00  0.00    -0.204 F 
ATOM     25  C   UNL     1      34.218 -15.573 -22.607  0.00  0.00    +0.035 C 
ATOM     26  C   UNL     1      34.015 -16.072 -23.875  0.00  0.00    +0.005 C 
ATOM     27  C   UNL     1      33.883 -14.286 -22.253  0.00  0.00    +0.005 C 
ATOM     28  C   UNL     1      33.447 -15.239 -24.839  0.00  0.00    +0.030 C 
ATOM     29  C   UNL     1      33.315 -13.453 -23.217  0.00  0.00    +0.030 C 
ATOM     30  C   UNL     1      33.097 -13.928 -24.509  0.00  0.00    +0.140 C 
ENDBRANCH  23  25
ENDBRANCH  21  23
ENDBRANCH  20  21
ENDBRANCH  19  20
ENDBRANCH   1  19
TORSDOF 6
ENDMDL
MODEL 3
REMARK VINA RESULT:     -13.2      1.250      1.740
REMARK  Name = 16363
REMARK  6 active torsions:
REMARK  status: ('A' for Active; 'I' for Inactive)
REMARK    1  A    between atoms: N_1  and  C_19
REMARK    2  A    between atoms: C_2  and  N_9
REMARK    3  A    between atoms: C_19  and  C_20
REMARK    4  A    between atoms: C_20  and  C_21
REMARK    5  A    between atoms: C_21  and  C_23
REMARK    6  A    between atoms: C_23  and  C_25
REMARK                            x       y       z     vdW  Elec       q    Type
REMARK                         _______ _______ _______ _____ _____    ______ ____
ROOT
ATOM      1  N   UNL     1      33.635 -19.773 -20.488  0.00  0.00    +0.387 N 
ATOM      2  C   UNL     1      33.770 -21.923 -18.509  0.00  0.00    +0.086 C 
ATOM      3  C   UNL     1      35.000 -21.114 -18.922  0.00  0.00    -0.000 C 
ATOM      4  C   UNL     1      32.499 -21.106 -18.741  0.00  0.00    -0.000 C 
ATOM      5  C   UNL     1      34.858 -20.575 -20.346  0.00  0.00    -0.075 C 
ATOM      6  C   UNL     1      32.439 -20.566 -20.172  0.00  0.00    -0.075 C 
ATOM      7  H   UNL     1      33.685 -19.001 -19.824  0.00  0.00    -0.080 HD
ENDROOT
BRANCH   2   9
ATOM      8  O   UNL     1      31.627 -23.020 -16.693  0.00  0.00    -0.247 OA
ATOM      9  N   UNL     1      33.864 -22.347 -17.135  0.00  0.00    -0.282 N 
ATOM     10  N   UNL     1      33.347 -23.137 -15.074  0.00  0.00    -0.305 N 
ATOM     11  C   UNL     1      35.028 -22.324 -16.355  0.00  0.00    +0.079 A 
ATOM     12  C   UNL     1      32.790 -22.855 -16.354  0.00  0.00    +0.328 A 
ATOM     13  C   UNL     1      34.703 -22.811 -15.091  0.00  0.00    +0.076 A 
ATOM     14  C   UNL     1      36.310 -21.921 -16.665  0.00  0.00    +0.019 C 
ATOM     15  C   UNL     1      35.632 -22.919 -14.080  0.00  0.00    +0.019 C 
ATOM     16  C   UNL     1      37.272 -22.021 -15.655  0.00  0.00    +0.002 C 
ATOM     17  C   UNL     1      36.937 -22.514 -14.376  0.00  0.00    +0.002 C 
ATOM     18  H   UNL     1      32.856 -23.503 -14.304  0.00  0.00    +0.170 HD
ENDBRANCH   2   9
BRANCH   1  19
ATOM     19  C   UNL     1      33.539 -19.222 -21.841  0.00  0.00    -0.077 C 
BRANCH  19  20
ATOM     20  C   UNL     1      34.929 -18.847 -22.359  0.00  0.00    -0.015 C 
BRANCH  20  21
ATOM     21  C   UNL     1      35.041 -17.358 -22.694  0.00  0.00    +0.067 C 
BRANCH  21  23
ATOM     22  O   UNL     1      34.991 -16.776 -20.353  0.00  0.00    -0.291 OA
ATOM     23  C   UNL     1      34.746 -16.447 -21.512  0.00  0.00    +0.173 C 
BRANCH  23  25
ATOM     24  F   UNL     1      32.536 -11.416 -22.499  0.00  0.00    -0.204 F 
ATOM     25  C   UNL     1      34.156 -15.103 -21.775  0.00  0.00    +0.035 C 
ATOM     26  C   UNL     1      34.131 -14.636 -23.070  0.00  0.00    +0.005 C 
ATOM     27  C   UNL     1      33.658 -14.381 -20.714  0.00  0.00    +0.005 C 
ATOM     28  C   UNL     1      33.579 -13.379 -23.317  0.00  0.00    +0.030 C 
ATOM     29  C   UNL     1      33.106 -13.124 -20.961  0.00  0.00    +0.030 C 
ATOM     30  C   UNL     1      33.066 -12.623 -22.262  0.00  0.00    +0.140 C 
ENDBRANCH  23  25
ENDBRANCH  21  23
ENDBRANCH  20  21
ENDBRANCH  19  20
ENDBRANCH   1  19
TORSDOF 6
ENDMDL
MODEL 4
REMARK VINA RESULT:     -13.1      2.655      4.432
REMARK  Name = 16363
REMARK  6 active torsions:
REMARK  status: ('A' for Active; 'I' for Inactive)
REMARK    1  A    between atoms: N_1  and  C_19
REMARK    2  A    between atoms: C_2  and  N_9
REMARK    3  A    between atoms: C_19  and  C_20
REMARK    4  A    between atoms: C_20  and  C_21
REMARK    5  A    between atoms: C_21  and  C_23
REMARK    6  A    between atoms: C_23  and  C_25
REMARK                            x       y       z     vdW  Elec       q    Type
REMARK                         _______ _______ _______ _____ _____    ______ ____
ROOT
ATOM      1  N   UNL     1      34.489 -15.235 -23.217  0.00  0.00    +0.387 N 
ATOM      2  C   UNL     1      34.211 -17.663 -21.610  0.00  0.00    +0.086 C 
ATOM      3  C   UNL     1      34.617 -17.700 -23.083  0.00  0.00    -0.000 C 
ATOM      4  C   UNL     1      34.585 -16.315 -20.994  0.00  0.00    -0.000 C 
ATOM      5  C   UNL     1      34.063 -16.494 -23.843  0.00  0.00    -0.075 C 
ATOM      6  C   UNL     1      34.033 -15.153 -21.822  0.00  0.00    -0.075 C 
ATOM      7  H   UNL     1      35.508 -15.212 -23.216  0.00  0.00    -0.080 HD
ENDROOT
BRANCH   2   9
ATOM      8  O   UNL     1      37.125 -18.222 -21.071  0.00  0.00    -0.247 OA
ATOM      9  N   UNL     1      34.814 -18.748 -20.877  0.00  0.00    -0.282 N 
ATOM     10  N   UNL     1      36.332 -20.120 -19.903  0.00  0.00    -0.305 N 
ATOM     11  C   UNL     1      34.119 -19.791 -20.251  0.00  0.00    +0.079 A 
ATOM     12  C   UNL     1      36.209 -18.929 -20.674  0.00  0.00    +0.328 A 
ATOM     13  C   UNL     1      35.058 -20.630 -19.655  0.00  0.00    +0.076 A 
ATOM     14  C   UNL     1      32.767 -20.049 -20.169  0.00  0.00    +0.019 C 
ATOM     15  C   UNL     1      34.700 -21.759 -18.952  0.00  0.00    +0.019 C 
ATOM     16  C   UNL     1      32.377 -21.190 -19.460  0.00  0.00    +0.002 C 
ATOM     17  C   UNL     1      33.333 -22.036 -18.859  0.00  0.00    +0.002 C 
ATOM     18  H   UNL     1      37.179 -20.518 -19.596  0.00  0.00    +0.170 HD
ENDBRANCH   2   9
BRANCH   1  19
ATOM     19  C   UNL     1      33.994 -14.090 -23.984  0.00  0.00    -0.077 C 
BRANCH  19  20
ATOM     20  C   UNL     1      33.695 -12.917 -23.048  0.00  0.00    -0.015 C 
BRANCH  20  21
ATOM     21  C   UNL     1      32.201 -12.587 -22.990  0.00  0.00    +0.067 C 
BRANCH  21  23
ATOM     22  O   UNL     1      31.498 -12.973 -20.714  0.00  0.00    -0.291 OA
ATOM     23  C   UNL     1      31.729 -12.161 -21.607  0.00  0.00    +0.173 C 
BRANCH  23  25
ATOM     24  F   UNL     1      31.104  -6.714 -20.554  0.00  0.00    -0.204 F 
ATOM     25  C   UNL     1      31.561 -10.707 -21.327  0.00  0.00    +0.035 C 
ATOM     26  C   UNL     1      31.303 -10.309 -20.034  0.00  0.00    +0.005 C 
ATOM     27  C   UNL     1      31.672  -9.815 -22.369  0.00  0.00    +0.005 C 
ATOM     28  C   UNL     1      31.147  -8.949 -19.770  0.00  0.00    +0.030 C 
ATOM     29  C   UNL     1      31.517  -8.454 -22.106  0.00  0.00    +0.030 C 
ATOM     30  C   UNL     1      31.254  -8.021 -20.807  0.00  0.00    +0.140 C 
ENDBRANCH  23  25
ENDBRANCH  21  23
ENDBRANCH  20  21
ENDBRANCH  19  20
ENDBRANCH   1  19
TORSDOF 6
ENDMDL
MODEL 5
REMARK VINA RESULT:     -12.9      2.606      4.657
REMARK  Name = 16363
REMARK  6 active torsions:
REMARK  status: ('A' for Active; 'I' for Inactive)
REMARK    1  A    between atoms: N_1  and  C_19
REMARK    2  A    between atoms: C_2  and  N_9
REMARK    3  A    between atoms: C_19  and  C_20
REMARK    4  A    between atoms: C_20  and  C_21
REMARK    5  A    between atoms: C_21  and  C_23
REMARK    6  A    between atoms: C_23  and  C_25
REMARK                            x       y       z     vdW  Elec       q    Type
REMARK                         _______ _______ _______ _____ _____    ______ ____
ROOT
ATOM      1  N   UNL     1      34.262 -22.210 -18.055  0.00  0.00    +0.387 N 
ATOM      2  C   UNL     1      34.696 -22.591 -15.187  0.00  0.00    +0.086 C 
ATOM      3  C   UNL     1      33.587 -23.317 -15.949  0.00  0.00    -0.000 C 
ATOM      4  C   UNL     1      35.828 -22.211 -16.141  0.00  0.00    -0.000 C 
ATOM      5  C   UNL     1      33.131 -22.511 -17.167  0.00  0.00    -0.075 C 
ATOM      6  C   UNL     1      35.300 -21.442 -17.353  0.00  0.00    -0.075 C 
ATOM      7  H   UNL     1      34.673 -23.095 -18.352  0.00  0.00    -0.080 HD
ENDROOT
BRANCH   2   9
ATOM      8  O   UNL     1      33.282 -23.504 -12.685  0.00  0.00    -0.247 OA
ATOM      9  N   UNL     1      35.191 -23.396 -14.099  0.00  0.00    -0.282 N 
ATOM     10  N   UNL     1      35.332 -24.558 -12.158  0.00  0.00    -0.305 N 
ATOM     11  C   UNL     1      36.484 -23.926 -14.002  0.00  0.00    +0.079 A 
ATOM     12  C   UNL     1      34.443 -23.778 -12.951  0.00  0.00    +0.328 A 
ATOM     13  C   UNL     1      36.564 -24.638 -12.808  0.00  0.00    +0.076 A 
ATOM     14  C   UNL     1      37.561 -23.832 -14.859  0.00  0.00    +0.019 C 
ATOM     15  C   UNL     1      37.712 -25.288 -12.410  0.00  0.00    +0.019 C 
ATOM     16  C   UNL     1      38.738 -24.483 -14.477  0.00  0.00    +0.002 C 
ATOM     17  C   UNL     1      38.813 -25.203 -13.266  0.00  0.00    +0.002 C 
ATOM     18  H   UNL     1      35.113 -24.973 -11.292  0.00  0.00    +0.170 HD
ENDBRANCH   2   9
BRANCH   1  19
ATOM     19  C   UNL     1      33.802 -21.485 -19.240  0.00  0.00    -0.077 C 
BRANCH  19  20
ATOM     20  C   UNL     1      34.921 -20.590 -19.778  0.00  0.00    -0.015 C 
BRANCH  20  21
ATOM     21  C   UNL     1      34.407 -19.562 -20.790  0.00  0.00    +0.067 C 
BRANCH  21  23
ATOM     22  O   UNL     1      36.430 -18.299 -20.422  0.00  0.00    -0.291 OA
ATOM     23  C   UNL     1      35.311 -18.346 -20.929  0.00  0.00    +0.173 C 
BRANCH  23  25
ATOM     24  F   UNL     1      33.493 -13.983 -23.901  0.00  0.00    -0.204 F 
ATOM     25  C   UNL     1      34.825 -17.182 -21.723  0.00  0.00    +0.035 C 
ATOM     26  C   UNL     1      34.466 -16.031 -21.056  0.00  0.00    +0.005 C 
ATOM     27  C   UNL     1      34.753 -17.299 -23.092  0.00  0.00    +0.005 C 
ATOM     28  C   UNL     1      34.013 -14.941 -21.798  0.00  0.00    +0.030 C 
ATOM     29  C   UNL     1      34.299 -16.209 -23.834  0.00  0.00    +0.030 C 
ATOM     30  C   UNL     1      33.929 -15.030 -23.188  0.00  0.00    +0.140 C 
ENDBRANCH  23  25
ENDBRANCH  21  23
ENDBRANCH  20  21
ENDBRANCH  19  20
ENDBRANCH   1  19
TORSDOF 6
ENDMDL
MODEL 6
REMARK VINA RESULT:     -12.8      3.646      9.523
REMARK  Name = 16363
REMARK  6 active torsions:
REMARK  status: ('A' for Active; 'I' for Inactive)
REMARK    1  A    between atoms: N_1  and  C_19
REMARK    2  A    between atoms: C_2  and  N_9
REMARK    3  A    between atoms: C_19  and  C_20
REMARK    4  A    between atoms: C_20  and  C_21
REMARK    5  A    between atoms: C_21  and  C_23
REMARK    6  A    between atoms: C_23  and  C_25
REMARK                            x       y       z     vdW  Elec       q    Type
REMARK                         _______ _______ _______ _____ _____    ______ ____
ROOT
ATOM      1  N   UNL     1      34.669 -18.972 -21.383  0.00  0.00    +0.387 N 
ATOM      2  C   UNL     1      34.510 -16.427 -22.817  0.00  0.00    +0.086 C 
ATOM      3  C   UNL     1      33.868 -17.707 -23.351  0.00  0.00    -0.000 C 
ATOM      4  C   UNL     1      34.645 -16.500 -21.296  0.00  0.00    -0.000 C 
ATOM      5  C   UNL     1      34.606 -18.950 -22.851  0.00  0.00    -0.075 C 
ATOM      6  C   UNL     1      35.357 -17.783 -20.862  0.00  0.00    -0.075 C 
ATOM      7  H   UNL     1      33.714 -18.964 -21.027  0.00  0.00    -0.080 HD
ENDROOT
BRANCH   2   9
ATOM      8  O   UNL     1      33.577 -15.587 -25.559  0.00  0.00    -0.247 OA
ATOM      9  N   UNL     1      33.755 -15.264 -23.210  0.00  0.00    -0.282 N 
ATOM     10  N   UNL     1      32.643 -13.722 -24.444  0.00  0.00    -0.305 N 
ATOM     11  C   UNL     1      33.295 -14.263 -22.344  0.00  0.00    +0.079 A 
ATOM     12  C   UNL     1      33.358 -14.950 -24.538  0.00  0.00    +0.328 A 
ATOM     13  C   UNL     1      32.612 -13.320 -23.109  0.00  0.00    +0.076 A 
ATOM     14  C   UNL     1      33.427 -14.125 -20.978  0.00  0.00    +0.019 C 
ATOM     15  C   UNL     1      32.032 -12.200 -22.555  0.00  0.00    +0.019 C 
ATOM     16  C   UNL     1      32.846 -12.996 -20.392  0.00  0.00    +0.002 C 
ATOM     17  C   UNL     1      32.156 -12.044 -21.172  0.00  0.00    +0.002 C 
ATOM     18  H   UNL     1      32.235 -13.238 -25.198  0.00  0.00    +0.170 HD
ENDBRANCH   2   9
BRANCH   1  19
ATOM     19  C   UNL     1      35.332 -20.191 -20.918  0.00  0.00    -0.077 C 
BRANCH  19  20
ATOM     20  C   UNL     1      34.915 -20.503 -19.479  0.00  0.00    -0.015 C 
BRANCH  20  21
ATOM     21  C   UNL     1      33.466 -20.988 -19.387  0.00  0.00    +0.067 C 
BRANCH  21  23
ATOM     22  O   UNL     1      33.471 -23.400 -19.488  0.00  0.00    -0.291 OA
ATOM     23  C   UNL     1      33.332 -22.388 -18.804  0.00  0.00    +0.173 C 
BRANCH  23  25
ATOM     24  F   UNL     1      32.250 -22.920 -13.353  0.00  0.00    -0.204 F 
ATOM     25  C   UNL     1      33.043 -22.531 -17.349  0.00  0.00    +0.035 C 
ATOM     26  C   UNL     1      34.100 -22.608 -16.470  0.00  0.00    +0.005 C 
ATOM     27  C   UNL     1      31.730 -22.579 -16.937  0.00  0.00    +0.005 C 
ATOM     28  C   UNL     1      33.830 -22.741 -15.108  0.00  0.00    +0.030 C 
ATOM     29  C   UNL     1      31.460 -22.712 -15.576  0.00  0.00    +0.030 C 
ATOM     30  C   UNL     1      32.509 -22.793 -14.661  0.00  0.00    +0.140 C 
ENDBRANCH  23  25
ENDBRANCH  21  23
ENDBRANCH  20  21
ENDBRANCH  19  20
ENDBRANCH   1  19
TORSDOF 6
ENDMDL
MODEL 7
REMARK VINA RESULT:     -12.8      4.425     10.904
REMARK  Name = 16363
REMARK  6 active torsions:
REMARK  status: ('A' for Active; 'I' for Inactive)
REMARK    1  A    between atoms: N_1  and  C_19
REMARK    2  A    between atoms: C_2  and  N_9
REMARK    3  A    between atoms: C_19  and  C_20
REMARK    4  A    between atoms: C_20  and  C_21
REMARK    5  A    between atoms: C_21  and  C_23
REMARK    6  A    between atoms: C_23  and  C_25
REMARK                            x       y       z     vdW  Elec       q    Type
REMARK                         _______ _______ _______ _____ _____    ______ ____
ROOT
ATOM      1  N   UNL     1      33.205 -14.548 -23.510  0.00  0.00    +0.387 N 
ATOM      2  C   UNL     1      33.266 -11.638 -23.212  0.00  0.00    +0.086 C 
ATOM      3  C   UNL     1      32.539 -12.326 -24.367  0.00  0.00    -0.000 C 
ATOM      4  C   UNL     1      33.365 -12.584 -22.015  0.00  0.00    -0.000 C 
ATOM      5  C   UNL     1      33.172 -13.680 -24.695  0.00  0.00    -0.075 C 
ATOM      6  C   UNL     1      33.971 -13.930 -22.418  0.00  0.00    -0.075 C 
ATOM      7  H   UNL     1      32.246 -14.677 -23.187  0.00  0.00    -0.080 HD
ENDROOT
BRANCH   2   9
ATOM      8  O   UNL     1      30.630 -11.226 -21.805  0.00  0.00    -0.247 OA
ATOM      9  N   UNL     1      32.608 -10.410 -22.842  0.00  0.00    -0.282 N 
ATOM     10  N   UNL     1      31.110  -8.920 -22.022  0.00  0.00    -0.305 N 
ATOM     11  C   UNL     1      33.101  -9.120 -23.082  0.00  0.00    +0.079 A 
ATOM     12  C   UNL     1      31.356 -10.314 -22.176  0.00  0.00    +0.328 A 
ATOM     13  C   UNL     1      32.176  -8.210 -22.576  0.00  0.00    +0.076 A 
ATOM     14  C   UNL     1      34.265  -8.702 -23.692  0.00  0.00    +0.019 C 
ATOM     15  C   UNL     1      32.362  -6.848 -22.651  0.00  0.00    +0.019 C 
ATOM     16  C   UNL     1      34.478  -7.322 -23.781  0.00  0.00    +0.002 C 
ATOM     17  C   UNL     1      33.536  -6.405 -23.267  0.00  0.00    +0.002 C 
ATOM     18  H   UNL     1      30.317  -8.522 -21.595  0.00  0.00    +0.170 HD
ENDBRANCH   2   9
BRANCH   1  19
ATOM     19  C   UNL     1      33.765 -15.856 -23.850  0.00  0.00    -0.077 C 
BRANCH  19  20
ATOM     20  C   UNL     1      34.620 -16.381 -22.695  0.00  0.00    -0.015 C 
BRANCH  20  21
ATOM     21  C   UNL     1      34.624 -17.910 -22.623  0.00  0.00    +0.067 C 
BRANCH  21  23
ATOM     22  O   UNL     1      36.534 -18.042 -21.154  0.00  0.00    -0.291 OA
ATOM     23  C   UNL     1      35.414 -18.458 -21.443  0.00  0.00    +0.173 C 
BRANCH  23  25
ATOM     24  F   UNL     1      33.095 -22.444 -18.295  0.00  0.00    -0.204 F 
ATOM     25  C   UNL     1      34.795 -19.522 -20.602  0.00  0.00    +0.035 C 
ATOM     26  C   UNL     1      33.424 -19.652 -20.605  0.00  0.00    +0.005 C 
ATOM     27  C   UNL     1      35.617 -20.336 -19.855  0.00  0.00    +0.005 C 
ATOM     28  C   UNL     1      32.845 -20.647 -19.819  0.00  0.00    +0.030 C 
ATOM     29  C   UNL     1      35.037 -21.331 -19.069  0.00  0.00    +0.030 C 
ATOM     30  C   UNL     1      33.652 -21.488 -19.050  0.00  0.00    +0.140 C 
ENDBRANCH  23  25
ENDBRANCH  21  23
ENDBRANCH  20  21
ENDBRANCH  19  20
ENDBRANCH   1  19
TORSDOF 6
ENDMDL
MODEL 8
REMARK VINA RESULT:     -12.7      5.707     12.472
REMARK  Name = 16363
REMARK  6 active torsions:
REMARK  status: ('A' for Active; 'I' for Inactive)
REMARK    1  A    between atoms: N_1  and  C_19
REMARK    2  A    between atoms: C_2  and  N_9
REMARK    3  A    between atoms: C_19  and  C_20
REMARK    4  A    between atoms: C_20  and  C_21
REMARK    5  A    between atoms: C_21  and  C_23
REMARK    6  A    between atoms: C_23  and  C_25
REMARK                            x       y       z     vdW  Elec       q    Type
REMARK                         _______ _______ _______ _____ _____    ______ ____
ROOT
ATOM      1  N   UNL     1      32.016 -11.496 -22.028  0.00  0.00    +0.387 N 
ATOM      2  C   UNL     1      31.235  -8.677 -22.077  0.00  0.00    +0.086 C 
ATOM      3  C   UNL     1      30.887  -9.601 -20.910  0.00  0.00    -0.000 C 
ATOM      4  C   UNL     1      32.475  -9.193 -22.806  0.00  0.00    -0.000 C 
ATOM      5  C   UNL     1      30.779 -11.057 -21.367  0.00  0.00    -0.075 C 
ATOM      6  C   UNL     1      32.317 -10.663 -23.201  0.00  0.00    -0.075 C 
ATOM      7  H   UNL     1      32.783 -11.392 -21.364  0.00  0.00    -0.080 HD
ENDROOT
BRANCH   2   9
ATOM      8  O   UNL     1      32.248  -7.670 -19.421  0.00  0.00    -0.247 OA
ATOM      9  N   UNL     1      31.431  -7.322 -21.627  0.00  0.00    -0.282 N 
ATOM     10  N   UNL     1      31.943  -5.518 -20.354  0.00  0.00    -0.305 N 
ATOM     11  C   UNL     1      31.174  -6.170 -22.381  0.00  0.00    +0.079 A 
ATOM     12  C   UNL     1      31.918  -6.942 -20.346  0.00  0.00    +0.328 A 
ATOM     13  C   UNL     1      31.491  -5.066 -21.593  0.00  0.00    +0.076 A 
ATOM     14  C   UNL     1      30.697  -6.024 -23.667  0.00  0.00    +0.019 C 
ATOM     15  C   UNL     1      31.350  -3.771 -22.043  0.00  0.00    +0.019 C 
ATOM     16  C   UNL     1      30.545  -4.720 -24.147  0.00  0.00    +0.002 C 
ATOM     17  C   UNL     1      30.867  -3.605 -23.344  0.00  0.00    +0.002 C 
ATOM     18  H   UNL     1      32.234  -4.947 -19.606  0.00  0.00    +0.170 HD
ENDBRANCH   2   9
BRANCH   1  19
ATOM     19  C   UNL     1      31.918 -12.904 -22.413  0.00  0.00    -0.077 C 
BRANCH  19  20
ATOM     20  C   UNL     1      32.835 -13.192 -23.604  0.00  0.00    -0.015 C 
BRANCH  20  21
ATOM     21  C   UNL     1      34.032 -14.064 -23.218  0.00  0.00    +0.067 C 
BRANCH  21  23
ATOM     22  O   UNL     1      33.929 -15.487 -25.164  0.00  0.00    -0.291 OA
ATOM     23  C   UNL     1      34.067 -15.400 -23.946  0.00  0.00    +0.173 C 
BRANCH  23  25
ATOM     24  F   UNL     1      34.919 -20.046 -20.969  0.00  0.00    -0.204 F 
ATOM     25  C   UNL     1      34.295 -16.641 -23.152  0.00  0.00    +0.035 C 
ATOM     26  C   UNL     1      34.815 -16.525 -21.882  0.00  0.00    +0.005 C 
ATOM     27  C   UNL     1      33.976 -17.855 -23.716  0.00  0.00    +0.005 C 
ATOM     28  C   UNL     1      35.028 -17.685 -21.138  0.00  0.00    +0.030 C 
ATOM     29  C   UNL     1      34.189 -19.015 -22.972  0.00  0.00    +0.030 C 
ATOM     30  C   UNL     1      34.714 -18.931 -21.683  0.00  0.00    +0.140 C 
ENDBRANCH  23  25
ENDBRANCH  21  23
ENDBRANCH  20  21
ENDBRANCH  19  20
ENDBRANCH   1  19
TORSDOF 6
ENDMDL
MODEL 9
REMARK VINA RESULT:     -12.6      3.948      9.518
REMARK  Name = 16363
REMARK  6 active torsions:
REMARK  status: ('A' for Active; 'I' for Inactive)
REMARK    1  A    between atoms: N_1  and  C_19
REMARK    2  A    between atoms: C_2  and  N_9
REMARK    3  A    between atoms: C_19  and  C_20
REMARK    4  A    between atoms: C_20  and  C_21
REMARK    5  A    between atoms: C_21  and  C_23
REMARK    6  A    between atoms: C_23  and  C_25
REMARK                            x       y       z     vdW  Elec       q    Type
REMARK                         _______ _______ _______ _____ _____    ______ ____
ROOT
ATOM      1  N   UNL     1      35.135 -20.536 -20.195  0.00  0.00    +0.387 N 
ATOM      2  C   UNL     1      34.513 -17.825 -21.104  0.00  0.00    +0.086 C 
ATOM      3  C   UNL     1      35.941 -18.371 -21.078  0.00  0.00    -0.000 C 
ATOM      4  C   UNL     1      33.512 -18.975 -21.219  0.00  0.00    -0.000 C 
ATOM      5  C   UNL     1      36.105 -19.448 -20.005  0.00  0.00    -0.075 C 
ATOM      6  C   UNL     1      33.755 -20.034 -20.141  0.00  0.00    -0.075 C 
ATOM      7  H   UNL     1      35.288 -20.935 -21.121  0.00  0.00    -0.080 HD
ENDROOT
BRANCH   2   9
ATOM      8  O   UNL     1      34.532 -18.293 -24.084  0.00  0.00    -0.247 OA
ATOM      9  N   UNL     1      34.336 -16.882 -22.179  0.00  0.00    -0.282 N 
ATOM     10  N   UNL     1      34.145 -15.965 -24.243  0.00  0.00    -0.305 N 
ATOM     11  C   UNL     1      34.111 -15.508 -22.026  0.00  0.00    +0.079 A 
ATOM     12  C   UNL     1      34.361 -17.199 -23.565  0.00  0.00    +0.328 A 
ATOM     13  C   UNL     1      33.995 -14.951 -23.298  0.00  0.00    +0.076 A 
ATOM     14  C   UNL     1      34.005 -14.735 -20.888  0.00  0.00    +0.019 C 
ATOM     15  C   UNL     1      33.769 -13.607 -23.498  0.00  0.00    +0.019 C 
ATOM     16  C   UNL     1      33.775 -13.367 -21.065  0.00  0.00    +0.002 C 
ATOM     17  C   UNL     1      33.659 -12.809 -22.356  0.00  0.00    +0.002 C 
ATOM     18  H   UNL     1      34.107 -15.848 -25.220  0.00  0.00    +0.170 HD
ENDBRANCH   2   9
BRANCH   1  19
ATOM     19  C   UNL     1      35.338 -21.582 -19.193  0.00  0.00    -0.077 C 
BRANCH  19  20
ATOM     20  C   UNL     1      34.031 -22.339 -18.948  0.00  0.00    -0.015 C 
BRANCH  20  21
ATOM     21  C   UNL     1      33.660 -22.393 -17.464  0.00  0.00    +0.067 C 
BRANCH  21  23
ATOM     22  O   UNL     1      31.419 -21.694 -18.025  0.00  0.00    -0.291 OA
ATOM     23  C   UNL     1      32.169 -22.222 -17.207  0.00  0.00    +0.173 C 
BRANCH  23  25
ATOM     24  F   UNL     1      30.043 -24.133 -12.411  0.00  0.00    -0.204 F 
ATOM     25  C   UNL     1      31.602 -22.732 -15.926  0.00  0.00    +0.035 C 
ATOM     26  C   UNL     1      30.245 -22.629 -15.718  0.00  0.00    +0.005 C 
ATOM     27  C   UNL     1      32.456 -23.286 -14.999  0.00  0.00    +0.005 C 
ATOM     28  C   UNL     1      29.713 -23.107 -14.521  0.00  0.00    +0.030 C 
ATOM     29  C   UNL     1      31.924 -23.764 -13.801  0.00  0.00    +0.030 C 
ATOM     30  C   UNL     1      30.554 -23.674 -13.562  0.00  0.00    +0.140 C 
ENDBRANCH  23  25
ENDBRANCH  21  23
ENDBRANCH  20  21
ENDBRANCH  19  20
ENDBRANCH   1  19
TORSDOF 6
ENDMDL
