MODEL 1
REMARK VINA RESULT:     -10.6      0.000      0.000
REMARK  Name = 74077203
REMARK  4 active torsions:
REMARK  status: ('A' for Active; 'I' for Inactive)
REMARK    1  A    between atoms: C_15  and  O_17
REMARK    2  A    between atoms: O_17  and  C_20
REMARK    3  A    between atoms: N_19  and  C_22
REMARK    4  A    between atoms: C_23  and  C_28
REMARK                            x       y       z     vdW  Elec       q    Type
REMARK                         _______ _______ _______ _____ _____    ______ ____
ROOT
ATOM      1  O   UNL     1      36.781 -22.050 -12.940  0.00  0.00    -0.287 OA
ATOM      2  N   UNL     1      37.204 -23.354 -12.903  0.00  0.00    +0.441 N 
ATOM      3  N   UNL     1      34.759 -23.860 -12.616  0.00  0.00    -0.321 N 
ATOM      4  C   UNL     1      35.940 -24.578 -14.619  0.00  0.00    +0.023 C 
ATOM      5  C   UNL     1      36.057 -24.345 -13.075  0.00  0.00    +0.067 C 
ATOM      6  C   UNL     1      37.112 -23.807 -15.240  0.00  0.00    -0.013 C 
ATOM      7  C   UNL     1      38.084 -23.624 -14.092  0.00  0.00    -0.025 C 
ATOM      8  C   UNL     1      34.596 -23.966 -14.915  0.00  0.00    -0.007 C 
ATOM      9  C   UNL     1      33.974 -23.583 -13.719  0.00  0.00    +0.042 C 
ATOM     10  C   UNL     1      35.973 -26.067 -14.969  0.00  0.00    +0.004 C 
ATOM     11  C   UNL     1      37.959 -23.579 -11.627  0.00  0.00    -0.043 C 
ATOM     12  C   UNL     1      34.413 -23.598 -11.247  0.00  0.00    +0.110 C 
ATOM     13  C   UNL     1      33.984 -23.781 -16.148  0.00  0.00    +0.035 C 
ATOM     14  C   UNL     1      32.712 -23.006 -13.754  0.00  0.00    +0.017 C 
ATOM     15  C   UNL     1      32.719 -23.199 -16.179  0.00  0.00    +0.150 C 
ATOM     16  C   UNL     1      32.087 -22.814 -14.989  0.00  0.00    +0.039 C 
ENDROOT
BRANCH  15  17
ATOM     17  O   UNL     1      32.092 -23.001 -17.371  0.00  0.00    -0.410 OA
BRANCH  17  20
ATOM     18  O   UNL     1      33.387 -23.542 -19.213  0.00  0.00    -0.226 OA
ATOM     19  N   UNL     1      33.159 -21.324 -18.498  0.00  0.00    -0.250 N 
ATOM     20  C   UNL     1      32.940 -22.688 -18.455  0.00  0.00    +0.410 C 
ATOM     21  H   UNL     1      32.713 -20.793 -17.799  0.00  0.00    +0.158 HD
BRANCH  19  22
ATOM     22  C   UNL     1      33.945 -20.597 -19.420  0.00  0.00    +0.049 C 
ATOM     23  C   UNL     1      35.337 -20.595 -19.330  0.00  0.00    -0.009 C 
ATOM     24  C   UNL     1      33.311 -19.874 -20.431  0.00  0.00    +0.014 C 
ATOM     25  C   UNL     1      36.094 -19.871 -20.250  0.00  0.00    -0.003 C 
ATOM     26  C   UNL     1      34.068 -19.149 -21.351  0.00  0.00    +0.001 C 
ATOM     27  C   UNL     1      35.460 -19.148 -21.261  0.00  0.00    -0.000 C 
BRANCH  23  28
ATOM     28  C   UNL     1      36.044 -21.360 -18.258  0.00  0.00    +0.028 C 
ATOM     29  C   UNL     1      36.740 -20.443 -17.257  0.00  0.00    +0.005 C 
ENDBRANCH  23  28
ENDBRANCH  19  22
ENDBRANCH  17  20
ENDBRANCH  15  17
TORSDOF 4
ENDMDL
MODEL 2
REMARK VINA RESULT:     -10.5     11.723     16.243
REMARK  Name = 74077203
REMARK  4 active torsions:
REMARK  status: ('A' for Active; 'I' for Inactive)
REMARK    1  A    between atoms: C_15  and  O_17
REMARK    2  A    between atoms: O_17  and  C_20
REMARK    3  A    between atoms: N_19  and  C_22
REMARK    4  A    between atoms: C_23  and  C_28
REMARK                            x       y       z     vdW  Elec       q    Type
REMARK                         _______ _______ _______ _____ _____    ______ ____
ROOT
ATOM      1  O   UNL     1      29.694  -4.750 -22.292  0.00  0.00    -0.287 OA
ATOM      2  N   UNL     1      30.853  -4.177 -22.749  0.00  0.00    +0.441 N 
ATOM      3  N   UNL     1      31.963  -5.869 -21.258  0.00  0.00    -0.321 N 
ATOM      4  C   UNL     1      32.242  -5.983 -23.673  0.00  0.00    +0.023 C 
ATOM      5  C   UNL     1      32.084  -5.026 -22.443  0.00  0.00    +0.067 C 
ATOM      6  C   UNL     1      31.168  -5.541 -24.676  0.00  0.00    -0.013 C 
ATOM      7  C   UNL     1      30.823  -4.128 -24.251  0.00  0.00    -0.025 C 
ATOM      8  C   UNL     1      31.963  -7.324 -23.048  0.00  0.00    -0.007 C 
ATOM      9  C   UNL     1      31.820  -7.182 -21.661  0.00  0.00    +0.042 C 
ATOM     10  C   UNL     1      33.651  -5.915 -24.262  0.00  0.00    +0.004 C 
ATOM     11  C   UNL     1      30.963  -2.795 -22.179  0.00  0.00    -0.043 C 
ATOM     12  C   UNL     1      31.881  -5.386 -19.907  0.00  0.00    +0.110 C 
ATOM     13  C   UNL     1      31.859  -8.561 -23.670  0.00  0.00    +0.035 C 
ATOM     14  C   UNL     1      31.572  -8.300 -20.878  0.00  0.00    +0.017 C 
ATOM     15  C   UNL     1      31.605  -9.681 -22.880  0.00  0.00    +0.150 C 
ATOM     16  C   UNL     1      31.463  -9.551 -21.493  0.00  0.00    +0.039 C 
ENDROOT
BRANCH  15  17
ATOM     17  O   UNL     1      31.495 -10.908 -23.459  0.00  0.00    -0.410 OA
BRANCH  17  20
ATOM     18  O   UNL     1      33.783 -11.258 -23.414  0.00  0.00    -0.226 OA
ATOM     19  N   UNL     1      32.279 -13.046 -23.265  0.00  0.00    -0.250 N 
ATOM     20  C   UNL     1      32.648 -11.719 -23.380  0.00  0.00    +0.410 C 
ATOM     21  H   UNL     1      31.311 -13.226 -23.255  0.00  0.00    +0.158 HD
BRANCH  19  22
ATOM     22  C   UNL     1      33.120 -14.177 -23.160  0.00  0.00    +0.049 C 
ATOM     23  C   UNL     1      33.737 -14.501 -21.951  0.00  0.00    -0.009 C 
ATOM     24  C   UNL     1      33.330 -14.974 -24.285  0.00  0.00    +0.014 C 
ATOM     25  C   UNL     1      34.562 -15.621 -21.868  0.00  0.00    -0.003 C 
ATOM     26  C   UNL     1      34.156 -16.095 -24.202  0.00  0.00    +0.001 C 
ATOM     27  C   UNL     1      34.772 -16.419 -22.993  0.00  0.00    -0.000 C 
BRANCH  23  28
ATOM     28  C   UNL     1      33.531 -13.665 -20.729  0.00  0.00    +0.028 C 
ATOM     29  C   UNL     1      32.104 -13.762 -20.197  0.00  0.00    +0.005 C 
ENDBRANCH  23  28
ENDBRANCH  19  22
ENDBRANCH  17  20
ENDBRANCH  15  17
TORSDOF 4
ENDMDL
MODEL 3
REMARK VINA RESULT:      -9.9     11.644     16.117
REMARK  Name = 74077203
REMARK  4 active torsions:
REMARK  status: ('A' for Active; 'I' for Inactive)
REMARK    1  A    between atoms: C_15  and  O_17
REMARK    2  A    between atoms: O_17  and  C_20
REMARK    3  A    between atoms: N_19  and  C_22
REMARK    4  A    between atoms: C_23  and  C_28
REMARK                            x       y       z     vdW  Elec       q    Type
REMARK                         _______ _______ _______ _____ _____    ______ ____
ROOT
ATOM      1  O   UNL     1      29.691  -4.582 -22.203  0.00  0.00    -0.287 OA
ATOM      2  N   UNL     1      30.835  -4.431 -22.945  0.00  0.00    +0.441 N 
ATOM      3  N   UNL     1      31.927  -5.602 -21.007  0.00  0.00    -0.321 N 
ATOM      4  C   UNL     1      31.838  -6.662 -23.196  0.00  0.00    +0.023 C 
ATOM      5  C   UNL     1      31.980  -5.301 -22.434  0.00  0.00    +0.067 C 
ATOM      6  C   UNL     1      30.695  -6.452 -24.197  0.00  0.00    -0.013 C 
ATOM      7  C   UNL     1      30.594  -4.946 -24.336  0.00  0.00    -0.025 C 
ATOM      8  C   UNL     1      31.485  -7.600 -22.072  0.00  0.00    -0.007 C 
ATOM      9  C   UNL     1      31.564  -6.925 -20.847  0.00  0.00    +0.042 C 
ATOM     10  C   UNL     1      33.144  -7.064 -23.881  0.00  0.00    +0.004 C 
ATOM     11  C   UNL     1      31.199  -2.978 -22.976  0.00  0.00    -0.043 C 
ATOM     12  C   UNL     1      32.102  -4.641 -19.954  0.00  0.00    +0.110 C 
ATOM     13  C   UNL     1      31.137  -8.942 -22.146  0.00  0.00    +0.035 C 
ATOM     14  C   UNL     1      31.292  -7.606 -19.668  0.00  0.00    +0.017 C 
ATOM     15  C   UNL     1      30.862  -9.621 -20.960  0.00  0.00    +0.150 C 
ATOM     16  C   UNL     1      30.939  -8.957 -19.730  0.00  0.00    +0.039 C 
ENDROOT
BRANCH  15  17
ATOM     17  O   UNL     1      30.516 -10.938 -20.997  0.00  0.00    -0.410 OA
BRANCH  17  20
ATOM     18  O   UNL     1      32.181 -11.934 -19.735  0.00  0.00    -0.226 OA
ATOM     19  N   UNL     1      31.793 -12.574 -21.953  0.00  0.00    -0.250 N 
ATOM     20  C   UNL     1      31.577 -11.847 -20.798  0.00  0.00    +0.410 C 
ATOM     21  H   UNL     1      31.203 -12.363 -22.713  0.00  0.00    +0.158 HD
BRANCH  19  22
ATOM     22  C   UNL     1      32.756 -13.584 -22.179  0.00  0.00    +0.049 C 
ATOM     23  C   UNL     1      33.215 -13.860 -23.468  0.00  0.00    -0.009 C 
ATOM     24  C   UNL     1      33.247 -14.309 -21.094  0.00  0.00    +0.014 C 
ATOM     25  C   UNL     1      34.165 -14.859 -23.670  0.00  0.00    -0.003 C 
ATOM     26  C   UNL     1      34.198 -15.310 -21.296  0.00  0.00    +0.001 C 
ATOM     27  C   UNL     1      34.656 -15.585 -22.584  0.00  0.00    -0.000 C 
BRANCH  23  28
ATOM     28  C   UNL     1      32.706 -13.099 -24.649  0.00  0.00    +0.028 C 
ATOM     29  C   UNL     1      33.028 -13.796 -25.968  0.00  0.00    +0.005 C 
ENDBRANCH  23  28
ENDBRANCH  19  22
ENDBRANCH  17  20
ENDBRANCH  15  17
TORSDOF 4
ENDMDL
MODEL 4
REMARK VINA RESULT:      -9.6      1.747      2.884
REMARK  Name = 74077203
REMARK  4 active torsions:
REMARK  status: ('A' for Active; 'I' for Inactive)
REMARK    1  A    between atoms: C_15  and  O_17
REMARK    2  A    between atoms: O_17  and  C_20
REMARK    3  A    between atoms: N_19  and  C_22
REMARK    4  A    between atoms: C_23  and  C_28
REMARK                            x       y       z     vdW  Elec       q    Type
REMARK                         _______ _______ _______ _____ _____    ______ ____
ROOT
ATOM      1  O   UNL     1      35.433 -22.638 -11.412  0.00  0.00    -0.287 OA
ATOM      2  N   UNL     1      35.893 -23.928 -11.474  0.00  0.00    +0.441 N 
ATOM      3  N   UNL     1      34.473 -24.053 -13.543  0.00  0.00    -0.321 N 
ATOM      4  C   UNL     1      36.895 -24.238 -13.697  0.00  0.00    +0.023 C 
ATOM      5  C   UNL     1      35.634 -24.576 -12.831  0.00  0.00    +0.067 C 
ATOM      6  C   UNL     1      37.865 -23.524 -12.747  0.00  0.00    -0.013 C 
ATOM      7  C   UNL     1      37.393 -23.926 -11.364  0.00  0.00    -0.025 C 
ATOM      8  C   UNL     1      36.305 -23.330 -14.745  0.00  0.00    -0.007 C 
ATOM      9  C   UNL     1      34.912 -23.277 -14.599  0.00  0.00    +0.042 C 
ATOM     10  C   UNL     1      37.506 -25.495 -14.318  0.00  0.00    +0.004 C 
ATOM     11  C   UNL     1      35.284 -24.710 -10.349  0.00  0.00    -0.043 C 
ATOM     12  C   UNL     1      33.107 -24.221 -13.131  0.00  0.00    +0.110 C 
ATOM     13  C   UNL     1      36.962 -22.625 -15.744  0.00  0.00    +0.035 C 
ATOM     14  C   UNL     1      34.158 -22.507 -15.472  0.00  0.00    +0.017 C 
ATOM     15  C   UNL     1      36.201 -21.850 -16.618  0.00  0.00    +0.150 C 
ATOM     16  C   UNL     1      34.808 -21.791 -16.483  0.00  0.00    +0.039 C 
ENDROOT
BRANCH  15  17
ATOM     17  O   UNL     1      36.814 -21.145 -17.608  0.00  0.00    -0.410 OA
BRANCH  17  20
ATOM     18  O   UNL     1      35.566 -22.052 -19.334  0.00  0.00    -0.226 OA
ATOM     19  N   UNL     1      36.133 -19.781 -19.310  0.00  0.00    -0.250 N 
ATOM     20  C   UNL     1      36.106 -21.075 -18.827  0.00  0.00    +0.410 C 
ATOM     21  H   UNL     1      36.620 -19.125 -18.760  0.00  0.00    +0.158 HD
BRANCH  19  22
ATOM     22  C   UNL     1      35.549 -19.282 -20.497  0.00  0.00    +0.049 C 
ATOM     23  C   UNL     1      34.213 -19.542 -20.802  0.00  0.00    -0.009 C 
ATOM     24  C   UNL     1      36.327 -18.520 -21.368  0.00  0.00    +0.014 C 
ATOM     25  C   UNL     1      33.655 -19.040 -21.977  0.00  0.00    -0.003 C 
ATOM     26  C   UNL     1      35.770 -18.018 -22.544  0.00  0.00    +0.001 C 
ATOM     27  C   UNL     1      34.434 -18.278 -22.849  0.00  0.00    -0.000 C 
BRANCH  23  28
ATOM     28  C   UNL     1      33.355 -20.355 -19.887  0.00  0.00    +0.028 C 
ATOM     29  C   UNL     1      31.867 -20.144 -20.150  0.00  0.00    +0.005 C 
ENDBRANCH  23  28
ENDBRANCH  19  22
ENDBRANCH  17  20
ENDBRANCH  15  17
TORSDOF 4
ENDMDL
MODEL 5
REMARK VINA RESULT:      -9.4     11.466     16.040
REMARK  Name = 74077203
REMARK  4 active torsions:
REMARK  status: ('A' for Active; 'I' for Inactive)
REMARK    1  A    between atoms: C_15  and  O_17
REMARK    2  A    between atoms: O_17  and  C_20
REMARK    3  A    between atoms: N_19  and  C_22
REMARK    4  A    between atoms: C_23  and  C_28
REMARK                            x       y       z     vdW  Elec       q    Type
REMARK                         _______ _______ _______ _____ _____    ______ ____
ROOT
ATOM      1  O   UNL     1      30.262  -4.907 -23.455  0.00  0.00    -0.287 OA
ATOM      2  N   UNL     1      31.480  -4.345 -23.169  0.00  0.00    +0.441 N 
ATOM      3  N   UNL     1      31.555  -6.082 -21.355  0.00  0.00    -0.321 N 
ATOM      4  C   UNL     1      33.141  -6.157 -23.199  0.00  0.00    +0.023 C 
ATOM      5  C   UNL     1      32.324  -5.220 -22.246  0.00  0.00    +0.067 C 
ATOM      6  C   UNL     1      32.817  -5.679 -24.620  0.00  0.00    -0.013 C 
ATOM      7  C   UNL     1      32.298  -4.268 -24.428  0.00  0.00    -0.025 C 
ATOM      8  C   UNL     1      32.554  -7.505 -22.872  0.00  0.00    -0.007 C 
ATOM      9  C   UNL     1      31.658  -7.386 -21.800  0.00  0.00    +0.042 C 
ATOM     10  C   UNL     1      34.639  -6.103 -22.894  0.00  0.00    +0.004 C 
ATOM     11  C   UNL     1      31.256  -2.976 -22.601  0.00  0.00    -0.043 C 
ATOM     12  C   UNL     1      30.731  -5.624 -20.271  0.00  0.00    +0.110 C 
ATOM     13  C   UNL     1      32.812  -8.728 -23.476  0.00  0.00    +0.035 C 
ATOM     14  C   UNL     1      31.008  -8.514 -21.319  0.00  0.00    +0.017 C 
ATOM     15  C   UNL     1      32.155  -9.858 -22.992  0.00  0.00    +0.150 C 
ATOM     16  C   UNL     1      31.259  -9.751 -21.920  0.00  0.00    +0.039 C 
ENDROOT
BRANCH  15  17
ATOM     17  O   UNL     1      32.384 -11.072 -23.563  0.00  0.00    -0.410 OA
BRANCH  17  20
ATOM     18  O   UNL     1      31.455 -12.351 -21.871  0.00  0.00    -0.226 OA
ATOM     19  N   UNL     1      33.483 -12.953 -22.875  0.00  0.00    -0.250 N 
ATOM     20  C   UNL     1      32.362 -12.170 -22.676  0.00  0.00    +0.410 C 
ATOM     21  H   UNL     1      34.106 -12.647 -23.573  0.00  0.00    +0.158 HD
BRANCH  19  22
ATOM     22  C   UNL     1      33.846 -14.141 -22.199  0.00  0.00    +0.049 C 
ATOM     23  C   UNL     1      34.308 -15.253 -22.903  0.00  0.00    -0.009 C 
ATOM     24  C   UNL     1      33.738 -14.191 -20.809  0.00  0.00    +0.014 C 
ATOM     25  C   UNL     1      34.662 -16.414 -22.218  0.00  0.00    -0.003 C 
ATOM     26  C   UNL     1      34.092 -15.353 -20.123  0.00  0.00    +0.001 C 
ATOM     27  C   UNL     1      34.554 -16.465 -20.828  0.00  0.00    -0.000 C 
BRANCH  23  28
ATOM     28  C   UNL     1      34.434 -15.227 -24.393  0.00  0.00    +0.028 C 
ATOM     29  C   UNL     1      33.075 -15.199 -25.087  0.00  0.00    +0.005 C 
ENDBRANCH  23  28
ENDBRANCH  19  22
ENDBRANCH  17  20
ENDBRANCH  15  17
TORSDOF 4
ENDMDL
MODEL 6
REMARK VINA RESULT:      -9.3     11.436     15.889
REMARK  Name = 74077203
REMARK  4 active torsions:
REMARK  status: ('A' for Active; 'I' for Inactive)
REMARK    1  A    between atoms: C_15  and  O_17
REMARK    2  A    between atoms: O_17  and  C_20
REMARK    3  A    between atoms: N_19  and  C_22
REMARK    4  A    between atoms: C_23  and  C_28
REMARK                            x       y       z     vdW  Elec       q    Type
REMARK                         _______ _______ _______ _____ _____    ______ ____
ROOT
ATOM      1  O   UNL     1      29.762  -5.382 -23.074  0.00  0.00    -0.287 OA
ATOM      2  N   UNL     1      30.970  -5.121 -23.670  0.00  0.00    +0.441 N 
ATOM      3  N   UNL     1      31.897  -5.570 -21.378  0.00  0.00    -0.321 N 
ATOM      4  C   UNL     1      32.429  -7.051 -23.234  0.00  0.00    +0.023 C 
ATOM      5  C   UNL     1      32.152  -5.567 -22.814  0.00  0.00    +0.067 C 
ATOM      6  C   UNL     1      31.472  -7.331 -24.400  0.00  0.00    -0.013 C 
ATOM      7  C   UNL     1      31.099  -5.955 -24.914  0.00  0.00    -0.025 C 
ATOM      8  C   UNL     1      32.071  -7.792 -21.973  0.00  0.00    -0.007 C 
ATOM      9  C   UNL     1      31.783  -6.879 -20.950  0.00  0.00    +0.042 C 
ATOM     10  C   UNL     1      33.893  -7.264 -23.619  0.00  0.00    +0.004 C 
ATOM     11  C   UNL     1      31.034  -3.662 -24.005  0.00  0.00    -0.043 C 
ATOM     12  C   UNL     1      31.677  -4.398 -20.576  0.00  0.00    +0.110 C 
ATOM     13  C   UNL     1      32.019  -9.163 -21.764  0.00  0.00    +0.035 C 
ATOM     14  C   UNL     1      31.441  -7.345 -19.688  0.00  0.00    +0.017 C 
ATOM     15  C   UNL     1      31.671  -9.628 -20.496  0.00  0.00    +0.150 C 
ATOM     16  C   UNL     1      31.384  -8.724 -19.465  0.00  0.00    +0.039 C 
ENDROOT
BRANCH  15  17
ATOM     17  O   UNL     1      31.609 -10.967 -20.258  0.00  0.00    -0.410 OA
BRANCH  17  20
ATOM     18  O   UNL     1      30.415 -11.888 -22.014  0.00  0.00    -0.226 OA
ATOM     19  N   UNL     1      32.679 -12.388 -21.692  0.00  0.00    -0.250 N 
ATOM     20  C   UNL     1      31.473 -11.779 -21.404  0.00  0.00    +0.410 C 
ATOM     21  H   UNL     1      33.425 -12.178 -21.084  0.00  0.00    +0.158 HD
BRANCH  19  22
ATOM     22  C   UNL     1      32.976 -13.276 -22.751  0.00  0.00    +0.049 C 
ATOM     23  C   UNL     1      33.568 -14.514 -22.502  0.00  0.00    -0.009 C 
ATOM     24  C   UNL     1      32.669 -12.900 -24.059  0.00  0.00    +0.014 C 
ATOM     25  C   UNL     1      33.852 -15.376 -23.561  0.00  0.00    -0.003 C 
ATOM     26  C   UNL     1      32.954 -13.761 -25.118  0.00  0.00    +0.001 C 
ATOM     27  C   UNL     1      33.546 -15.000 -24.869  0.00  0.00    -0.000 C 
BRANCH  23  28
ATOM     28  C   UNL     1      33.908 -14.944 -21.112  0.00  0.00    +0.028 C 
ATOM     29  C   UNL     1      34.619 -16.293 -21.081  0.00  0.00    +0.005 C 
ENDBRANCH  23  28
ENDBRANCH  19  22
ENDBRANCH  17  20
ENDBRANCH  15  17
TORSDOF 4
ENDMDL
MODEL 7
REMARK VINA RESULT:      -9.3      2.329      4.249
REMARK  Name = 74077203
REMARK  4 active torsions:
REMARK  status: ('A' for Active; 'I' for Inactive)
REMARK    1  A    between atoms: C_15  and  O_17
REMARK    2  A    between atoms: O_17  and  C_20
REMARK    3  A    between atoms: N_19  and  C_22
REMARK    4  A    between atoms: C_23  and  C_28
REMARK                            x       y       z     vdW  Elec       q    Type
REMARK                         _______ _______ _______ _____ _____    ______ ____
ROOT
ATOM      1  O   UNL     1      36.120 -24.863 -15.026  0.00  0.00    -0.287 OA
ATOM      2  N   UNL     1      35.179 -24.382 -14.153  0.00  0.00    +0.441 N 
ATOM      3  N   UNL     1      35.921 -22.137 -15.006  0.00  0.00    -0.321 N 
ATOM      4  C   UNL     1      33.664 -22.936 -15.441  0.00  0.00    +0.023 C 
ATOM      5  C   UNL     1      34.841 -22.915 -14.408  0.00  0.00    +0.067 C 
ATOM      6  C   UNL     1      33.305 -24.416 -15.623  0.00  0.00    -0.013 C 
ATOM      7  C   UNL     1      33.874 -25.090 -14.390  0.00  0.00    -0.025 C 
ATOM      8  C   UNL     1      34.316 -22.324 -16.653  0.00  0.00    -0.007 C 
ATOM      9  C   UNL     1      35.606 -21.883 -16.327  0.00  0.00    +0.042 C 
ATOM     10  C   UNL     1      32.476 -22.104 -14.958  0.00  0.00    +0.004 C 
ATOM     11  C   UNL     1      35.658 -24.616 -12.752  0.00  0.00    -0.043 C 
ATOM     12  C   UNL     1      37.158 -21.806 -14.355  0.00  0.00    +0.110 C 
ATOM     13  C   UNL     1      33.792 -22.169 -17.929  0.00  0.00    +0.035 C 
ATOM     14  C   UNL     1      36.388 -21.270 -17.296  0.00  0.00    +0.017 C 
ATOM     15  C   UNL     1      34.582 -21.555 -18.900  0.00  0.00    +0.150 C 
ATOM     16  C   UNL     1      35.871 -21.109 -18.585  0.00  0.00    +0.039 C 
ENDROOT
BRANCH  15  17
ATOM     17  O   UNL     1      34.098 -21.389 -20.162  0.00  0.00    -0.410 OA
BRANCH  17  20
ATOM     18  O   UNL     1      32.550 -19.671 -20.056  0.00  0.00    -0.226 OA
ATOM     19  N   UNL     1      34.550 -19.431 -21.250  0.00  0.00    -0.250 N 
ATOM     20  C   UNL     1      33.627 -20.093 -20.462  0.00  0.00    +0.410 C 
ATOM     21  H   UNL     1      35.364 -19.936 -21.477  0.00  0.00    +0.158 HD
BRANCH  19  22
ATOM     22  C   UNL     1      34.469 -18.120 -21.770  0.00  0.00    +0.049 C 
ATOM     23  C   UNL     1      34.187 -17.900 -23.118  0.00  0.00    -0.009 C 
ATOM     24  C   UNL     1      34.677 -17.037 -20.916  0.00  0.00    +0.014 C 
ATOM     25  C   UNL     1      34.112 -16.598 -23.612  0.00  0.00    -0.003 C 
ATOM     26  C   UNL     1      34.602 -15.734 -21.409  0.00  0.00    +0.001 C 
ATOM     27  C   UNL     1      34.319 -15.515 -22.758  0.00  0.00    -0.000 C 
BRANCH  23  28
ATOM     28  C   UNL     1      33.961 -19.041 -24.057  0.00  0.00    +0.028 C 
ATOM     29  C   UNL     1      32.649 -18.907 -24.824  0.00  0.00    +0.005 C 
ENDBRANCH  23  28
ENDBRANCH  19  22
ENDBRANCH  17  20
ENDBRANCH  15  17
TORSDOF 4
ENDMDL
MODEL 8
REMARK VINA RESULT:      -9.2     10.876     15.511
REMARK  Name = 74077203
REMARK  4 active torsions:
REMARK  status: ('A' for Active; 'I' for Inactive)
REMARK    1  A    between atoms: C_15  and  O_17
REMARK    2  A    between atoms: O_17  and  C_20
REMARK    3  A    between atoms: N_19  and  C_22
REMARK    4  A    between atoms: C_23  and  C_28
REMARK                            x       y       z     vdW  Elec       q    Type
REMARK                         _______ _______ _______ _____ _____    ______ ____
ROOT
ATOM      1  O   UNL     1      32.982  -6.979 -24.552  0.00  0.00    -0.287 OA
ATOM      2  N   UNL     1      32.654  -5.877 -23.803  0.00  0.00    +0.441 N 
ATOM      3  N   UNL     1      30.595  -7.202 -23.240  0.00  0.00    -0.321 N 
ATOM      4  C   UNL     1      32.220  -6.657 -21.513  0.00  0.00    +0.023 C 
ATOM      5  C   UNL     1      31.520  -6.155 -22.821  0.00  0.00    +0.067 C 
ATOM      6  C   UNL     1      33.725  -6.517 -21.774  0.00  0.00    -0.013 C 
ATOM      7  C   UNL     1      33.813  -5.521 -22.913  0.00  0.00    -0.025 C 
ATOM      8  C   UNL     1      31.754  -8.088 -21.452  0.00  0.00    -0.007 C 
ATOM      9  C   UNL     1      30.819  -8.327 -22.468  0.00  0.00    +0.042 C 
ATOM     10  C   UNL     1      31.765  -5.862 -20.289  0.00  0.00    +0.004 C 
ATOM     11  C   UNL     1      32.334  -4.744 -24.730  0.00  0.00    -0.043 C 
ATOM     12  C   UNL     1      29.693  -7.109 -24.354  0.00  0.00    +0.110 C 
ATOM     13  C   UNL     1      32.128  -9.081 -20.557  0.00  0.00    +0.035 C 
ATOM     14  C   UNL     1      30.242  -9.583 -22.591  0.00  0.00    +0.017 C 
ATOM     15  C   UNL     1      31.550 -10.342 -20.686  0.00  0.00    +0.150 C 
ATOM     16  C   UNL     1      30.613 -10.591 -21.696  0.00  0.00    +0.039 C 
ENDROOT
BRANCH  15  17
ATOM     17  O   UNL     1      31.897 -11.339 -19.825  0.00  0.00    -0.410 OA
BRANCH  17  20
ATOM     18  O   UNL     1      31.162 -13.508 -20.161  0.00  0.00    -0.226 OA
ATOM     19  N   UNL     1      33.090 -12.702 -21.216  0.00  0.00    -0.250 N 
ATOM     20  C   UNL     1      31.981 -12.627 -20.396  0.00  0.00    +0.410 C 
ATOM     21  H   UNL     1      33.636 -11.885 -21.282  0.00  0.00    +0.158 HD
BRANCH  19  22
ATOM     22  C   UNL     1      33.539 -13.808 -21.974  0.00  0.00    +0.049 C 
ATOM     23  C   UNL     1      33.419 -13.820 -23.364  0.00  0.00    -0.009 C 
ATOM     24  C   UNL     1      34.108 -14.897 -21.315  0.00  0.00    +0.014 C 
ATOM     25  C   UNL     1      33.868 -14.920 -24.094  0.00  0.00    -0.003 C 
ATOM     26  C   UNL     1      34.557 -15.998 -22.044  0.00  0.00    +0.001 C 
ATOM     27  C   UNL     1      34.437 -16.009 -23.434  0.00  0.00    -0.000 C 
BRANCH  23  28
ATOM     28  C   UNL     1      32.812 -12.667 -24.098  0.00  0.00    +0.028 C 
ATOM     29  C   UNL     1      32.645 -12.953 -25.587  0.00  0.00    +0.005 C 
ENDBRANCH  23  28
ENDBRANCH  19  22
ENDBRANCH  17  20
ENDBRANCH  15  17
TORSDOF 4
ENDMDL
MODEL 9
REMARK VINA RESULT:      -8.8     13.563     18.297
REMARK  Name = 74077203
REMARK  4 active torsions:
REMARK  status: ('A' for Active; 'I' for Inactive)
REMARK    1  A    between atoms: C_15  and  O_17
REMARK    2  A    between atoms: O_17  and  C_20
REMARK    3  A    between atoms: N_19  and  C_22
REMARK    4  A    between atoms: C_23  and  C_28
REMARK                            x       y       z     vdW  Elec       q    Type
REMARK                         _______ _______ _______ _____ _____    ______ ____
ROOT
ATOM      1  O   UNL     1      31.684  -3.495 -26.788  0.00  0.00    -0.287 OA
ATOM      2  N   UNL     1      33.017  -3.436 -26.474  0.00  0.00    +0.441 N 
ATOM      3  N   UNL     1      32.186  -3.459 -24.102  0.00  0.00    -0.321 N 
ATOM      4  C   UNL     1      33.493  -5.320 -24.968  0.00  0.00    +0.023 C 
ATOM      5  C   UNL     1      33.287  -3.768 -25.009  0.00  0.00    +0.067 C 
ATOM      6  C   UNL     1      33.459  -5.777 -26.432  0.00  0.00    -0.013 C 
ATOM      7  C   UNL     1      33.751  -4.515 -27.221  0.00  0.00    -0.025 C 
ATOM      8  C   UNL     1      32.293  -5.763 -24.174  0.00  0.00    -0.007 C 
ATOM      9  C   UNL     1      31.594  -4.642 -23.704  0.00  0.00    +0.042 C 
ATOM     10  C   UNL     1      34.802  -5.697 -24.272  0.00  0.00    +0.004 C 
ATOM     11  C   UNL     1      33.541  -2.084 -26.852  0.00  0.00    -0.043 C 
ATOM     12  C   UNL     1      31.726  -2.136 -23.784  0.00  0.00    +0.110 C 
ATOM     13  C   UNL     1      31.874  -7.056 -23.891  0.00  0.00    +0.035 C 
ATOM     14  C   UNL     1      30.454  -4.816 -22.931  0.00  0.00    +0.017 C 
ATOM     15  C   UNL     1      30.727  -7.226 -23.117  0.00  0.00    +0.150 C 
ATOM     16  C   UNL     1      30.022  -6.114 -22.641  0.00  0.00    +0.039 C 
ENDROOT
BRANCH  15  17
ATOM     17  O   UNL     1      30.288  -8.481 -22.823  0.00  0.00    -0.410 OA
BRANCH  17  20
ATOM     18  O   UNL     1      31.825  -8.787 -21.119  0.00  0.00    -0.226 OA
ATOM     19  N   UNL     1      31.143 -10.571 -22.473  0.00  0.00    -0.250 N 
ATOM     20  C   UNL     1      31.165  -9.260 -22.038  0.00  0.00    +0.410 C 
ATOM     21  H   UNL     1      30.546 -10.764 -23.233  0.00  0.00    +0.158 HD
BRANCH  19  22
ATOM     22  C   UNL     1      31.871 -11.670 -21.964  0.00  0.00    +0.049 C 
ATOM     23  C   UNL     1      32.931 -12.222 -22.683  0.00  0.00    -0.009 C 
ATOM     24  C   UNL     1      31.516 -12.204 -20.725  0.00  0.00    +0.014 C 
ATOM     25  C   UNL     1      33.637 -13.306 -22.163  0.00  0.00    -0.003 C 
ATOM     26  C   UNL     1      32.222 -13.288 -20.204  0.00  0.00    +0.001 C 
ATOM     27  C   UNL     1      33.282 -13.840 -20.923  0.00  0.00    -0.000 C 
BRANCH  23  28
ATOM     28  C   UNL     1      33.333 -11.672 -24.013  0.00  0.00    +0.028 C 
ATOM     29  C   UNL     1      32.770 -12.491 -25.171  0.00  0.00    +0.005 C 
ENDBRANCH  23  28
ENDBRANCH  19  22
ENDBRANCH  17  20
ENDBRANCH  15  17
TORSDOF 4
ENDMDL
