MODEL 1
REMARK VINA RESULT:     -12.7      0.000      0.000
REMARK  Name = 23633673
REMARK  5 active torsions:
REMARK  status: ('A' for Active; 'I' for Inactive)
REMARK    1  A    between atoms: N_2  and  C_5
REMARK    2  A    between atoms: C_3  and  C_17
REMARK    3  A    between atoms: C_5  and  C_8
REMARK    4  A    between atoms: C_7  and  C_13
REMARK    5  A    between atoms: C_17  and  N_20
REMARK                            x       y       z     vdW  Elec       q    Type
REMARK                         _______ _______ _______ _____ _____    ______ ____
ROOT
ATOM      1  O   UNL     1      34.272 -24.199 -15.709  0.00  0.00    -0.274 OA
ATOM      2  N   UNL     1      34.275 -22.029 -16.538  0.00  0.00    -0.301 N 
ATOM      3  C   UNL     1      34.528 -23.004 -15.584  0.00  0.00    +0.239 C 
ATOM      4  H   UNL     1      34.520 -21.097 -16.335  0.00  0.00    +0.150 HD
ENDROOT
BRANCH   2   5
ATOM      5  C   UNL     1      33.665 -22.320 -17.815  0.00  0.00    +0.094 C 
ATOM      6  C   UNL     1      32.151 -22.466 -17.667  0.00  0.00    +0.026 C 
BRANCH   5   8
ATOM      7  C   UNL     1      34.758 -19.391 -20.771  0.00  0.00    -0.023 C 
ATOM      8  C   UNL     1      34.049 -21.290 -18.855  0.00  0.00    -0.005 C 
ATOM      9  C   UNL     1      35.748 -20.035 -20.028  0.00  0.00    -0.005 C 
ATOM     10  C   UNL     1      33.414 -19.696 -20.555  0.00  0.00    -0.005 C 
ATOM     11  C   UNL     1      35.394 -20.984 -19.070  0.00  0.00    -0.003 C 
ATOM     12  C   UNL     1      33.060 -20.646 -19.597  0.00  0.00    -0.003 C 
BRANCH   7  13
ATOM     13  C   UNL     1      35.137 -18.375 -21.795  0.00  0.00    +0.019 C 
ATOM     14  C   UNL     1      34.426 -18.651 -23.156  0.00  0.00    +0.004 C 
ATOM     15  C   UNL     1      36.675 -18.382 -22.057  0.00  0.00    +0.004 C 
ATOM     16  C   UNL     1      34.784 -16.893 -21.435  0.00  0.00    +0.004 C 
ENDBRANCH   7  13
ENDBRANCH   5   8
ENDBRANCH   2   5
BRANCH   3  17
ATOM     17  C   UNL     1      35.168 -22.413 -14.347  0.00  0.00    +0.160 C 
BRANCH  17  20
ATOM     18  F   UNL     1      37.886 -23.060 -15.571  0.00  0.00    -0.205 F 
ATOM     19  F   UNL     1      40.107 -24.632 -15.226  0.00  0.00    -0.202 F 
ATOM     20  N   UNL     1      35.724 -23.417 -13.470  0.00  0.00    -0.235 NA
ATOM     21  N   UNL     1      35.859 -24.823 -11.754  0.00  0.00    -0.255 NA
ATOM     22  C   UNL     1      36.942 -24.033 -13.597  0.00  0.00    +0.153 C 
ATOM     23  C   UNL     1      37.003 -24.906 -12.515  0.00  0.00    +0.077 C 
ATOM     24  C   UNL     1      35.115 -23.921 -12.355  0.00  0.00    +0.201 C 
ATOM     25  C   UNL     1      37.965 -23.907 -14.538  0.00  0.00    +0.165 C 
ATOM     26  C   UNL     1      38.144 -25.708 -12.345  0.00  0.00    +0.018 C 
ATOM     27  C   UNL     1      39.093 -24.712 -14.353  0.00  0.00    +0.165 C 
ATOM     28  C   UNL     1      39.183 -25.597 -13.277  0.00  0.00    +0.033 C 
ENDBRANCH  17  20
ENDBRANCH   3  17
TORSDOF 5
ENDMDL
MODEL 2
REMARK VINA RESULT:     -12.0      1.550      2.249
REMARK  Name = 23633673
REMARK  5 active torsions:
REMARK  status: ('A' for Active; 'I' for Inactive)
REMARK    1  A    between atoms: N_2  and  C_5
REMARK    2  A    between atoms: C_3  and  C_17
REMARK    3  A    between atoms: C_5  and  C_8
REMARK    4  A    between atoms: C_7  and  C_13
REMARK    5  A    between atoms: C_17  and  N_20
REMARK                            x       y       z     vdW  Elec       q    Type
REMARK                         _______ _______ _______ _____ _____    ______ ____
ROOT
ATOM      1  O   UNL     1      33.168 -23.757 -15.481  0.00  0.00    -0.274 OA
ATOM      2  N   UNL     1      34.238 -22.088 -16.693  0.00  0.00    -0.301 N 
ATOM      3  C   UNL     1      34.007 -22.864 -15.566  0.00  0.00    +0.239 C 
ATOM      4  H   UNL     1      34.937 -21.397 -16.653  0.00  0.00    +0.150 HD
ENDROOT
BRANCH   2   5
ATOM      5  C   UNL     1      33.496 -22.251 -17.922  0.00  0.00    +0.094 C 
ATOM      6  C   UNL     1      31.993 -22.219 -17.650  0.00  0.00    +0.026 C 
BRANCH   5   8
ATOM      7  C   UNL     1      34.699 -19.353 -20.866  0.00  0.00    -0.023 C 
ATOM      8  C   UNL     1      33.920 -21.232 -18.958  0.00  0.00    -0.005 C 
ATOM      9  C   UNL     1      33.345 -19.612 -20.655  0.00  0.00    -0.005 C 
ATOM     10  C   UNL     1      35.664 -20.034 -20.123  0.00  0.00    -0.005 C 
ATOM     11  C   UNL     1      32.955 -20.551 -19.701  0.00  0.00    -0.003 C 
ATOM     12  C   UNL     1      35.273 -20.973 -19.168  0.00  0.00    -0.003 C 
BRANCH   7  13
ATOM     13  C   UNL     1      35.117 -18.348 -21.887  0.00  0.00    +0.019 C 
ATOM     14  C   UNL     1      34.481 -18.658 -23.278  0.00  0.00    +0.004 C 
ATOM     15  C   UNL     1      36.666 -18.336 -22.068  0.00  0.00    +0.004 C 
ATOM     16  C   UNL     1      34.723 -16.866 -21.571  0.00  0.00    +0.004 C 
ENDBRANCH   7  13
ENDBRANCH   5   8
ENDBRANCH   2   5
BRANCH   3  17
ATOM     17  C   UNL     1      34.926 -22.473 -14.429  0.00  0.00    +0.160 C 
BRANCH  17  20
ATOM     18  F   UNL     1      35.414 -24.691 -12.392  0.00  0.00    -0.205 F 
ATOM     19  F   UNL     1      37.332 -26.435 -11.495  0.00  0.00    -0.202 F 
ATOM     20  N   UNL     1      36.296 -22.870 -14.655  0.00  0.00    -0.235 NA
ATOM     21  N   UNL     1      38.323 -22.889 -15.567  0.00  0.00    -0.255 NA
ATOM     22  C   UNL     1      36.991 -23.842 -13.983  0.00  0.00    +0.153 C 
ATOM     23  C   UNL     1      38.253 -23.835 -14.570  0.00  0.00    +0.077 C 
ATOM     24  C   UNL     1      37.134 -22.330 -15.591  0.00  0.00    +0.201 C 
ATOM     25  C   UNL     1      36.634 -24.701 -12.943  0.00  0.00    +0.165 C 
ATOM     26  C   UNL     1      39.229 -24.732 -14.105  0.00  0.00    +0.018 C 
ATOM     27  C   UNL     1      37.618 -25.587 -12.493  0.00  0.00    +0.165 C 
ATOM     28  C   UNL     1      38.893 -25.603 -13.061  0.00  0.00    +0.033 C 
ENDBRANCH  17  20
ENDBRANCH   3  17
TORSDOF 5
ENDMDL
MODEL 3
REMARK VINA RESULT:     -11.7      1.604      2.158
REMARK  Name = 23633673
REMARK  5 active torsions:
REMARK  status: ('A' for Active; 'I' for Inactive)
REMARK    1  A    between atoms: N_2  and  C_5
REMARK    2  A    between atoms: C_3  and  C_17
REMARK    3  A    between atoms: C_5  and  C_8
REMARK    4  A    between atoms: C_7  and  C_13
REMARK    5  A    between atoms: C_17  and  N_20
REMARK                            x       y       z     vdW  Elec       q    Type
REMARK                         _______ _______ _______ _____ _____    ______ ____
ROOT
ATOM      1  O   UNL     1      31.942 -23.599 -15.279  0.00  0.00    -0.274 OA
ATOM      2  N   UNL     1      33.544 -22.563 -16.605  0.00  0.00    -0.301 N 
ATOM      3  C   UNL     1      33.074 -23.150 -15.439  0.00  0.00    +0.239 C 
ATOM      4  H   UNL     1      34.472 -22.236 -16.626  0.00  0.00    +0.150 HD
ENDROOT
BRANCH   2   5
ATOM      5  C   UNL     1      32.730 -22.411 -17.789  0.00  0.00    +0.094 C 
ATOM      6  C   UNL     1      31.301 -22.026 -17.412  0.00  0.00    +0.026 C 
BRANCH   5   8
ATOM      7  C   UNL     1      34.506 -19.636 -20.557  0.00  0.00    -0.023 C 
ATOM      8  C   UNL     1      33.355 -21.435 -18.763  0.00  0.00    -0.005 C 
ATOM      9  C   UNL     1      33.118 -19.729 -20.457  0.00  0.00    -0.005 C 
ATOM     10  C   UNL     1      35.318 -20.442 -19.759  0.00  0.00    -0.005 C 
ATOM     11  C   UNL     1      32.542 -20.628 -19.561  0.00  0.00    -0.003 C 
ATOM     12  C   UNL     1      34.742 -21.341 -18.862  0.00  0.00    -0.003 C 
BRANCH   7  13
ATOM     13  C   UNL     1      35.122 -18.674 -21.517  0.00  0.00    +0.019 C 
ATOM     14  C   UNL     1      34.697 -17.207 -21.198  0.00  0.00    +0.004 C 
ATOM     15  C   UNL     1      34.689 -18.983 -22.983  0.00  0.00    +0.004 C 
ATOM     16  C   UNL     1      36.687 -18.658 -21.539  0.00  0.00    +0.004 C 
ENDBRANCH   7  13
ENDBRANCH   5   8
ENDBRANCH   2   5
BRANCH   3  17
ATOM     17  C   UNL     1      34.139 -23.173 -14.364  0.00  0.00    +0.160 C 
BRANCH  17  20
ATOM     18  F   UNL     1      36.475 -22.430 -12.548  0.00  0.00    -0.205 F 
ATOM     19  F   UNL     1      38.938 -23.297 -11.709  0.00  0.00    -0.202 F 
ATOM     20  N   UNL     1      35.080 -24.256 -14.532  0.00  0.00    -0.235 NA
ATOM     21  N   UNL     1      35.926 -26.165 -15.292  0.00  0.00    -0.255 NA
ATOM     22  C   UNL     1      36.300 -24.385 -13.920  0.00  0.00    +0.153 C 
ATOM     23  C   UNL     1      36.809 -25.584 -14.411  0.00  0.00    +0.077 C 
ATOM     24  C   UNL     1      34.902 -25.344 -15.341  0.00  0.00    +0.201 C 
ATOM     25  C   UNL     1      36.983 -23.579 -13.008  0.00  0.00    +0.165 C 
ATOM     26  C   UNL     1      38.071 -26.021 -13.976  0.00  0.00    +0.018 C 
ATOM     27  C   UNL     1      38.237 -24.030 -12.585  0.00  0.00    +0.165 C 
ATOM     28  C   UNL     1      38.774 -25.228 -13.060  0.00  0.00    +0.033 C 
ENDBRANCH  17  20
ENDBRANCH   3  17
TORSDOF 5
ENDMDL
MODEL 4
REMARK VINA RESULT:     -11.6      3.787      5.263
REMARK  Name = 23633673
REMARK  5 active torsions:
REMARK  status: ('A' for Active; 'I' for Inactive)
REMARK    1  A    between atoms: N_2  and  C_5
REMARK    2  A    between atoms: C_3  and  C_17
REMARK    3  A    between atoms: C_5  and  C_8
REMARK    4  A    between atoms: C_7  and  C_13
REMARK    5  A    between atoms: C_17  and  N_20
REMARK                            x       y       z     vdW  Elec       q    Type
REMARK                         _______ _______ _______ _____ _____    ______ ____
ROOT
ATOM      1  O   UNL     1      34.628 -23.902 -15.768  0.00  0.00    -0.274 OA
ATOM      2  N   UNL     1      33.490 -22.364 -17.086  0.00  0.00    -0.301 N 
ATOM      3  C   UNL     1      33.815 -22.989 -15.891  0.00  0.00    +0.239 C 
ATOM      4  H   UNL     1      32.823 -21.640 -17.073  0.00  0.00    +0.150 HD
ENDROOT
BRANCH   2   5
ATOM      5  C   UNL     1      34.089 -22.729 -18.350  0.00  0.00    +0.094 C 
ATOM      6  C   UNL     1      33.243 -23.786 -19.059  0.00  0.00    +0.026 C 
BRANCH   5   8
ATOM      7  C   UNL     1      34.794 -19.265 -20.803  0.00  0.00    -0.023 C 
ATOM      8  C   UNL     1      34.336 -21.510 -19.213  0.00  0.00    -0.005 C 
ATOM      9  C   UNL     1      35.869 -19.947 -20.234  0.00  0.00    -0.005 C 
ATOM     10  C   UNL     1      33.490 -19.705 -20.576  0.00  0.00    -0.005 C 
ATOM     11  C   UNL     1      35.641 -21.070 -19.439  0.00  0.00    -0.003 C 
ATOM     12  C   UNL     1      33.262 -20.829 -19.781  0.00  0.00    -0.003 C 
BRANCH   7  13
ATOM     13  C   UNL     1      35.038 -18.063 -21.653  0.00  0.00    +0.019 C 
ATOM     14  C   UNL     1      34.240 -18.146 -22.991  0.00  0.00    +0.004 C 
ATOM     15  C   UNL     1      36.550 -17.924 -22.013  0.00  0.00    +0.004 C 
ATOM     16  C   UNL     1      34.635 -16.694 -21.011  0.00  0.00    +0.004 C 
ENDBRANCH   7  13
ENDBRANCH   5   8
ENDBRANCH   2   5
BRANCH   3  17
ATOM     17  C   UNL     1      33.035 -22.405 -14.733  0.00  0.00    +0.160 C 
BRANCH  17  20
ATOM     18  F   UNL     1      30.633 -21.970 -16.563  0.00  0.00    -0.205 F 
ATOM     19  F   UNL     1      28.055 -22.800 -17.001  0.00  0.00    -0.202 F 
ATOM     20  N   UNL     1      32.030 -23.308 -14.223  0.00  0.00    -0.235 NA
ATOM     21  N   UNL     1      31.101 -24.851 -12.920  0.00  0.00    -0.255 NA
ATOM     22  C   UNL     1      30.761 -23.485 -14.712  0.00  0.00    +0.153 C 
ATOM     23  C   UNL     1      30.202 -24.452 -13.882  0.00  0.00    +0.077 C 
ATOM     24  C   UNL     1      32.186 -24.146 -13.154  0.00  0.00    +0.201 C 
ATOM     25  C   UNL     1      30.075 -22.898 -15.776  0.00  0.00    +0.165 C 
ATOM     26  C   UNL     1      28.881 -24.871 -14.113  0.00  0.00    +0.018 C 
ATOM     27  C   UNL     1      28.762 -23.328 -15.992  0.00  0.00    +0.165 C 
ATOM     28  C   UNL     1      28.173 -24.296 -15.176  0.00  0.00    +0.033 C 
ENDBRANCH  17  20
ENDBRANCH   3  17
TORSDOF 5
ENDMDL
MODEL 5
REMARK VINA RESULT:     -11.3      9.363     13.797
REMARK  Name = 23633673
REMARK  5 active torsions:
REMARK  status: ('A' for Active; 'I' for Inactive)
REMARK    1  A    between atoms: N_2  and  C_5
REMARK    2  A    between atoms: C_3  and  C_17
REMARK    3  A    between atoms: C_5  and  C_8
REMARK    4  A    between atoms: C_7  and  C_13
REMARK    5  A    between atoms: C_17  and  N_20
REMARK                            x       y       z     vdW  Elec       q    Type
REMARK                         _______ _______ _______ _____ _____    ______ ____
ROOT
ATOM      1  O   UNL     1      31.264 -12.656 -22.347  0.00  0.00    -0.274 OA
ATOM      2  N   UNL     1      32.465 -10.679 -22.564  0.00  0.00    -0.301 N 
ATOM      3  C   UNL     1      32.324 -12.058 -22.514  0.00  0.00    +0.239 C 
ATOM      4  H   UNL     1      33.364 -10.302 -22.703  0.00  0.00    +0.150 HD
ENDROOT
BRANCH   2   5
ATOM      5  C   UNL     1      31.350  -9.771 -22.420  0.00  0.00    +0.094 C 
ATOM      6  C   UNL     1      30.920  -9.677 -20.957  0.00  0.00    +0.026 C 
BRANCH   5   8
ATOM      7  C   UNL     1      32.240  -5.922 -24.125  0.00  0.00    -0.023 C 
ATOM      8  C   UNL     1      31.664  -8.417 -23.020  0.00  0.00    -0.005 C 
ATOM      9  C   UNL     1      30.914  -6.301 -23.912  0.00  0.00    -0.005 C 
ATOM     10  C   UNL     1      33.277  -6.791 -23.785  0.00  0.00    -0.005 C 
ATOM     11  C   UNL     1      30.626  -7.548 -23.359  0.00  0.00    -0.003 C 
ATOM     12  C   UNL     1      32.988  -8.039 -23.232  0.00  0.00    -0.003 C 
BRANCH   7  13
ATOM     13  C   UNL     1      32.549  -4.587 -24.716  0.00  0.00    +0.019 C 
ATOM     14  C   UNL     1      34.088  -4.379 -24.868  0.00  0.00    +0.004 C 
ATOM     15  C   UNL     1      32.002  -3.432 -23.821  0.00  0.00    +0.004 C 
ATOM     16  C   UNL     1      31.951  -4.330 -26.140  0.00  0.00    +0.004 C 
ENDBRANCH   7  13
ENDBRANCH   5   8
ENDBRANCH   2   5
BRANCH   3  17
ATOM     17  C   UNL     1      33.655 -12.756 -22.692  0.00  0.00    +0.160 C 
BRANCH  17  20
ATOM     18  F   UNL     1      34.592 -15.067 -20.935  0.00  0.00    -0.205 F 
ATOM     19  F   UNL     1      35.028 -17.775 -20.955  0.00  0.00    -0.202 F 
ATOM     20  N   UNL     1      33.570 -13.914 -23.551  0.00  0.00    -0.235 NA
ATOM     21  N   UNL     1      33.180 -15.109 -25.384  0.00  0.00    -0.255 NA
ATOM     22  C   UNL     1      33.886 -15.206 -23.220  0.00  0.00    +0.153 C 
ATOM     23  C   UNL     1      33.635 -15.933 -24.380  0.00  0.00    +0.077 C 
ATOM     24  C   UNL     1      33.153 -13.907 -24.853  0.00  0.00    +0.201 C 
ATOM     25  C   UNL     1      34.357 -15.784 -22.040  0.00  0.00    +0.165 C 
ATOM     26  C   UNL     1      33.861 -17.319 -24.382  0.00  0.00    +0.018 C 
ATOM     27  C   UNL     1      34.576 -17.165 -22.060  0.00  0.00    +0.165 C 
ATOM     28  C   UNL     1      34.334 -17.921 -23.209  0.00  0.00    +0.033 C 
ENDBRANCH  17  20
ENDBRANCH   3  17
TORSDOF 5
ENDMDL
MODEL 6
REMARK VINA RESULT:     -11.2      4.101      9.880
REMARK  Name = 23633673
REMARK  5 active torsions:
REMARK  status: ('A' for Active; 'I' for Inactive)
REMARK    1  A    between atoms: N_2  and  C_5
REMARK    2  A    between atoms: C_3  and  C_17
REMARK    3  A    between atoms: C_5  and  C_8
REMARK    4  A    between atoms: C_7  and  C_13
REMARK    5  A    between atoms: C_17  and  N_20
REMARK                            x       y       z     vdW  Elec       q    Type
REMARK                         _______ _______ _______ _____ _____    ______ ____
ROOT
ATOM      1  O   UNL     1      32.812 -19.770 -20.626  0.00  0.00    -0.274 OA
ATOM      2  N   UNL     1      34.549 -20.659 -19.364  0.00  0.00    -0.301 N 
ATOM      3  C   UNL     1      34.006 -19.845 -20.348  0.00  0.00    +0.239 C 
ATOM      4  H   UNL     1      35.523 -20.642 -19.222  0.00  0.00    +0.150 HD
ENDROOT
BRANCH   2   5
ATOM      5  C   UNL     1      33.746 -21.532 -18.538  0.00  0.00    +0.094 C 
ATOM      6  C   UNL     1      33.141 -22.657 -19.375  0.00  0.00    +0.026 C 
BRANCH   5   8
ATOM      7  C   UNL     1      35.994 -23.005 -15.178  0.00  0.00    -0.023 C 
ATOM      8  C   UNL     1      34.537 -22.049 -17.356  0.00  0.00    -0.005 C 
ATOM      9  C   UNL     1      34.654 -23.363 -15.331  0.00  0.00    -0.005 C 
ATOM     10  C   UNL     1      36.604 -22.169 -16.113  0.00  0.00    -0.005 C 
ATOM     11  C   UNL     1      33.926 -22.885 -16.420  0.00  0.00    -0.003 C 
ATOM     12  C   UNL     1      35.875 -21.692 -17.202  0.00  0.00    -0.003 C 
BRANCH   7  13
ATOM     13  C   UNL     1      36.773 -23.515 -14.012  0.00  0.00    +0.019 C 
ATOM     14  C   UNL     1      38.248 -23.830 -14.413  0.00  0.00    +0.004 C 
ATOM     15  C   UNL     1      36.149 -24.828 -13.445  0.00  0.00    +0.004 C 
ATOM     16  C   UNL     1      36.872 -22.540 -12.792  0.00  0.00    +0.004 C 
ENDBRANCH   7  13
ENDBRANCH   5   8
ENDBRANCH   2   5
BRANCH   3  17
ATOM     17  C   UNL     1      35.079 -19.044 -21.054  0.00  0.00    +0.160 C 
BRANCH  17  20
ATOM     18  F   UNL     1      34.810 -16.057 -20.496  0.00  0.00    -0.205 F 
ATOM     19  F   UNL     1      34.115 -13.679 -21.674  0.00  0.00    -0.202 F 
ATOM     20  N   UNL     1      34.627 -18.486 -22.307  0.00  0.00    -0.235 NA
ATOM     21  N   UNL     1      33.987 -18.423 -24.435  0.00  0.00    -0.255 NA
ATOM     22  C   UNL     1      34.358 -17.168 -22.569  0.00  0.00    +0.153 C 
ATOM     23  C   UNL     1      33.960 -17.153 -23.903  0.00  0.00    +0.077 C 
ATOM     24  C   UNL     1      34.391 -19.196 -23.452  0.00  0.00    +0.201 C 
ATOM     25  C   UNL     1      34.425 -16.021 -21.777  0.00  0.00    +0.165 C 
ATOM     26  C   UNL     1      33.606 -15.932 -24.499  0.00  0.00    +0.018 C 
ATOM     27  C   UNL     1      34.069 -14.814 -22.387  0.00  0.00    +0.165 C 
ATOM     28  C   UNL     1      33.666 -14.767 -23.722  0.00  0.00    +0.033 C 
ENDBRANCH  17  20
ENDBRANCH   3  17
TORSDOF 5
ENDMDL
MODEL 7
REMARK VINA RESULT:     -10.7     10.059     14.208
REMARK  Name = 23633673
REMARK  5 active torsions:
REMARK  status: ('A' for Active; 'I' for Inactive)
REMARK    1  A    between atoms: N_2  and  C_5
REMARK    2  A    between atoms: C_3  and  C_17
REMARK    3  A    between atoms: C_5  and  C_8
REMARK    4  A    between atoms: C_7  and  C_13
REMARK    5  A    between atoms: C_17  and  N_20
REMARK                            x       y       z     vdW  Elec       q    Type
REMARK                         _______ _______ _______ _____ _____    ______ ____
ROOT
ATOM      1  O   UNL     1      29.974 -10.429 -21.675  0.00  0.00    -0.274 OA
ATOM      2  N   UNL     1      31.736  -9.359 -20.604  0.00  0.00    -0.301 N 
ATOM      3  C   UNL     1      31.050 -10.465 -21.083  0.00  0.00    +0.239 C 
ATOM      4  H   UNL     1      32.594  -9.500 -20.142  0.00  0.00    +0.150 HD
ENDROOT
BRANCH   2   5
ATOM      5  C   UNL     1      31.246  -8.007 -20.750  0.00  0.00    +0.094 C 
ATOM      6  C   UNL     1      31.513  -7.198 -19.483  0.00  0.00    +0.026 C 
BRANCH   5   8
ATOM      7  C   UNL     1      32.864  -6.136 -24.271  0.00  0.00    -0.023 C 
ATOM      8  C   UNL     1      31.814  -7.349 -21.989  0.00  0.00    -0.005 C 
ATOM      9  C   UNL     1      33.607  -6.161 -23.091  0.00  0.00    -0.005 C 
ATOM     10  C   UNL     1      31.596  -6.716 -24.310  0.00  0.00    -0.005 C 
ATOM     11  C   UNL     1      33.083  -6.768 -21.950  0.00  0.00    -0.003 C 
ATOM     12  C   UNL     1      31.072  -7.323 -23.169  0.00  0.00    -0.003 C 
BRANCH   7  13
ATOM     13  C   UNL     1      33.425  -5.486 -25.492  0.00  0.00    +0.019 C 
ATOM     14  C   UNL     1      32.475  -5.669 -26.716  0.00  0.00    +0.004 C 
ATOM     15  C   UNL     1      34.808  -6.098 -25.873  0.00  0.00    +0.004 C 
ATOM     16  C   UNL     1      33.668  -3.944 -25.380  0.00  0.00    +0.004 C 
ENDBRANCH   7  13
ENDBRANCH   5   8
ENDBRANCH   2   5
BRANCH   3  17
ATOM     17  C   UNL     1      31.796 -11.748 -20.786  0.00  0.00    +0.160 C 
BRANCH  17  20
ATOM     18  F   UNL     1      33.086 -14.323 -19.779  0.00  0.00    -0.205 F 
ATOM     19  F   UNL     1      34.580 -16.471 -20.600  0.00  0.00    -0.202 F 
ATOM     20  N   UNL     1      32.427 -12.312 -21.956  0.00  0.00    -0.235 NA
ATOM     21  N   UNL     1      33.070 -12.499 -24.076  0.00  0.00    -0.255 NA
ATOM     22  C   UNL     1      33.143 -13.480 -22.020  0.00  0.00    +0.153 C 
ATOM     23  C   UNL     1      33.534 -13.574 -23.352  0.00  0.00    +0.077 C 
ATOM     24  C   UNL     1      32.411 -11.763 -23.209  0.00  0.00    +0.201 C 
ATOM     25  C   UNL     1      33.472 -14.432 -21.055  0.00  0.00    +0.165 C 
ATOM     26  C   UNL     1      34.299 -14.678 -23.765  0.00  0.00    +0.018 C 
ATOM     27  C   UNL     1      34.234 -15.524 -21.484  0.00  0.00    +0.165 C 
ATOM     28  C   UNL     1      34.641 -15.647 -22.813  0.00  0.00    +0.033 C 
ENDBRANCH  17  20
ENDBRANCH   3  17
TORSDOF 5
ENDMDL
MODEL 8
REMARK VINA RESULT:     -10.5      3.590      8.635
REMARK  Name = 23633673
REMARK  5 active torsions:
REMARK  status: ('A' for Active; 'I' for Inactive)
REMARK    1  A    between atoms: N_2  and  C_5
REMARK    2  A    between atoms: C_3  and  C_17
REMARK    3  A    between atoms: C_5  and  C_8
REMARK    4  A    between atoms: C_7  and  C_13
REMARK    5  A    between atoms: C_17  and  N_20
REMARK                            x       y       z     vdW  Elec       q    Type
REMARK                         _______ _______ _______ _____ _____    ______ ____
ROOT
ATOM      1  O   UNL     1      31.482 -20.791 -18.359  0.00  0.00    -0.274 OA
ATOM      2  N   UNL     1      32.818 -22.429 -17.396  0.00  0.00    -0.301 N 
ATOM      3  C   UNL     1      32.404 -21.600 -18.428  0.00  0.00    +0.239 C 
ATOM      4  H   UNL     1      33.571 -23.043 -17.558  0.00  0.00    +0.150 HD
ENDROOT
BRANCH   2   5
ATOM      5  C   UNL     1      32.192 -22.433 -16.094  0.00  0.00    +0.094 C 
ATOM      6  C   UNL     1      30.967 -23.346 -16.089  0.00  0.00    +0.026 C 
BRANCH   5   8
ATOM      7  C   UNL     1      35.013 -23.450 -13.008  0.00  0.00    -0.023 C 
ATOM      8  C   UNL     1      33.185 -22.791 -15.008  0.00  0.00    -0.005 C 
ATOM      9  C   UNL     1      33.669 -23.795 -12.865  0.00  0.00    -0.005 C 
ATOM     10  C   UNL     1      35.442 -22.776 -14.151  0.00  0.00    -0.005 C 
ATOM     11  C   UNL     1      32.755 -23.465 -13.865  0.00  0.00    -0.003 C 
ATOM     12  C   UNL     1      34.528 -22.447 -15.152  0.00  0.00    -0.003 C 
BRANCH   7  13
ATOM     13  C   UNL     1      35.991 -23.803 -11.938  0.00  0.00    +0.019 C 
ATOM     14  C   UNL     1      36.710 -25.152 -12.252  0.00  0.00    +0.004 C 
ATOM     15  C   UNL     1      35.286 -23.955 -10.555  0.00  0.00    +0.004 C 
ATOM     16  C   UNL     1      37.139 -22.763 -11.709  0.00  0.00    +0.004 C 
ENDBRANCH   7  13
ENDBRANCH   5   8
ENDBRANCH   2   5
BRANCH   3  17
ATOM     17  C   UNL     1      33.236 -21.812 -19.674  0.00  0.00    +0.160 C 
BRANCH  17  20
ATOM     18  F   UNL     1      32.682 -19.770 -21.872  0.00  0.00    -0.205 F 
ATOM     19  F   UNL     1      33.783 -17.616 -23.165  0.00  0.00    -0.202 F 
ATOM     20  N   UNL     1      34.421 -20.987 -19.702  0.00  0.00    -0.235 NA
ATOM     21  N   UNL     1      36.442 -20.246 -19.146  0.00  0.00    -0.255 NA
ATOM     22  C   UNL     1      34.660 -19.920 -20.529  0.00  0.00    +0.153 C 
ATOM     23  C   UNL     1      35.927 -19.475 -20.164  0.00  0.00    +0.077 C 
ATOM     24  C   UNL     1      35.514 -21.142 -18.894  0.00  0.00    +0.201 C 
ATOM     25  C   UNL     1      33.899 -19.325 -21.536  0.00  0.00    +0.165 C 
ATOM     26  C   UNL     1      36.483 -18.371 -20.831  0.00  0.00    +0.018 C 
ATOM     27  C   UNL     1      34.469 -18.228 -22.189  0.00  0.00    +0.165 C 
ATOM     28  C   UNL     1      35.737 -17.758 -21.845  0.00  0.00    +0.033 C 
ENDBRANCH  17  20
ENDBRANCH   3  17
TORSDOF 5
ENDMDL
MODEL 9
REMARK VINA RESULT:     -10.5      5.676     10.636
REMARK  Name = 23633673
REMARK  5 active torsions:
REMARK  status: ('A' for Active; 'I' for Inactive)
REMARK    1  A    between atoms: N_2  and  C_5
REMARK    2  A    between atoms: C_3  and  C_17
REMARK    3  A    between atoms: C_5  and  C_8
REMARK    4  A    between atoms: C_7  and  C_13
REMARK    5  A    between atoms: C_17  and  N_20
REMARK                            x       y       z     vdW  Elec       q    Type
REMARK                         _______ _______ _______ _____ _____    ______ ____
ROOT
ATOM      1  O   UNL     1      36.184 -18.915 -21.794  0.00  0.00    -0.274 OA
ATOM      2  N   UNL     1      34.426 -19.252 -20.313  0.00  0.00    -0.301 N 
ATOM      3  C   UNL     1      35.216 -18.494 -21.166  0.00  0.00    +0.239 C 
ATOM      4  H   UNL     1      33.671 -18.815 -19.858  0.00  0.00    +0.150 HD
ENDROOT
BRANCH   2   5
ATOM      5  C   UNL     1      34.665 -20.656 -20.064  0.00  0.00    +0.094 C 
ATOM      6  C   UNL     1      36.131 -20.896 -19.709  0.00  0.00    +0.026 C 
BRANCH   5   8
ATOM      7  C   UNL     1      31.971 -22.188 -17.078  0.00  0.00    -0.023 C 
ATOM      8  C   UNL     1      33.718 -21.195 -19.013  0.00  0.00    -0.005 C 
ATOM      9  C   UNL     1      31.484 -21.393 -18.116  0.00  0.00    -0.005 C 
ATOM     10  C   UNL     1      33.332 -22.486 -17.009  0.00  0.00    -0.005 C 
ATOM     11  C   UNL     1      32.356 -20.896 -19.083  0.00  0.00    -0.003 C 
ATOM     12  C   UNL     1      34.205 -21.990 -17.977  0.00  0.00    -0.003 C 
BRANCH   7  13
ATOM     13  C   UNL     1      31.038 -22.719 -16.043  0.00  0.00    +0.019 C 
ATOM     14  C   UNL     1      31.366 -22.136 -14.633  0.00  0.00    +0.004 C 
ATOM     15  C   UNL     1      31.129 -24.273 -15.943  0.00  0.00    +0.004 C 
ATOM     16  C   UNL     1      29.523 -22.405 -16.281  0.00  0.00    +0.004 C 
ENDBRANCH   7  13
ENDBRANCH   5   8
ENDBRANCH   2   5
BRANCH   3  17
ATOM     17  C   UNL     1      34.736 -17.061 -21.233  0.00  0.00    +0.160 C 
BRANCH  17  20
ATOM     18  F   UNL     1      34.229 -14.060 -21.027  0.00  0.00    -0.205 F 
ATOM     19  F   UNL     1      33.386 -11.892 -22.482  0.00  0.00    -0.202 F 
ATOM     20  N   UNL     1      34.275 -16.686 -22.549  0.00  0.00    -0.235 NA
ATOM     21  N   UNL     1      33.686 -16.914 -24.680  0.00  0.00    -0.255 NA
ATOM     22  C   UNL     1      33.914 -15.431 -22.966  0.00  0.00    +0.153 C 
ATOM     23  C   UNL     1      33.550 -15.599 -24.298  0.00  0.00    +0.077 C 
ATOM     24  C   UNL     1      34.122 -17.537 -23.609  0.00  0.00    +0.201 C 
ATOM     25  C   UNL     1      33.874 -14.199 -22.310  0.00  0.00    +0.165 C 
ATOM     26  C   UNL     1      33.119 -14.483 -25.037  0.00  0.00    +0.018 C 
ATOM     27  C   UNL     1      33.444 -13.101 -23.060  0.00  0.00    +0.165 C 
ATOM     28  C   UNL     1      33.072 -13.238 -24.399  0.00  0.00    +0.033 C 
ENDBRANCH  17  20
ENDBRANCH   3  17
TORSDOF 5
ENDMDL
