MODEL 1
REMARK VINA RESULT:     -12.0      0.000      0.000
REMARK  Name = 6323250
REMARK  8 active torsions:
REMARK  status: ('A' for Active; 'I' for Inactive)
REMARK    1  A    between atoms: N_2  and  C_23
REMARK    2  A    between atoms: N_3  and  C_5
REMARK    3  A    between atoms: N_3  and  C_12
REMARK    4  A    between atoms: C_12  and  C_15
REMARK    5  A    between atoms: C_15  and  C_17
REMARK    6  A    between atoms: C_23  and  C_26
REMARK    7  A    between atoms: N_25  and  C_28
REMARK    8  A    between atoms: C_28  and  C_31
REMARK                            x       y       z     vdW  Elec       q    Type
REMARK                         _______ _______ _______ _____ _____    ______ ____
ROOT
ATOM      1  O   UNL     1      34.413 -13.434 -21.420  0.00  0.00    -0.271 OA
ATOM      2  N   UNL     1      33.536 -13.235 -23.573  0.00  0.00    -0.250 N 
ATOM      3  N   UNL     1      33.833 -15.942 -23.802  0.00  0.00    -0.313 N 
ATOM      4  C   UNL     1      34.202 -15.379 -22.659  0.00  0.00    +0.207 C 
ATOM      5  C   UNL     1      33.167 -13.882 -24.750  0.00  0.00    +0.046 C 
ATOM      6  C   UNL     1      34.067 -13.946 -22.482  0.00  0.00    +0.263 C 
ATOM      7  C   UNL     1      33.322 -15.210 -24.841  0.00  0.00    +0.070 C 
ATOM      8  C   UNL     1      32.604 -13.093 -25.897  0.00  0.00    +0.049 C 
ATOM      9  H   UNL     1      33.930 -16.915 -23.907  0.00  0.00    +0.148 HD
ENDROOT
BRANCH   4  10
ATOM     10  N   UNL     1      34.702 -16.046 -21.627  0.00  0.00    -0.271 NA
ATOM     11  H   UNL     1      35.491 -15.688 -21.160  0.00  0.00    +0.125 HD
BRANCH  10  12
ATOM     12  C   UNL     1      34.109 -17.298 -21.170  0.00  0.00    +0.140 C 
BRANCH  12  15
ATOM     13  F   UNL     1      36.374 -17.892 -21.153  0.00  0.00    -0.201 F 
ATOM     14  F   UNL     1      35.107 -18.803 -22.660  0.00  0.00    -0.201 F 
ATOM     15  C   UNL     1      35.129 -18.416 -21.351  0.00  0.00    +0.298 C 
BRANCH  15  17
ATOM     16  N   UNL     1      35.867 -20.058 -19.731  0.00  0.00    -0.325 N 
ATOM     17  C   UNL     1      34.840 -19.564 -20.415  0.00  0.00    +0.155 C 
ATOM     18  C   UNL     1      33.569 -20.071 -20.281  0.00  0.00    -0.001 C 
ATOM     19  C   UNL     1      35.712 -21.077 -18.875  0.00  0.00    +0.058 C 
ATOM     20  C   UNL     1      33.379 -21.132 -19.400  0.00  0.00    -0.001 C 
ATOM     21  C   UNL     1      34.458 -21.643 -18.687  0.00  0.00    +0.015 C 
ATOM     22  H   UNL     1      36.761 -19.666 -19.856  0.00  0.00    +0.147 HD
ENDBRANCH  15  17
ENDBRANCH  12  15
ENDBRANCH  10  12
ENDBRANCH   4  10
BRANCH   2  23
ATOM     23  C   UNL     1      33.375 -11.787 -23.459  0.00  0.00    +0.183 C 
BRANCH  23  26
ATOM     24  O   UNL     1      31.359 -12.337 -22.246  0.00  0.00    -0.273 OA
ATOM     25  N   UNL     1      32.017 -10.113 -22.406  0.00  0.00    -0.298 N 
ATOM     26  C   UNL     1      32.149 -11.476 -22.627  0.00  0.00    +0.243 C 
ATOM     27  H   UNL     1      32.713  -9.512 -22.759  0.00  0.00    +0.150 HD
BRANCH  25  28
ATOM     28  C   UNL     1      30.909  -9.530 -21.683  0.00  0.00    +0.138 C 
BRANCH  28  31
ATOM     29  F   UNL     1      30.226  -7.428 -23.429  0.00  0.00    -0.203 F 
ATOM     30  N   UNL     1      31.725  -7.846 -20.150  0.00  0.00    -0.244 NA
ATOM     31  C   UNL     1      31.154  -8.088 -21.346  0.00  0.00    +0.106 C 
ATOM     32  C   UNL     1      30.791  -7.113 -22.255  0.00  0.00    +0.151 C 
ATOM     33  C   UNL     1      31.033  -5.789 -21.909  0.00  0.00    +0.008 C 
ATOM     34  C   UNL     1      31.620  -5.492 -20.685  0.00  0.00    +0.019 C 
ATOM     35  C   UNL     1      31.945  -6.547 -19.848  0.00  0.00    +0.098 C 
ATOM     36  C   UNL     1      30.665  -4.688 -22.846  0.00  0.00    +0.033 C 
ENDBRANCH  28  31
ENDBRANCH  25  28
ENDBRANCH  23  26
ENDBRANCH   2  23
TORSDOF 8
ENDMDL
MODEL 2
REMARK VINA RESULT:     -12.0      8.173     13.775
REMARK  Name = 6323250
REMARK  8 active torsions:
REMARK  status: ('A' for Active; 'I' for Inactive)
REMARK    1  A    between atoms: N_2  and  C_23
REMARK    2  A    between atoms: N_3  and  C_5
REMARK    3  A    between atoms: N_3  and  C_12
REMARK    4  A    between atoms: C_12  and  C_15
REMARK    5  A    between atoms: C_15  and  C_17
REMARK    6  A    between atoms: C_23  and  C_26
REMARK    7  A    between atoms: N_25  and  C_28
REMARK    8  A    between atoms: C_28  and  C_31
REMARK                            x       y       z     vdW  Elec       q    Type
REMARK                         _______ _______ _______ _____ _____    ______ ____
ROOT
ATOM      1  O   UNL     1      33.945 -23.909 -16.010  0.00  0.00    -0.271 OA
ATOM      2  N   UNL     1      31.774 -23.613 -15.208  0.00  0.00    -0.250 N 
ATOM      3  N   UNL     1      31.323 -22.032 -17.391  0.00  0.00    -0.313 N 
ATOM      4  C   UNL     1      32.529 -22.570 -17.262  0.00  0.00    +0.207 C 
ATOM      5  C   UNL     1      30.528 -23.020 -15.397  0.00  0.00    +0.046 C 
ATOM      6  C   UNL     1      32.825 -23.417 -16.123  0.00  0.00    +0.263 C 
ATOM      7  C   UNL     1      30.329 -22.248 -16.474  0.00  0.00    +0.070 C 
ATOM      8  C   UNL     1      29.428 -23.248 -14.400  0.00  0.00    +0.049 C 
ATOM      9  H   UNL     1      31.137 -21.460 -18.170  0.00  0.00    +0.148 HD
ENDROOT
BRANCH   4  10
ATOM     10  N   UNL     1      33.522 -22.389 -18.123  0.00  0.00    -0.271 NA
ATOM     11  H   UNL     1      34.254 -23.046 -18.157  0.00  0.00    +0.125 HD
BRANCH  10  12
ATOM     12  C   UNL     1      33.553 -21.239 -19.019  0.00  0.00    +0.140 C 
BRANCH  12  15
ATOM     13  F   UNL     1      35.491 -22.147 -19.966  0.00  0.00    -0.201 F 
ATOM     14  F   UNL     1      35.734 -20.758 -18.319  0.00  0.00    -0.201 F 
ATOM     15  C   UNL     1      34.995 -20.988 -19.443  0.00  0.00    +0.298 C 
BRANCH  15  17
ATOM     16  N   UNL     1      36.210 -19.147 -20.442  0.00  0.00    -0.325 N 
ATOM     17  C   UNL     1      35.076 -19.842 -20.421  0.00  0.00    +0.155 C 
ATOM     18  C   UNL     1      34.023 -19.536 -21.250  0.00  0.00    -0.001 C 
ATOM     19  C   UNL     1      36.379 -18.111 -21.275  0.00  0.00    +0.058 C 
ATOM     20  C   UNL     1      34.171 -18.464 -22.125  0.00  0.00    -0.001 C 
ATOM     21  C   UNL     1      35.360 -17.742 -22.142  0.00  0.00    +0.015 C 
ATOM     22  H   UNL     1      36.940 -19.399 -19.832  0.00  0.00    +0.147 HD
ENDBRANCH  15  17
ENDBRANCH  12  15
ENDBRANCH  10  12
ENDBRANCH   4  10
BRANCH   2  23
ATOM     23  C   UNL     1      32.008 -24.455 -14.036  0.00  0.00    +0.183 C 
BRANCH  23  26
ATOM     24  O   UNL     1      32.833 -22.804 -12.476  0.00  0.00    -0.273 OA
ATOM     25  N   UNL     1      34.270 -24.466 -13.237  0.00  0.00    -0.298 N 
ATOM     26  C   UNL     1      33.051 -23.810 -13.148  0.00  0.00    +0.243 C 
ATOM     27  H   UNL     1      34.331 -25.265 -13.808  0.00  0.00    +0.150 HD
BRANCH  25  28
ATOM     28  C   UNL     1      35.456 -24.033 -12.532  0.00  0.00    +0.138 C 
BRANCH  28  31
ATOM     29  F   UNL     1      37.701 -25.717 -12.287  0.00  0.00    -0.203 F 
ATOM     30  N   UNL     1      36.584 -22.984 -14.398  0.00  0.00    -0.244 NA
ATOM     31  C   UNL     1      36.645 -23.934 -13.443  0.00  0.00    +0.106 C 
ATOM     32  C   UNL     1      37.708 -24.796 -13.259  0.00  0.00    +0.151 C 
ATOM     33  C   UNL     1      38.792 -24.675 -14.122  0.00  0.00    +0.008 C 
ATOM     34  C   UNL     1      38.772 -23.710 -15.123  0.00  0.00    +0.019 C 
ATOM     35  C   UNL     1      37.655 -22.897 -15.218  0.00  0.00    +0.098 C 
ATOM     36  C   UNL     1      39.972 -25.575 -13.977  0.00  0.00    +0.033 C 
ENDBRANCH  28  31
ENDBRANCH  25  28
ENDBRANCH  23  26
ENDBRANCH   2  23
TORSDOF 8
ENDMDL
MODEL 3
REMARK VINA RESULT:     -11.9      1.573      2.248
REMARK  Name = 6323250
REMARK  8 active torsions:
REMARK  status: ('A' for Active; 'I' for Inactive)
REMARK    1  A    between atoms: N_2  and  C_23
REMARK    2  A    between atoms: N_3  and  C_5
REMARK    3  A    between atoms: N_3  and  C_12
REMARK    4  A    between atoms: C_12  and  C_15
REMARK    5  A    between atoms: C_15  and  C_17
REMARK    6  A    between atoms: C_23  and  C_26
REMARK    7  A    between atoms: N_25  and  C_28
REMARK    8  A    between atoms: C_28  and  C_31
REMARK                            x       y       z     vdW  Elec       q    Type
REMARK                         _______ _______ _______ _____ _____    ______ ____
ROOT
ATOM      1  O   UNL     1      33.469 -14.541 -24.275  0.00  0.00    -0.271 OA
ATOM      2  N   UNL     1      32.682 -13.402 -22.396  0.00  0.00    -0.250 N 
ATOM      3  N   UNL     1      34.151 -15.146 -20.889  0.00  0.00    -0.313 N 
ATOM      4  C   UNL     1      34.189 -15.292 -22.206  0.00  0.00    +0.207 C 
ATOM      5  C   UNL     1      32.681 -13.299 -21.007  0.00  0.00    +0.046 C 
ATOM      6  C   UNL     1      33.429 -14.396 -23.056  0.00  0.00    +0.263 C 
ATOM      7  C   UNL     1      33.408 -14.164 -20.287  0.00  0.00    +0.070 C 
ATOM      8  C   UNL     1      31.872 -12.228 -20.334  0.00  0.00    +0.049 C 
ATOM      9  H   UNL     1      34.672 -15.761 -20.325  0.00  0.00    +0.148 HD
ENDROOT
BRANCH   4  10
ATOM     10  N   UNL     1      34.893 -16.226 -22.832  0.00  0.00    -0.271 NA
ATOM     11  H   UNL     1      35.682 -15.962 -23.359  0.00  0.00    +0.125 HD
BRANCH  10  12
ATOM     12  C   UNL     1      34.524 -17.635 -22.757  0.00  0.00    +0.140 C 
BRANCH  12  15
ATOM     13  F   UNL     1      36.294 -17.434 -21.238  0.00  0.00    -0.201 F 
ATOM     14  F   UNL     1      36.439 -18.981 -22.751  0.00  0.00    -0.201 F 
ATOM     15  C   UNL     1      35.557 -18.367 -21.909  0.00  0.00    +0.298 C 
BRANCH  15  17
ATOM     16  N   UNL     1      33.563 -19.409 -21.014  0.00  0.00    -0.325 N 
ATOM     17  C   UNL     1      34.891 -19.345 -20.974  0.00  0.00    +0.155 C 
ATOM     18  C   UNL     1      35.628 -20.132 -20.121  0.00  0.00    -0.001 C 
ATOM     19  C   UNL     1      32.879 -20.246 -20.222  0.00  0.00    +0.058 C 
ATOM     20  C   UNL     1      34.943 -21.010 -19.286  0.00  0.00    -0.001 C 
ATOM     21  C   UNL     1      33.555 -21.072 -19.334  0.00  0.00    +0.015 C 
ATOM     22  H   UNL     1      33.073 -18.829 -21.639  0.00  0.00    +0.147 HD
ENDBRANCH  15  17
ENDBRANCH  12  15
ENDBRANCH  10  12
ENDBRANCH   4  10
BRANCH   2  23
ATOM     23  C   UNL     1      31.893 -12.468 -23.196  0.00  0.00    +0.183 C 
BRANCH  23  26
ATOM     24  O   UNL     1      33.863 -11.198 -23.782  0.00  0.00    -0.273 OA
ATOM     25  N   UNL     1      31.937 -10.070 -23.132  0.00  0.00    -0.298 N 
ATOM     26  C   UNL     1      32.687 -11.200 -23.425  0.00  0.00    +0.243 C 
ATOM     27  H   UNL     1      31.000 -10.190 -22.854  0.00  0.00    +0.150 HD
BRANCH  25  28
ATOM     28  C   UNL     1      32.463  -8.726 -23.216  0.00  0.00    +0.138 C 
BRANCH  28  31
ATOM     29  F   UNL     1      32.044  -5.945 -23.376  0.00  0.00    -0.203 F 
ATOM     30  N   UNL     1      31.934  -8.560 -20.861  0.00  0.00    -0.244 NA
ATOM     31  C   UNL     1      32.074  -7.897 -22.026  0.00  0.00    +0.106 C 
ATOM     32  C   UNL     1      31.886  -6.537 -22.185  0.00  0.00    +0.151 C 
ATOM     33  C   UNL     1      31.527  -5.802 -21.061  0.00  0.00    +0.008 C 
ATOM     34  C   UNL     1      31.371  -6.444 -19.838  0.00  0.00    +0.019 C 
ATOM     35  C   UNL     1      31.583  -7.812 -19.791  0.00  0.00    +0.098 C 
ATOM     36  C   UNL     1      31.309  -4.330 -21.164  0.00  0.00    +0.033 C 
ENDBRANCH  28  31
ENDBRANCH  25  28
ENDBRANCH  23  26
ENDBRANCH   2  23
TORSDOF 8
ENDMDL
MODEL 4
REMARK VINA RESULT:     -11.8      4.189     12.381
REMARK  Name = 6323250
REMARK  8 active torsions:
REMARK  status: ('A' for Active; 'I' for Inactive)
REMARK    1  A    between atoms: N_2  and  C_23
REMARK    2  A    between atoms: N_3  and  C_5
REMARK    3  A    between atoms: N_3  and  C_12
REMARK    4  A    between atoms: C_12  and  C_15
REMARK    5  A    between atoms: C_15  and  C_17
REMARK    6  A    between atoms: C_23  and  C_26
REMARK    7  A    between atoms: N_25  and  C_28
REMARK    8  A    between atoms: C_28  and  C_31
REMARK                            x       y       z     vdW  Elec       q    Type
REMARK                         _______ _______ _______ _____ _____    ______ ____
ROOT
ATOM      1  O   UNL     1      36.611 -19.324 -20.604  0.00  0.00    -0.271 OA
ATOM      2  N   UNL     1      34.985 -20.705 -19.658  0.00  0.00    -0.250 N 
ATOM      3  N   UNL     1      33.120 -19.108 -20.857  0.00  0.00    -0.313 N 
ATOM      4  C   UNL     1      34.397 -18.803 -21.041  0.00  0.00    +0.207 C 
ATOM      5  C   UNL     1      33.628 -20.975 -19.500  0.00  0.00    +0.046 C 
ATOM      6  C   UNL     1      35.431 -19.615 -20.429  0.00  0.00    +0.263 C 
ATOM      7  C   UNL     1      32.731 -20.179 -20.096  0.00  0.00    +0.070 C 
ATOM      8  C   UNL     1      33.186 -22.145 -18.670  0.00  0.00    +0.049 C 
ATOM      9  H   UNL     1      32.430 -18.548 -21.279  0.00  0.00    +0.148 HD
ENDROOT
BRANCH   4  10
ATOM     10  N   UNL     1      34.821 -17.777 -21.768  0.00  0.00    -0.271 NA
ATOM     11  H   UNL     1      35.287 -17.951 -22.618  0.00  0.00    +0.125 HD
BRANCH  10  12
ATOM     12  C   UNL     1      34.614 -16.400 -21.335  0.00  0.00    +0.140 C 
BRANCH  12  15
ATOM     13  F   UNL     1      33.507 -16.379 -23.398  0.00  0.00    -0.201 F 
ATOM     14  F   UNL     1      35.318 -15.200 -23.218  0.00  0.00    -0.201 F 
ATOM     15  C   UNL     1      34.192 -15.568 -22.540  0.00  0.00    +0.298 C 
BRANCH  15  17
ATOM     16  N   UNL     1      32.933 -13.567 -23.069  0.00  0.00    -0.325 N 
ATOM     17  C   UNL     1      33.374 -14.375 -22.109  0.00  0.00    +0.155 C 
ATOM     18  C   UNL     1      33.101 -14.140 -20.782  0.00  0.00    -0.001 C 
ATOM     19  C   UNL     1      32.199 -12.482 -22.788  0.00  0.00    +0.058 C 
ATOM     20  C   UNL     1      32.341 -13.019 -20.461  0.00  0.00    -0.001 C 
ATOM     21  C   UNL     1      31.883 -12.179 -21.471  0.00  0.00    +0.015 C 
ATOM     22  H   UNL     1      33.151 -13.772 -24.007  0.00  0.00    +0.147 HD
ENDBRANCH  15  17
ENDBRANCH  12  15
ENDBRANCH  10  12
ENDBRANCH   4  10
BRANCH   2  23
ATOM     23  C   UNL     1      35.977 -21.562 -19.012  0.00  0.00    +0.183 C 
BRANCH  23  26
ATOM     24  O   UNL     1      36.753 -20.031 -17.312  0.00  0.00    -0.273 OA
ATOM     25  N   UNL     1      35.763 -22.034 -16.670  0.00  0.00    -0.298 N 
ATOM     26  C   UNL     1      36.204 -21.094 -17.591  0.00  0.00    +0.243 C 
ATOM     27  H   UNL     1      35.335 -22.854 -17.007  0.00  0.00    +0.150 HD
BRANCH  25  28
ATOM     28  C   UNL     1      35.901 -21.868 -15.240  0.00  0.00    +0.138 C 
BRANCH  28  31
ATOM     29  F   UNL     1      38.528 -22.687 -15.842  0.00  0.00    -0.203 F 
ATOM     30  N   UNL     1      35.789 -23.733 -13.703  0.00  0.00    -0.244 NA
ATOM     31  C   UNL     1      36.543 -23.063 -14.596  0.00  0.00    +0.106 C 
ATOM     32  C   UNL     1      37.837 -23.401 -14.944  0.00  0.00    +0.151 C 
ATOM     33  C   UNL     1      38.399 -24.513 -14.327  0.00  0.00    +0.008 C 
ATOM     34  C   UNL     1      37.658 -25.235 -13.398  0.00  0.00    +0.019 C 
ATOM     35  C   UNL     1      36.369 -24.808 -13.123  0.00  0.00    +0.098 C 
ATOM     36  C   UNL     1      39.791 -24.932 -14.658  0.00  0.00    +0.033 C 
ENDBRANCH  28  31
ENDBRANCH  25  28
ENDBRANCH  23  26
ENDBRANCH   2  23
TORSDOF 8
ENDMDL
MODEL 5
REMARK VINA RESULT:     -11.8      4.554      8.517
REMARK  Name = 6323250
REMARK  8 active torsions:
REMARK  status: ('A' for Active; 'I' for Inactive)
REMARK    1  A    between atoms: N_2  and  C_23
REMARK    2  A    between atoms: N_3  and  C_5
REMARK    3  A    between atoms: N_3  and  C_12
REMARK    4  A    between atoms: C_12  and  C_15
REMARK    5  A    between atoms: C_15  and  C_17
REMARK    6  A    between atoms: C_23  and  C_26
REMARK    7  A    between atoms: N_25  and  C_28
REMARK    8  A    between atoms: C_28  and  C_31
REMARK                            x       y       z     vdW  Elec       q    Type
REMARK                         _______ _______ _______ _____ _____    ______ ____
ROOT
ATOM      1  O   UNL     1      36.441 -21.467 -18.878  0.00  0.00    -0.271 OA
ATOM      2  N   UNL     1      34.355 -20.862 -19.733  0.00  0.00    -0.250 N 
ATOM      3  N   UNL     1      33.262 -21.958 -17.480  0.00  0.00    -0.313 N 
ATOM      4  C   UNL     1      34.582 -21.993 -17.600  0.00  0.00    +0.207 C 
ATOM      5  C   UNL     1      32.974 -20.855 -19.551  0.00  0.00    +0.046 C 
ATOM      6  C   UNL     1      35.217 -21.428 -18.775  0.00  0.00    +0.263 C 
ATOM      7  C   UNL     1      32.459 -21.398 -18.440  0.00  0.00    +0.070 C 
ATOM      8  C   UNL     1      32.082 -20.246 -20.593  0.00  0.00    +0.049 C 
ATOM      9  H   UNL     1      32.845 -22.345 -16.678  0.00  0.00    +0.148 HD
ENDROOT
BRANCH   4  10
ATOM     10  N   UNL     1      35.398 -22.524 -16.699  0.00  0.00    -0.271 NA
ATOM     11  H   UNL     1      36.083 -23.169 -16.991  0.00  0.00    +0.125 HD
BRANCH  10  12
ATOM     12  C   UNL     1      35.304 -22.174 -15.287  0.00  0.00    +0.140 C 
BRANCH  12  15
ATOM     13  F   UNL     1      34.353 -24.312 -15.203  0.00  0.00    -0.201 F 
ATOM     14  F   UNL     1      34.388 -23.155 -13.369  0.00  0.00    -0.201 F 
ATOM     15  C   UNL     1      35.127 -23.453 -14.477  0.00  0.00    +0.298 C 
BRANCH  15  17
ATOM     16  N   UNL     1      37.476 -23.805 -14.948  0.00  0.00    -0.325 N 
ATOM     17  C   UNL     1      36.464 -24.054 -14.122  0.00  0.00    +0.155 C 
ATOM     18  C   UNL     1      36.623 -24.825 -12.994  0.00  0.00    -0.001 C 
ATOM     19  C   UNL     1      38.702 -24.294 -14.719  0.00  0.00    +0.058 C 
ATOM     20  C   UNL     1      37.886 -25.347 -12.732  0.00  0.00    -0.001 C 
ATOM     21  C   UNL     1      38.940 -25.081 -13.600  0.00  0.00    +0.015 C 
ATOM     22  H   UNL     1      37.321 -23.248 -15.744  0.00  0.00    +0.147 HD
ENDBRANCH  15  17
ENDBRANCH  12  15
ENDBRANCH  10  12
ENDBRANCH   4  10
BRANCH   2  23
ATOM     23  C   UNL     1      34.933 -20.277 -20.940  0.00  0.00    +0.183 C 
BRANCH  23  26
ATOM     24  O   UNL     1      36.440 -18.621 -20.033  0.00  0.00    -0.273 OA
ATOM     25  N   UNL     1      34.501 -17.923 -21.108  0.00  0.00    -0.298 N 
ATOM     26  C   UNL     1      35.405 -18.869 -20.646  0.00  0.00    +0.243 C 
ATOM     27  H   UNL     1      33.701 -18.235 -21.589  0.00  0.00    +0.150 HD
BRANCH  25  28
ATOM     28  C   UNL     1      34.676 -16.500 -20.918  0.00  0.00    +0.138 C 
BRANCH  28  31
ATOM     29  F   UNL     1      34.063 -13.753 -20.803  0.00  0.00    -0.203 F 
ATOM     30  N   UNL     1      34.171 -16.402 -23.282  0.00  0.00    -0.244 NA
ATOM     31  C   UNL     1      34.248 -15.716 -22.124  0.00  0.00    +0.106 C 
ATOM     32  C   UNL     1      33.964 -14.371 -21.987  0.00  0.00    +0.151 C 
ATOM     33  C   UNL     1      33.572 -13.677 -23.126  0.00  0.00    +0.008 C 
ATOM     34  C   UNL     1      33.478 -14.344 -24.343  0.00  0.00    +0.019 C 
ATOM     35  C   UNL     1      33.786 -15.694 -24.367  0.00  0.00    +0.098 C 
ATOM     36  C   UNL     1      33.251 -12.223 -23.047  0.00  0.00    +0.033 C 
ENDBRANCH  28  31
ENDBRANCH  25  28
ENDBRANCH  23  26
ENDBRANCH   2  23
TORSDOF 8
ENDMDL
MODEL 6
REMARK VINA RESULT:     -11.8      3.058     10.976
REMARK  Name = 6323250
REMARK  8 active torsions:
REMARK  status: ('A' for Active; 'I' for Inactive)
REMARK    1  A    between atoms: N_2  and  C_23
REMARK    2  A    between atoms: N_3  and  C_5
REMARK    3  A    between atoms: N_3  and  C_12
REMARK    4  A    between atoms: C_12  and  C_15
REMARK    5  A    between atoms: C_15  and  C_17
REMARK    6  A    between atoms: C_23  and  C_26
REMARK    7  A    between atoms: N_25  and  C_28
REMARK    8  A    between atoms: C_28  and  C_31
REMARK                            x       y       z     vdW  Elec       q    Type
REMARK                         _______ _______ _______ _____ _____    ______ ____
ROOT
ATOM      1  O   UNL     1      34.886 -16.461 -20.246  0.00  0.00    -0.271 OA
ATOM      2  N   UNL     1      34.698 -17.989 -21.999  0.00  0.00    -0.250 N 
ATOM      3  N   UNL     1      33.851 -15.905 -23.551  0.00  0.00    -0.313 N 
ATOM      4  C   UNL     1      34.154 -15.644 -22.287  0.00  0.00    +0.207 C 
ATOM      5  C   UNL     1      34.364 -18.202 -23.335  0.00  0.00    +0.046 C 
ATOM      6  C   UNL     1      34.609 -16.712 -21.417  0.00  0.00    +0.263 C 
ATOM      7  C   UNL     1      33.950 -17.166 -24.077  0.00  0.00    +0.070 C 
ATOM      8  C   UNL     1      34.468 -19.578 -23.926  0.00  0.00    +0.049 C 
ATOM      9  H   UNL     1      33.544 -15.170 -24.129  0.00  0.00    +0.148 HD
ENDROOT
BRANCH   4  10
ATOM     10  N   UNL     1      34.073 -14.441 -21.733  0.00  0.00    -0.271 NA
ATOM     11  H   UNL     1      34.888 -14.022 -21.373  0.00  0.00    +0.125 HD
BRANCH  10  12
ATOM     12  C   UNL     1      32.805 -13.727 -21.647  0.00  0.00    +0.140 C 
BRANCH  12  15
ATOM     13  F   UNL     1      32.140 -13.216 -23.832  0.00  0.00    -0.201 F 
ATOM     14  F   UNL     1      34.042 -12.429 -23.152  0.00  0.00    -0.201 F 
ATOM     15  C   UNL     1      32.762 -12.672 -22.746  0.00  0.00    +0.298 C 
BRANCH  15  17
ATOM     16  N   UNL     1      32.195 -10.334 -23.020  0.00  0.00    -0.325 N 
ATOM     17  C   UNL     1      32.073 -11.420 -22.263  0.00  0.00    +0.155 C 
ATOM     18  C   UNL     1      31.352 -11.410 -21.092  0.00  0.00    -0.001 C 
ATOM     19  C   UNL     1      31.620  -9.173 -22.676  0.00  0.00    +0.058 C 
ATOM     20  C   UNL     1      30.744 -10.217 -20.710  0.00  0.00    -0.001 C 
ATOM     21  C   UNL     1      30.876  -9.085 -21.507  0.00  0.00    +0.015 C 
ATOM     22  H   UNL     1      32.719 -10.384 -23.851  0.00  0.00    +0.147 HD
ENDBRANCH  15  17
ENDBRANCH  12  15
ENDBRANCH  10  12
ENDBRANCH   4  10
BRANCH   2  23
ATOM     23  C   UNL     1      35.148 -19.109 -21.175  0.00  0.00    +0.183 C 
BRANCH  23  26
ATOM     24  O   UNL     1      32.792 -19.439 -20.750  0.00  0.00    -0.273 OA
ATOM     25  N   UNL     1      34.329 -20.932 -19.847  0.00  0.00    -0.298 N 
ATOM     26  C   UNL     1      33.948 -19.829 -20.598  0.00  0.00    +0.243 C 
ATOM     27  H   UNL     1      35.287 -21.152 -19.794  0.00  0.00    +0.150 HD
BRANCH  25  28
ATOM     28  C   UNL     1      33.389 -21.773 -19.140  0.00  0.00    +0.138 C 
BRANCH  28  31
ATOM     29  F   UNL     1      31.652 -22.702 -17.127  0.00  0.00    -0.203 F 
ATOM     30  N   UNL     1      35.175 -21.916 -17.513  0.00  0.00    -0.244 NA
ATOM     31  C   UNL     1      33.860 -22.096 -17.752  0.00  0.00    +0.106 C 
ATOM     32  C   UNL     1      32.946 -22.547 -16.819  0.00  0.00    +0.151 C 
ATOM     33  C   UNL     1      33.419 -22.837 -15.544  0.00  0.00    +0.008 C 
ATOM     34  C   UNL     1      34.768 -22.667 -15.252  0.00  0.00    +0.019 C 
ATOM     35  C   UNL     1      35.597 -22.208 -16.263  0.00  0.00    +0.098 C 
ATOM     36  C   UNL     1      32.484 -23.328 -14.490  0.00  0.00    +0.033 C 
ENDBRANCH  28  31
ENDBRANCH  25  28
ENDBRANCH  23  26
ENDBRANCH   2  23
TORSDOF 8
ENDMDL
MODEL 7
REMARK VINA RESULT:     -11.6      9.828     13.534
REMARK  Name = 6323250
REMARK  8 active torsions:
REMARK  status: ('A' for Active; 'I' for Inactive)
REMARK    1  A    between atoms: N_2  and  C_23
REMARK    2  A    between atoms: N_3  and  C_5
REMARK    3  A    between atoms: N_3  and  C_12
REMARK    4  A    between atoms: C_12  and  C_15
REMARK    5  A    between atoms: C_15  and  C_17
REMARK    6  A    between atoms: C_23  and  C_26
REMARK    7  A    between atoms: N_25  and  C_28
REMARK    8  A    between atoms: C_28  and  C_31
REMARK                            x       y       z     vdW  Elec       q    Type
REMARK                         _______ _______ _______ _____ _____    ______ ____
ROOT
ATOM      1  O   UNL     1      34.892 -25.052 -15.080  0.00  0.00    -0.271 OA
ATOM      2  N   UNL     1      36.293 -24.124 -13.461  0.00  0.00    -0.250 N 
ATOM      3  N   UNL     1      34.033 -23.452 -12.079  0.00  0.00    -0.313 N 
ATOM      4  C   UNL     1      33.880 -24.086 -13.234  0.00  0.00    +0.207 C 
ATOM      5  C   UNL     1      36.391 -23.456 -12.242  0.00  0.00    +0.046 C 
ATOM      6  C   UNL     1      35.044 -24.466 -14.010  0.00  0.00    +0.263 C 
ATOM      7  C   UNL     1      35.270 -23.135 -11.582  0.00  0.00    +0.070 C 
ATOM      8  C   UNL     1      37.739 -23.103 -11.684  0.00  0.00    +0.049 C 
ATOM      9  H   UNL     1      33.234 -23.200 -11.564  0.00  0.00    +0.148 HD
ENDROOT
BRANCH   4  10
ATOM     10  N   UNL     1      32.704 -24.412 -13.754  0.00  0.00    -0.271 NA
ATOM     11  H   UNL     1      32.459 -25.363 -13.829  0.00  0.00    +0.125 HD
BRANCH  10  12
ATOM     12  C   UNL     1      31.769 -23.395 -14.220  0.00  0.00    +0.140 C 
BRANCH  12  15
ATOM     13  F   UNL     1      30.186 -23.019 -12.536  0.00  0.00    -0.201 F 
ATOM     14  F   UNL     1      30.374 -25.038 -13.305  0.00  0.00    -0.201 F 
ATOM     15  C   UNL     1      30.380 -23.727 -13.687  0.00  0.00    +0.298 C 
BRANCH  15  17
ATOM     16  N   UNL     1      28.881 -22.180 -14.793  0.00  0.00    -0.325 N 
ATOM     17  C   UNL     1      29.322 -23.432 -14.721  0.00  0.00    +0.155 C 
ATOM     18  C   UNL     1      28.841 -24.419 -15.549  0.00  0.00    -0.001 C 
ATOM     19  C   UNL     1      27.942 -21.819 -15.679  0.00  0.00    +0.058 C 
ATOM     20  C   UNL     1      27.864 -24.072 -16.479  0.00  0.00    -0.001 C 
ATOM     21  C   UNL     1      27.408 -22.760 -16.548  0.00  0.00    +0.015 C 
ATOM     22  H   UNL     1      29.252 -21.504 -14.182  0.00  0.00    +0.147 HD
ENDBRANCH  15  17
ENDBRANCH  12  15
ENDBRANCH  10  12
ENDBRANCH   4  10
BRANCH   2  23
ATOM     23  C   UNL     1      37.506 -24.478 -14.195  0.00  0.00    +0.183 C 
BRANCH  23  26
ATOM     24  O   UNL     1      38.963 -23.035 -15.473  0.00  0.00    -0.273 OA
ATOM     25  N   UNL     1      36.661 -22.854 -15.745  0.00  0.00    -0.298 N 
ATOM     26  C   UNL     1      37.819 -23.398 -15.208  0.00  0.00    +0.243 C 
ATOM     27  H   UNL     1      35.795 -23.224 -15.461  0.00  0.00    +0.150 HD
BRANCH  25  28
ATOM     28  C   UNL     1      36.664 -21.770 -16.702  0.00  0.00    +0.138 C 
BRANCH  28  31
ATOM     29  F   UNL     1      36.411 -20.254 -19.063  0.00  0.00    -0.203 F 
ATOM     30  N   UNL     1      34.365 -22.450 -17.022  0.00  0.00    -0.244 NA
ATOM     31  C   UNL     1      35.393 -21.721 -17.499  0.00  0.00    +0.106 C 
ATOM     32  C   UNL     1      35.347 -20.955 -18.647  0.00  0.00    +0.151 C 
ATOM     33  C   UNL     1      34.154 -20.934 -19.360  0.00  0.00    +0.008 C 
ATOM     34  C   UNL     1      33.066 -21.671 -18.905  0.00  0.00    +0.019 C 
ATOM     35  C   UNL     1      33.221 -22.406 -17.741  0.00  0.00    +0.098 C 
ATOM     36  C   UNL     1      34.037 -20.126 -20.608  0.00  0.00    +0.033 C 
ENDBRANCH  28  31
ENDBRANCH  25  28
ENDBRANCH  23  26
ENDBRANCH   2  23
TORSDOF 8
ENDMDL
MODEL 8
REMARK VINA RESULT:     -11.5      8.107     13.221
REMARK  Name = 6323250
REMARK  8 active torsions:
REMARK  status: ('A' for Active; 'I' for Inactive)
REMARK    1  A    between atoms: N_2  and  C_23
REMARK    2  A    between atoms: N_3  and  C_5
REMARK    3  A    between atoms: N_3  and  C_12
REMARK    4  A    between atoms: C_12  and  C_15
REMARK    5  A    between atoms: C_15  and  C_17
REMARK    6  A    between atoms: C_23  and  C_26
REMARK    7  A    between atoms: N_25  and  C_28
REMARK    8  A    between atoms: C_28  and  C_31
REMARK                            x       y       z     vdW  Elec       q    Type
REMARK                         _______ _______ _______ _____ _____    ______ ____
ROOT
ATOM      1  O   UNL     1      34.231 -23.075 -15.957  0.00  0.00    -0.271 OA
ATOM      2  N   UNL     1      36.101 -23.940 -14.861  0.00  0.00    -0.250 N 
ATOM      3  N   UNL     1      37.582 -22.066 -16.189  0.00  0.00    -0.313 N 
ATOM      4  C   UNL     1      36.276 -22.088 -16.416  0.00  0.00    +0.207 C 
ATOM      5  C   UNL     1      37.478 -23.870 -14.664  0.00  0.00    +0.046 C 
ATOM      6  C   UNL     1      35.440 -23.061 -15.739  0.00  0.00    +0.263 C 
ATOM      7  C   UNL     1      38.185 -22.944 -15.326  0.00  0.00    +0.070 C 
ATOM      8  C   UNL     1      38.153 -24.824 -13.721  0.00  0.00    +0.049 C 
ATOM      9  H   UNL     1      38.136 -21.400 -16.655  0.00  0.00    +0.148 HD
ENDROOT
BRANCH   4  10
ATOM     10  N   UNL     1      35.649 -21.261 -17.241  0.00  0.00    -0.271 NA
ATOM     11  H   UNL     1      34.869 -20.756 -16.915  0.00  0.00    +0.125 HD
BRANCH  10  12
ATOM     12  C   UNL     1      36.090 -21.082 -18.620  0.00  0.00    +0.140 C 
BRANCH  12  15
ATOM     13  F   UNL     1      33.764 -20.833 -18.720  0.00  0.00    -0.201 F 
ATOM     14  F   UNL     1      34.691 -22.193 -20.132  0.00  0.00    -0.201 F 
ATOM     15  C   UNL     1      34.862 -20.987 -19.517  0.00  0.00    +0.298 C 
BRANCH  15  17
ATOM     16  N   UNL     1      36.137 -19.161 -20.469  0.00  0.00    -0.325 N 
ATOM     17  C   UNL     1      35.006 -19.859 -20.509  0.00  0.00    +0.155 C 
ATOM     18  C   UNL     1      34.010 -19.573 -21.412  0.00  0.00    -0.001 C 
ATOM     19  C   UNL     1      36.360 -18.141 -21.308  0.00  0.00    +0.058 C 
ATOM     20  C   UNL     1      34.214 -18.517 -22.296  0.00  0.00    -0.001 C 
ATOM     21  C   UNL     1      35.400 -17.792 -22.248  0.00  0.00    +0.015 C 
ATOM     22  H   UNL     1      36.825 -19.399 -19.807  0.00  0.00    +0.147 HD
ENDBRANCH  15  17
ENDBRANCH  12  15
ENDBRANCH  10  12
ENDBRANCH   4  10
BRANCH   2  23
ATOM     23  C   UNL     1      35.315 -24.946 -14.149  0.00  0.00    +0.183 C 
BRANCH  23  26
ATOM     24  O   UNL     1      34.683 -23.763 -12.139  0.00  0.00    -0.273 OA
ATOM     25  N   UNL     1      33.045 -24.319 -13.693  0.00  0.00    -0.298 N 
ATOM     26  C   UNL     1      34.345 -24.261 -13.211  0.00  0.00    +0.243 C 
ATOM     27  H   UNL     1      32.889 -24.743 -14.567  0.00  0.00    +0.150 HD
BRANCH  25  28
ATOM     28  C   UNL     1      31.909 -23.787 -12.974  0.00  0.00    +0.138 C 
BRANCH  28  31
ATOM     29  F   UNL     1      30.984 -21.832 -14.780  0.00  0.00    -0.203 F 
ATOM     30  N   UNL     1      29.941 -25.079 -13.535  0.00  0.00    -0.244 NA
ATOM     31  C   UNL     1      30.633 -23.942 -13.749  0.00  0.00    +0.106 C 
ATOM     32  C   UNL     1      30.246 -22.938 -14.617  0.00  0.00    +0.151 C 
ATOM     33  C   UNL     1      29.059 -23.116 -15.319  0.00  0.00    +0.008 C 
ATOM     34  C   UNL     1      28.313 -24.274 -15.129  0.00  0.00    +0.019 C 
ATOM     35  C   UNL     1      28.793 -25.217 -14.235  0.00  0.00    +0.098 C 
ATOM     36  C   UNL     1      28.585 -22.071 -16.270  0.00  0.00    +0.033 C 
ENDBRANCH  28  31
ENDBRANCH  25  28
ENDBRANCH  23  26
ENDBRANCH   2  23
TORSDOF 8
ENDMDL
MODEL 9
REMARK VINA RESULT:     -11.4      2.440      3.963
REMARK  Name = 6323250
REMARK  8 active torsions:
REMARK  status: ('A' for Active; 'I' for Inactive)
REMARK    1  A    between atoms: N_2  and  C_23
REMARK    2  A    between atoms: N_3  and  C_5
REMARK    3  A    between atoms: N_3  and  C_12
REMARK    4  A    between atoms: C_12  and  C_15
REMARK    5  A    between atoms: C_15  and  C_17
REMARK    6  A    between atoms: C_23  and  C_26
REMARK    7  A    between atoms: N_25  and  C_28
REMARK    8  A    between atoms: C_28  and  C_31
REMARK                            x       y       z     vdW  Elec       q    Type
REMARK                         _______ _______ _______ _____ _____    ______ ____
ROOT
ATOM      1  O   UNL     1      35.338 -16.973 -20.411  0.00  0.00    -0.271 OA
ATOM      2  N   UNL     1      34.466 -16.778 -22.567  0.00  0.00    -0.250 N 
ATOM      3  N   UNL     1      33.780 -19.417 -22.386  0.00  0.00    -0.313 N 
ATOM      4  C   UNL     1      34.387 -18.869 -21.343  0.00  0.00    +0.207 C 
ATOM      5  C   UNL     1      33.828 -17.409 -23.632  0.00  0.00    +0.046 C 
ATOM      6  C   UNL     1      34.775 -17.472 -21.382  0.00  0.00    +0.263 C 
ATOM      7  C   UNL     1      33.501 -18.703 -23.522  0.00  0.00    +0.070 C 
ATOM      8  C   UNL     1      33.514 -16.640 -24.882  0.00  0.00    +0.049 C 
ATOM      9  H   UNL     1      33.523 -20.366 -22.344  0.00  0.00    +0.148 HD
ENDROOT
BRANCH   4  10
ATOM     10  N   UNL     1      34.678 -19.519 -20.224  0.00  0.00    -0.271 NA
ATOM     11  H   UNL     1      34.760 -19.015 -19.381  0.00  0.00    +0.125 HD
BRANCH  10  12
ATOM     12  C   UNL     1      34.882 -20.963 -20.213  0.00  0.00    +0.140 C 
BRANCH  12  15
ATOM     13  F   UNL     1      33.606 -22.779 -19.468  0.00  0.00    -0.201 F 
ATOM     14  F   UNL     1      32.966 -20.792 -18.880  0.00  0.00    -0.201 F 
ATOM     15  C   UNL     1      34.077 -21.562 -19.066  0.00  0.00    +0.298 C 
BRANCH  15  17
ATOM     16  N   UNL     1      36.070 -21.004 -17.809  0.00  0.00    -0.325 N 
ATOM     17  C   UNL     1      34.915 -21.662 -17.815  0.00  0.00    +0.155 C 
ATOM     18  C   UNL     1      34.496 -22.401 -16.734  0.00  0.00    -0.001 C 
ATOM     19  C   UNL     1      36.884 -21.030 -16.745  0.00  0.00    +0.058 C 
ATOM     20  C   UNL     1      35.323 -22.447 -15.615  0.00  0.00    -0.001 C 
ATOM     21  C   UNL     1      36.529 -21.755 -15.616  0.00  0.00    +0.015 C 
ATOM     22  H   UNL     1      36.332 -20.486 -18.603  0.00  0.00    +0.147 HD
ENDBRANCH  15  17
ENDBRANCH  12  15
ENDBRANCH  10  12
ENDBRANCH   4  10
BRANCH   2  23
ATOM     23  C   UNL     1      34.832 -15.367 -22.671  0.00  0.00    +0.183 C 
BRANCH  23  26
ATOM     24  O   UNL     1      33.814 -14.521 -20.649  0.00  0.00    -0.273 OA
ATOM     25  N   UNL     1      32.992 -13.828 -22.710  0.00  0.00    -0.298 N 
ATOM     26  C   UNL     1      33.852 -14.529 -21.878  0.00  0.00    +0.243 C 
ATOM     27  H   UNL     1      33.114 -13.908 -23.684  0.00  0.00    +0.150 HD
BRANCH  25  28
ATOM     28  C   UNL     1      31.923 -12.987 -22.219  0.00  0.00    +0.138 C 
BRANCH  28  31
ATOM     29  F   UNL     1      30.521 -10.929 -20.903  0.00  0.00    -0.203 F 
ATOM     30  N   UNL     1      33.149 -11.257 -23.385  0.00  0.00    -0.244 NA
ATOM     31  C   UNL     1      32.191 -11.533 -22.478  0.00  0.00    +0.106 C 
ATOM     32  C   UNL     1      31.461 -10.581 -21.792  0.00  0.00    +0.151 C 
ATOM     33  C   UNL     1      31.736  -9.244 -22.056  0.00  0.00    +0.008 C 
ATOM     34  C   UNL     1      32.717  -8.913 -22.984  0.00  0.00    +0.019 C 
ATOM     35  C   UNL     1      33.389  -9.947 -23.615  0.00  0.00    +0.098 C 
ATOM     36  C   UNL     1      30.984  -8.168 -21.350  0.00  0.00    +0.033 C 
ENDBRANCH  28  31
ENDBRANCH  25  28
ENDBRANCH  23  26
ENDBRANCH   2  23
TORSDOF 8
ENDMDL
