MODEL 1
REMARK VINA RESULT:     -12.5      0.000      0.000
REMARK  Name = 9562794
REMARK  7 active torsions:
REMARK  status: ('A' for Active; 'I' for Inactive)
REMARK    1  A    between atoms: N_1  and  C_2
REMARK    2  A    between atoms: N_1  and  N_16
REMARK    3  A    between atoms: C_2  and  C_5
REMARK    4  A    between atoms: C_6  and  O_13
REMARK    5  A    between atoms: C_17  and  C_19
REMARK    6  A    between atoms: C_22  and  O_25
REMARK    7  A    between atoms: C_23  and  O_27
REMARK                            x       y       z     vdW  Elec       q    Type
REMARK                         _______ _______ _______ _____ _____    ______ ____
ROOT
ATOM      1  N   UNL     1      35.845 -19.831 -19.523  0.00  0.00    -0.126 NA
ENDROOT
BRANCH   1   3
ATOM      2  O   UNL     1      37.034 -18.118 -21.295  0.00  0.00    -0.269 OA
ATOM      3  N   UNL     1      35.148 -19.200 -20.498  0.00  0.00    -0.228 N 
ATOM      4  C   UNL     1      35.829 -18.350 -21.349  0.00  0.00    +0.260 C 
ATOM      5  H   UNL     1      34.180 -19.343 -20.597  0.00  0.00    +0.171 HD
BRANCH   4   6
ATOM      6  C   UNL     1      35.003 -17.674 -22.383  0.00  0.00    +0.058 C 
ATOM      7  C   UNL     1      34.913 -16.297 -22.366  0.00  0.00    +0.044 C 
ATOM      8  C   UNL     1      34.352 -18.443 -23.324  0.00  0.00    +0.008 C 
ATOM      9  C   UNL     1      34.135 -15.662 -23.335  0.00  0.00    +0.168 C 
ATOM     10  C   UNL     1      33.467 -16.417 -24.299  0.00  0.00    +0.167 C 
ATOM     11  C   UNL     1      33.574 -17.808 -24.293  0.00  0.00    +0.040 C 
BRANCH   9  12
ATOM     12  O   UNL     1      34.037 -14.303 -23.330  0.00  0.00    -0.503 OA
ATOM     13  H   UNL     1      33.379 -13.883 -22.814  0.00  0.00    +0.292 HD
ENDBRANCH   9  12
BRANCH  10  14
ATOM     14  O   UNL     1      32.705 -15.809 -25.249  0.00  0.00    -0.503 OA
ATOM     15  H   UNL     1      33.016 -15.749 -26.131  0.00  0.00    +0.292 HD
ENDBRANCH  10  14
ENDBRANCH   4   6
ENDBRANCH   1   3
BRANCH   1  16
ATOM     16  C   UNL     1      35.590 -21.100 -19.418  0.00  0.00    +0.141 C 
BRANCH  16  19
ATOM     17  C   UNL     1      35.326 -21.959 -17.082  0.00  0.00    +0.000 C 
ATOM     18  C   UNL     1      34.490 -22.487 -16.070  0.00  0.00    -0.000 C 
ATOM     19  C   UNL     1      34.773 -21.648 -18.336  0.00  0.00    +0.031 C 
ATOM     20  C   UNL     1      33.416 -21.855 -18.586  0.00  0.00    +0.136 C 
ATOM     21  C   UNL     1      33.126 -22.689 -16.340  0.00  0.00    +0.003 C 
ATOM     22  C   UNL     1      36.688 -21.757 -16.812  0.00  0.00    -0.000 C 
ATOM     23  C   UNL     1      32.595 -22.375 -17.591  0.00  0.00    +0.037 C 
ATOM     24  C   UNL     1      35.042 -22.799 -14.817  0.00  0.00    -0.000 C 
ATOM     25  C   UNL     1      37.221 -22.072 -15.561  0.00  0.00    -0.000 C 
ATOM     26  C   UNL     1      36.399 -22.592 -14.565  0.00  0.00    -0.000 C 
BRANCH  20  27
ATOM     27  O   UNL     1      32.871 -21.556 -19.800  0.00  0.00    -0.472 OA
ATOM     28  C   UNL     1      32.092 -20.365 -19.884  0.00  0.00    +0.252 C 
ENDBRANCH  20  27
ENDBRANCH  16  19
ENDBRANCH   1  16
TORSDOF 7
ENDMDL
MODEL 2
REMARK VINA RESULT:     -12.3      3.829      8.850
REMARK  Name = 9562794
REMARK  7 active torsions:
REMARK  status: ('A' for Active; 'I' for Inactive)
REMARK    1  A    between atoms: N_1  and  C_2
REMARK    2  A    between atoms: N_1  and  N_16
REMARK    3  A    between atoms: C_2  and  C_5
REMARK    4  A    between atoms: C_6  and  O_13
REMARK    5  A    between atoms: C_17  and  C_19
REMARK    6  A    between atoms: C_22  and  O_25
REMARK    7  A    between atoms: C_23  and  O_27
REMARK                            x       y       z     vdW  Elec       q    Type
REMARK                         _______ _______ _______ _____ _____    ______ ____
ROOT
ATOM      1  N   UNL     1      36.626 -21.019 -16.789  0.00  0.00    -0.126 NA
ENDROOT
BRANCH   1   3
ATOM      2  O   UNL     1      38.142 -22.820 -15.395  0.00  0.00    -0.269 OA
ATOM      3  N   UNL     1      36.194 -21.595 -15.642  0.00  0.00    -0.228 N 
ATOM      4  C   UNL     1      37.025 -22.495 -15.003  0.00  0.00    +0.260 C 
ATOM      5  H   UNL     1      35.308 -21.377 -15.273  0.00  0.00    +0.171 HD
BRANCH   4   6
ATOM      6  C   UNL     1      36.482 -23.106 -13.761  0.00  0.00    +0.058 C 
ATOM      7  C   UNL     1      35.135 -23.398 -13.698  0.00  0.00    +0.044 C 
ATOM      8  C   UNL     1      37.341 -23.360 -12.714  0.00  0.00    +0.008 C 
ATOM      9  C   UNL     1      34.624 -23.970 -12.532  0.00  0.00    +0.168 C 
ATOM     10  C   UNL     1      35.472 -24.237 -11.457  0.00  0.00    +0.167 C 
ATOM     11  C   UNL     1      36.831 -23.932 -11.547  0.00  0.00    +0.040 C 
BRANCH   9  12
ATOM     12  O   UNL     1      33.296 -24.263 -12.455  0.00  0.00    -0.503 OA
ATOM     13  H   UNL     1      32.680 -23.592 -12.238  0.00  0.00    +0.292 HD
ENDBRANCH   9  12
BRANCH  10  14
ATOM     14  O   UNL     1      34.986 -24.795 -10.314  0.00  0.00    -0.503 OA
ATOM     15  H   UNL     1      35.478 -24.735  -9.518  0.00  0.00    +0.292 HD
ENDBRANCH  10  14
ENDBRANCH   4   6
ENDBRANCH   1   3
BRANCH   1  16
ATOM     16  C   UNL     1      36.250 -21.631 -17.871  0.00  0.00    +0.141 C 
BRANCH  16  19
ATOM     17  C   UNL     1      35.079 -20.303 -19.639  0.00  0.00    +0.000 C 
ATOM     18  C   UNL     1      33.882 -19.974 -20.318  0.00  0.00    -0.000 C 
ATOM     19  C   UNL     1      35.043 -21.254 -18.606  0.00  0.00    +0.031 C 
ATOM     20  C   UNL     1      33.844 -21.870 -18.247  0.00  0.00    +0.136 C 
ATOM     21  C   UNL     1      32.684 -20.604 -19.943  0.00  0.00    +0.003 C 
ATOM     22  C   UNL     1      36.276 -19.673 -20.014  0.00  0.00    -0.000 C 
ATOM     23  C   UNL     1      32.666 -21.545 -18.914  0.00  0.00    +0.037 C 
ATOM     24  C   UNL     1      33.917 -19.023 -21.350  0.00  0.00    -0.000 C 
ATOM     25  C   UNL     1      36.294 -18.731 -21.042  0.00  0.00    -0.000 C 
ATOM     26  C   UNL     1      35.116 -18.406 -21.710  0.00  0.00    -0.000 C 
BRANCH  20  27
ATOM     27  O   UNL     1      33.799 -22.794 -17.245  0.00  0.00    -0.472 OA
ATOM     28  C   UNL     1      32.586 -22.885 -16.502  0.00  0.00    +0.252 C 
ENDBRANCH  20  27
ENDBRANCH  16  19
ENDBRANCH   1  16
TORSDOF 7
ENDMDL
MODEL 3
REMARK VINA RESULT:     -11.8      1.847      3.166
REMARK  Name = 9562794
REMARK  7 active torsions:
REMARK  status: ('A' for Active; 'I' for Inactive)
REMARK    1  A    between atoms: N_1  and  C_2
REMARK    2  A    between atoms: N_1  and  N_16
REMARK    3  A    between atoms: C_2  and  C_5
REMARK    4  A    between atoms: C_6  and  O_13
REMARK    5  A    between atoms: C_17  and  C_19
REMARK    6  A    between atoms: C_22  and  O_25
REMARK    7  A    between atoms: C_23  and  O_27
REMARK                            x       y       z     vdW  Elec       q    Type
REMARK                         _______ _______ _______ _____ _____    ______ ____
ROOT
ATOM      1  N   UNL     1      36.176 -17.884 -20.861  0.00  0.00    -0.126 NA
ENDROOT
BRANCH   1   3
ATOM      2  O   UNL     1      34.369 -15.969 -20.120  0.00  0.00    -0.269 OA
ATOM      3  N   UNL     1      35.631 -17.022 -21.751  0.00  0.00    -0.228 N 
ATOM      4  C   UNL     1      34.725 -16.085 -21.290  0.00  0.00    +0.260 C 
ATOM      5  H   UNL     1      35.874 -17.061 -22.704  0.00  0.00    +0.171 HD
BRANCH   4   6
ATOM      6  C   UNL     1      34.148 -15.183 -22.321  0.00  0.00    +0.058 C 
ATOM      7  C   UNL     1      33.917 -15.681 -23.586  0.00  0.00    +0.044 C 
ATOM      8  C   UNL     1      33.864 -13.878 -21.979  0.00  0.00    +0.008 C 
ATOM      9  C   UNL     1      33.377 -14.833 -24.555  0.00  0.00    +0.168 C 
ATOM     10  C   UNL     1      33.081 -13.508 -24.235  0.00  0.00    +0.167 C 
ATOM     11  C   UNL     1      33.324 -13.030 -22.947  0.00  0.00    +0.040 C 
BRANCH   9  12
ATOM     12  O   UNL     1      33.144 -15.311 -25.809  0.00  0.00    -0.503 OA
ATOM     13  H   UNL     1      33.290 -14.762 -26.554  0.00  0.00    +0.292 HD
ENDBRANCH   9  12
BRANCH  10  14
ATOM     14  O   UNL     1      32.554 -12.671 -25.171  0.00  0.00    -0.503 OA
ATOM     15  H   UNL     1      32.471 -12.956 -26.060  0.00  0.00    +0.292 HD
ENDBRANCH  10  14
ENDBRANCH   4   6
ENDBRANCH   1   3
BRANCH   1  16
ATOM     16  C   UNL     1      35.907 -19.134 -21.092  0.00  0.00    +0.141 C 
BRANCH  16  19
ATOM     17  C   UNL     1      34.830 -20.602 -19.375  0.00  0.00    +0.000 C 
ATOM     18  C   UNL     1      33.665 -21.225 -18.868  0.00  0.00    -0.000 C 
ATOM     19  C   UNL     1      34.735 -19.801 -20.526  0.00  0.00    +0.031 C 
ATOM     20  C   UNL     1      33.510 -19.618 -21.166  0.00  0.00    +0.136 C 
ATOM     21  C   UNL     1      32.440 -21.030 -19.526  0.00  0.00    +0.003 C 
ATOM     22  C   UNL     1      36.055 -20.797 -18.718  0.00  0.00    -0.000 C 
ATOM     23  C   UNL     1      32.364 -20.232 -20.668  0.00  0.00    +0.037 C 
ATOM     24  C   UNL     1      33.760 -22.026 -17.719  0.00  0.00    -0.000 C 
ATOM     25  C   UNL     1      36.132 -21.596 -17.577  0.00  0.00    -0.000 C 
ATOM     26  C   UNL     1      34.986 -22.210 -17.078  0.00  0.00    -0.000 C 
BRANCH  20  27
ATOM     27  O   UNL     1      33.408 -18.843 -22.283  0.00  0.00    -0.472 OA
ATOM     28  C   UNL     1      33.927 -19.383 -23.496  0.00  0.00    +0.252 C 
ENDBRANCH  20  27
ENDBRANCH  16  19
ENDBRANCH   1  16
TORSDOF 7
ENDMDL
MODEL 4
REMARK VINA RESULT:     -11.6      3.630      8.954
REMARK  Name = 9562794
REMARK  7 active torsions:
REMARK  status: ('A' for Active; 'I' for Inactive)
REMARK    1  A    between atoms: N_1  and  C_2
REMARK    2  A    between atoms: N_1  and  N_16
REMARK    3  A    between atoms: C_2  and  C_5
REMARK    4  A    between atoms: C_6  and  O_13
REMARK    5  A    between atoms: C_17  and  C_19
REMARK    6  A    between atoms: C_22  and  O_25
REMARK    7  A    between atoms: C_23  and  O_27
REMARK                            x       y       z     vdW  Elec       q    Type
REMARK                         _______ _______ _______ _____ _____    ______ ____
ROOT
ATOM      1  N   UNL     1      36.539 -21.180 -17.131  0.00  0.00    -0.126 NA
ENDROOT
BRANCH   1   3
ATOM      2  O   UNL     1      34.979 -21.531 -14.911  0.00  0.00    -0.269 OA
ATOM      3  N   UNL     1      36.742 -22.194 -16.257  0.00  0.00    -0.228 N 
ATOM      4  C   UNL     1      35.906 -22.296 -15.161  0.00  0.00    +0.260 C 
ATOM      5  H   UNL     1      37.468 -22.844 -16.399  0.00  0.00    +0.171 HD
BRANCH   4   6
ATOM      6  C   UNL     1      36.196 -23.418 -14.230  0.00  0.00    +0.058 C 
ATOM      7  C   UNL     1      37.019 -24.440 -14.657  0.00  0.00    +0.044 C 
ATOM      8  C   UNL     1      35.632 -23.402 -12.972  0.00  0.00    +0.008 C 
ATOM      9  C   UNL     1      37.290 -25.494 -13.783  0.00  0.00    +0.168 C 
ATOM     10  C   UNL     1      36.732 -25.502 -12.505  0.00  0.00    +0.167 C 
ATOM     11  C   UNL     1      35.903 -24.457 -12.099  0.00  0.00    +0.040 C 
BRANCH   9  12
ATOM     12  O   UNL     1      38.101 -26.510 -14.191  0.00  0.00    -0.503 OA
ATOM     13  H   UNL     1      38.895 -26.690 -13.729  0.00  0.00    +0.292 HD
ENDBRANCH   9  12
BRANCH  10  14
ATOM     14  O   UNL     1      36.989 -26.526 -11.644  0.00  0.00    -0.503 OA
ATOM     15  H   UNL     1      36.311 -27.135 -11.426  0.00  0.00    +0.292 HD
ENDBRANCH  10  14
ENDBRANCH   4   6
ENDBRANCH   1   3
BRANCH   1  16
ATOM     16  C   UNL     1      36.229 -21.562 -18.333  0.00  0.00    +0.141 C 
BRANCH  16  19
ATOM     17  C   UNL     1      35.122 -20.044 -19.987  0.00  0.00    +0.000 C 
ATOM     18  C   UNL     1      33.942 -19.606 -20.632  0.00  0.00    -0.000 C 
ATOM     19  C   UNL     1      35.041 -21.070 -19.031  0.00  0.00    +0.031 C 
ATOM     20  C   UNL     1      33.814 -21.655 -18.716  0.00  0.00    +0.136 C 
ATOM     21  C   UNL     1      32.715 -20.206 -20.303  0.00  0.00    +0.003 C 
ATOM     22  C   UNL     1      36.348 -19.445 -20.316  0.00  0.00    -0.000 C 
ATOM     23  C   UNL     1      32.653 -21.223 -19.350  0.00  0.00    +0.037 C 
ATOM     24  C   UNL     1      34.022 -18.580 -21.587  0.00  0.00    -0.000 C 
ATOM     25  C   UNL     1      36.410 -18.427 -21.268  0.00  0.00    -0.000 C 
ATOM     26  C   UNL     1      35.249 -17.994 -21.903  0.00  0.00    -0.000 C 
BRANCH  20  27
ATOM     27  O   UNL     1      33.726 -22.651 -17.789  0.00  0.00    -0.472 OA
ATOM     28  C   UNL     1      32.497 -22.765 -17.075  0.00  0.00    +0.252 C 
ENDBRANCH  20  27
ENDBRANCH  16  19
ENDBRANCH   1  16
TORSDOF 7
ENDMDL
MODEL 5
REMARK VINA RESULT:     -11.3      2.821      8.747
REMARK  Name = 9562794
REMARK  7 active torsions:
REMARK  status: ('A' for Active; 'I' for Inactive)
REMARK    1  A    between atoms: N_1  and  C_2
REMARK    2  A    between atoms: N_1  and  N_16
REMARK    3  A    between atoms: C_2  and  C_5
REMARK    4  A    between atoms: C_6  and  O_13
REMARK    5  A    between atoms: C_17  and  C_19
REMARK    6  A    between atoms: C_22  and  O_25
REMARK    7  A    between atoms: C_23  and  O_27
REMARK                            x       y       z     vdW  Elec       q    Type
REMARK                         _______ _______ _______ _____ _____    ______ ____
ROOT
ATOM      1  N   UNL     1      34.816 -16.442 -21.684  0.00  0.00    -0.126 NA
ENDROOT
BRANCH   1   3
ATOM      2  O   UNL     1      34.356 -19.006 -22.518  0.00  0.00    -0.269 OA
ATOM      3  N   UNL     1      34.730 -17.480 -20.818  0.00  0.00    -0.228 N 
ATOM      4  C   UNL     1      34.495 -18.743 -21.327  0.00  0.00    +0.260 C 
ATOM      5  H   UNL     1      34.833 -17.338 -19.850  0.00  0.00    +0.171 HD
BRANCH   4   6
ATOM      6  C   UNL     1      34.391 -19.834 -20.323  0.00  0.00    +0.058 C 
ATOM      7  C   UNL     1      33.138 -20.261 -19.932  0.00  0.00    +0.044 C 
ATOM      8  C   UNL     1      35.548 -20.383 -19.814  0.00  0.00    +0.008 C 
ATOM      9  C   UNL     1      33.040 -21.284 -18.988  0.00  0.00    +0.168 C 
ATOM     10  C   UNL     1      34.196 -21.857 -18.457  0.00  0.00    +0.167 C 
ATOM     11  C   UNL     1      35.451 -21.407 -18.870  0.00  0.00    +0.040 C 
BRANCH   9  12
ATOM     12  O   UNL     1      31.810 -21.715 -18.592  0.00  0.00    -0.503 OA
ATOM     13  H   UNL     1      31.728 -22.502 -18.091  0.00  0.00    +0.292 HD
ENDBRANCH   9  12
BRANCH  10  14
ATOM     14  O   UNL     1      34.114 -22.856 -17.535  0.00  0.00    -0.503 OA
ATOM     15  H   UNL     1      34.055 -23.748 -17.816  0.00  0.00    +0.292 HD
ENDBRANCH  10  14
ENDBRANCH   4   6
ENDBRANCH   1   3
BRANCH   1  16
ATOM     16  C   UNL     1      34.160 -15.382 -21.318  0.00  0.00    +0.141 C 
BRANCH  16  19
ATOM     17  C   UNL     1      32.844 -13.326 -21.866  0.00  0.00    +0.000 C 
ATOM     18  C   UNL     1      32.295 -12.458 -22.840  0.00  0.00    -0.000 C 
ATOM     19  C   UNL     1      33.571 -14.453 -22.282  0.00  0.00    +0.031 C 
ATOM     20  C   UNL     1      33.753 -14.722 -23.638  0.00  0.00    +0.136 C 
ATOM     21  C   UNL     1      32.489 -12.745 -24.202  0.00  0.00    +0.003 C 
ATOM     22  C   UNL     1      32.651 -13.040 -20.505  0.00  0.00    -0.000 C 
ATOM     23  C   UNL     1      33.213 -13.869 -24.597  0.00  0.00    +0.037 C 
ATOM     24  C   UNL     1      31.568 -11.332 -22.425  0.00  0.00    -0.000 C 
ATOM     25  C   UNL     1      31.926 -11.915 -20.109  0.00  0.00    -0.000 C 
ATOM     26  C   UNL     1      31.385 -11.062 -21.067  0.00  0.00    -0.000 C 
BRANCH  20  27
ATOM     27  O   UNL     1      34.457 -15.814 -24.052  0.00  0.00    -0.472 OA
ATOM     28  C   UNL     1      33.742 -16.806 -24.785  0.00  0.00    +0.252 C 
ENDBRANCH  20  27
ENDBRANCH  16  19
ENDBRANCH   1  16
TORSDOF 7
ENDMDL
MODEL 6
REMARK VINA RESULT:     -11.2      2.828      5.036
REMARK  Name = 9562794
REMARK  7 active torsions:
REMARK  status: ('A' for Active; 'I' for Inactive)
REMARK    1  A    between atoms: N_1  and  C_2
REMARK    2  A    between atoms: N_1  and  N_16
REMARK    3  A    between atoms: C_2  and  C_5
REMARK    4  A    between atoms: C_6  and  O_13
REMARK    5  A    between atoms: C_17  and  C_19
REMARK    6  A    between atoms: C_22  and  O_25
REMARK    7  A    between atoms: C_23  and  O_27
REMARK                            x       y       z     vdW  Elec       q    Type
REMARK                         _______ _______ _______ _____ _____    ______ ____
ROOT
ATOM      1  N   UNL     1      32.282 -22.481 -18.329  0.00  0.00    -0.126 NA
ENDROOT
BRANCH   1   3
ATOM      2  O   UNL     1      31.871 -20.533 -20.204  0.00  0.00    -0.269 OA
ATOM      3  N   UNL     1      33.295 -21.737 -18.832  0.00  0.00    -0.228 N 
ATOM      4  C   UNL     1      32.997 -20.774 -19.778  0.00  0.00    +0.260 C 
ATOM      5  H   UNL     1      34.222 -21.879 -18.533  0.00  0.00    +0.171 HD
BRANCH   4   6
ATOM      6  C   UNL     1      34.156 -20.007 -20.306  0.00  0.00    +0.058 C 
ATOM      7  C   UNL     1      33.951 -19.125 -21.346  0.00  0.00    +0.044 C 
ATOM      8  C   UNL     1      35.397 -20.203 -19.739  0.00  0.00    +0.008 C 
ATOM      9  C   UNL     1      35.040 -18.406 -21.843  0.00  0.00    +0.168 C 
ATOM     10  C   UNL     1      36.306 -18.586 -21.288  0.00  0.00    +0.167 C 
ATOM     11  C   UNL     1      36.486 -19.485 -20.236  0.00  0.00    +0.040 C 
BRANCH   9  12
ATOM     12  O   UNL     1      34.852 -17.532 -22.871  0.00  0.00    -0.503 OA
ATOM     13  H   UNL     1      35.074 -17.782 -23.745  0.00  0.00    +0.292 HD
ENDBRANCH   9  12
BRANCH  10  14
ATOM     14  O   UNL     1      37.376 -17.891 -21.764  0.00  0.00    -0.503 OA
ATOM     15  H   UNL     1      37.729 -17.178 -21.268  0.00  0.00    +0.292 HD
ENDBRANCH  10  14
ENDBRANCH   4   6
ENDBRANCH   1   3
BRANCH   1  16
ATOM     16  C   UNL     1      31.819 -22.057 -17.192  0.00  0.00    +0.141 C 
BRANCH  16  19
ATOM     17  C   UNL     1      30.826 -23.460 -15.373  0.00  0.00    +0.000 C 
ATOM     18  C   UNL     1      30.997 -24.200 -14.179  0.00  0.00    -0.000 C 
ATOM     19  C   UNL     1      31.939 -22.833 -15.958  0.00  0.00    +0.031 C 
ATOM     20  C   UNL     1      33.201 -22.934 -15.373  0.00  0.00    +0.136 C 
ATOM     21  C   UNL     1      32.276 -24.290 -13.604  0.00  0.00    +0.003 C 
ATOM     22  C   UNL     1      29.548 -23.369 -15.948  0.00  0.00    -0.000 C 
ATOM     23  C   UNL     1      33.369 -23.660 -14.198  0.00  0.00    +0.037 C 
ATOM     24  C   UNL     1      29.885 -24.825 -13.594  0.00  0.00    -0.000 C 
ATOM     25  C   UNL     1      28.454 -23.998 -15.354  0.00  0.00    -0.000 C 
ATOM     26  C   UNL     1      28.621 -24.725 -14.178  0.00  0.00    -0.000 C 
BRANCH  20  27
ATOM     27  O   UNL     1      34.287 -22.329 -15.933  0.00  0.00    -0.472 OA
ATOM     28  C   UNL     1      35.545 -22.535 -15.294  0.00  0.00    +0.252 C 
ENDBRANCH  20  27
ENDBRANCH  16  19
ENDBRANCH   1  16
TORSDOF 7
ENDMDL
MODEL 7
REMARK VINA RESULT:     -11.0      2.340      4.172
REMARK  Name = 9562794
REMARK  7 active torsions:
REMARK  status: ('A' for Active; 'I' for Inactive)
REMARK    1  A    between atoms: N_1  and  C_2
REMARK    2  A    between atoms: N_1  and  N_16
REMARK    3  A    between atoms: C_2  and  C_5
REMARK    4  A    between atoms: C_6  and  O_13
REMARK    5  A    between atoms: C_17  and  C_19
REMARK    6  A    between atoms: C_22  and  O_25
REMARK    7  A    between atoms: C_23  and  O_27
REMARK                            x       y       z     vdW  Elec       q    Type
REMARK                         _______ _______ _______ _____ _____    ______ ____
ROOT
ATOM      1  N   UNL     1      35.820 -22.322 -17.238  0.00  0.00    -0.126 NA
ENDROOT
BRANCH   1   3
ATOM      2  O   UNL     1      34.126 -22.272 -19.386  0.00  0.00    -0.269 OA
ATOM      3  N   UNL     1      35.811 -21.302 -18.128  0.00  0.00    -0.228 N 
ATOM      4  C   UNL     1      34.922 -21.358 -19.185  0.00  0.00    +0.260 C 
ATOM      5  H   UNL     1      36.422 -20.538 -18.025  0.00  0.00    +0.171 HD
BRANCH   4   6
ATOM      6  C   UNL     1      34.977 -20.218 -20.137  0.00  0.00    +0.058 C 
ATOM      7  C   UNL     1      36.194 -19.615 -20.382  0.00  0.00    +0.044 C 
ATOM      8  C   UNL     1      33.812 -19.800 -20.743  0.00  0.00    +0.008 C 
ATOM      9  C   UNL     1      36.246 -18.543 -21.275  0.00  0.00    +0.168 C 
ATOM     10  C   UNL     1      35.081 -18.101 -21.901  0.00  0.00    +0.167 C 
ATOM     11  C   UNL     1      33.864 -18.728 -21.636  0.00  0.00    +0.040 C 
BRANCH   9  12
ATOM     12  O   UNL     1      37.440 -17.938 -21.525  0.00  0.00    -0.503 OA
ATOM     13  H   UNL     1      38.241 -18.375 -21.311  0.00  0.00    +0.292 HD
ENDBRANCH   9  12
BRANCH  10  14
ATOM     14  O   UNL     1      35.119 -17.056 -22.774  0.00  0.00    -0.503 OA
ATOM     15  H   UNL     1      35.674 -16.321 -22.600  0.00  0.00    +0.292 HD
ENDBRANCH  10  14
ENDBRANCH   4   6
ENDBRANCH   1   3
BRANCH   1  16
ATOM     16  C   UNL     1      36.382 -22.037 -16.102  0.00  0.00    +0.141 C 
BRANCH  16  19
ATOM     17  C   UNL     1      37.368 -23.711 -14.523  0.00  0.00    +0.000 C 
ATOM     18  C   UNL     1      37.221 -24.544 -13.390  0.00  0.00    -0.000 C 
ATOM     19  C   UNL     1      36.285 -22.917 -14.937  0.00  0.00    +0.031 C 
ATOM     20  C   UNL     1      35.075 -22.946 -14.243  0.00  0.00    +0.136 C 
ATOM     21  C   UNL     1      35.995 -24.561 -12.703  0.00  0.00    +0.003 C 
ATOM     22  C   UNL     1      38.593 -23.694 -15.210  0.00  0.00    -0.000 C 
ATOM     23  C   UNL     1      34.930 -23.767 -13.129  0.00  0.00    +0.037 C 
ATOM     24  C   UNL     1      38.302 -25.338 -12.976  0.00  0.00    -0.000 C 
ATOM     25  C   UNL     1      39.658 -24.489 -14.785  0.00  0.00    -0.000 C 
ATOM     26  C   UNL     1      39.513 -25.310 -13.670  0.00  0.00    -0.000 C 
BRANCH  20  27
ATOM     27  O   UNL     1      34.019 -22.180 -14.638  0.00  0.00    -0.472 OA
ATOM     28  C   UNL     1      32.848 -22.866 -15.076  0.00  0.00    +0.252 C 
ENDBRANCH  20  27
ENDBRANCH  16  19
ENDBRANCH   1  16
TORSDOF 7
ENDMDL
MODEL 8
REMARK VINA RESULT:     -11.0      1.563      3.070
REMARK  Name = 9562794
REMARK  7 active torsions:
REMARK  status: ('A' for Active; 'I' for Inactive)
REMARK    1  A    between atoms: N_1  and  C_2
REMARK    2  A    between atoms: N_1  and  N_16
REMARK    3  A    between atoms: C_2  and  C_5
REMARK    4  A    between atoms: C_6  and  O_13
REMARK    5  A    between atoms: C_17  and  C_19
REMARK    6  A    between atoms: C_22  and  O_25
REMARK    7  A    between atoms: C_23  and  O_27
REMARK                            x       y       z     vdW  Elec       q    Type
REMARK                         _______ _______ _______ _____ _____    ______ ____
ROOT
ATOM      1  N   UNL     1      34.987 -20.766 -18.943  0.00  0.00    -0.126 NA
ENDROOT
BRANCH   1   3
ATOM      2  O   UNL     1      36.471 -18.789 -20.114  0.00  0.00    -0.269 OA
ATOM      3  N   UNL     1      34.566 -20.103 -20.046  0.00  0.00    -0.228 N 
ATOM      4  C   UNL     1      35.380 -19.117 -20.572  0.00  0.00    +0.260 C 
ATOM      5  H   UNL     1      33.701 -20.318 -20.464  0.00  0.00    +0.171 HD
BRANCH   4   6
ATOM      6  C   UNL     1      34.851 -18.413 -21.769  0.00  0.00    +0.058 C 
ATOM      7  C   UNL     1      35.095 -17.063 -21.909  0.00  0.00    +0.044 C 
ATOM      8  C   UNL     1      34.132 -19.132 -22.700  0.00  0.00    +0.008 C 
ATOM      9  C   UNL     1      34.597 -16.401 -23.032  0.00  0.00    +0.168 C 
ATOM     10  C   UNL     1      33.867 -17.106 -23.989  0.00  0.00    +0.167 C 
ATOM     11  C   UNL     1      33.634 -18.471 -23.824  0.00  0.00    +0.040 C 
BRANCH   9  12
ATOM     12  O   UNL     1      34.830 -15.068 -23.183  0.00  0.00    -0.503 OA
ATOM     13  H   UNL     1      34.525 -14.622 -23.948  0.00  0.00    +0.292 HD
ENDBRANCH   9  12
BRANCH  10  14
ATOM     14  O   UNL     1      33.375 -16.472 -25.090  0.00  0.00    -0.503 OA
ATOM     15  H   UNL     1      32.484 -16.180 -25.103  0.00  0.00    +0.292 HD
ENDBRANCH  10  14
ENDBRANCH   4   6
ENDBRANCH   1   3
BRANCH   1  16
ATOM     16  C   UNL     1      34.178 -21.698 -18.537  0.00  0.00    +0.141 C 
BRANCH  16  19
ATOM     17  C   UNL     1      32.910 -22.436 -16.510  0.00  0.00    +0.000 C 
ATOM     18  C   UNL     1      32.918 -22.859 -15.159  0.00  0.00    -0.000 C 
ATOM     19  C   UNL     1      34.128 -22.139 -17.143  0.00  0.00    +0.031 C 
ATOM     20  C   UNL     1      35.335 -22.256 -16.454  0.00  0.00    +0.136 C 
ATOM     21  C   UNL     1      34.143 -22.971 -14.481  0.00  0.00    +0.003 C 
ATOM     22  C   UNL     1      31.685 -22.324 -17.187  0.00  0.00    -0.000 C 
ATOM     23  C   UNL     1      35.343 -22.670 -15.126  0.00  0.00    +0.037 C 
ATOM     24  C   UNL     1      31.700 -23.156 -14.525  0.00  0.00    -0.000 C 
ATOM     25  C   UNL     1      30.485 -22.624 -16.543  0.00  0.00    -0.000 C 
ATOM     26  C   UNL     1      30.492 -23.039 -15.214  0.00  0.00    -0.000 C 
BRANCH  20  27
ATOM     27  O   UNL     1      36.522 -21.969 -17.060  0.00  0.00    -0.472 OA
ATOM     28  C   UNL     1      37.348 -20.988 -16.437  0.00  0.00    +0.252 C 
ENDBRANCH  20  27
ENDBRANCH  16  19
ENDBRANCH   1  16
TORSDOF 7
ENDMDL
MODEL 9
REMARK VINA RESULT:     -10.9      7.636     12.687
REMARK  Name = 9562794
REMARK  7 active torsions:
REMARK  status: ('A' for Active; 'I' for Inactive)
REMARK    1  A    between atoms: N_1  and  C_2
REMARK    2  A    between atoms: N_1  and  N_16
REMARK    3  A    between atoms: C_2  and  C_5
REMARK    4  A    between atoms: C_6  and  O_13
REMARK    5  A    between atoms: C_17  and  C_19
REMARK    6  A    between atoms: C_22  and  O_25
REMARK    7  A    between atoms: C_23  and  O_27
REMARK                            x       y       z     vdW  Elec       q    Type
REMARK                         _______ _______ _______ _____ _____    ______ ____
ROOT
ATOM      1  N   UNL     1      31.940  -9.846 -23.319  0.00  0.00    -0.126 NA
ENDROOT
BRANCH   1   3
ATOM      2  O   UNL     1      33.192 -11.898 -24.626  0.00  0.00    -0.269 OA
ATOM      3  N   UNL     1      32.377 -10.954 -22.675  0.00  0.00    -0.228 N 
ATOM      4  C   UNL     1      32.999 -11.943 -23.414  0.00  0.00    +0.260 C 
ATOM      5  H   UNL     1      32.254 -11.053 -21.703  0.00  0.00    +0.171 HD
BRANCH   4   6
ATOM      6  C   UNL     1      33.435 -13.141 -22.651  0.00  0.00    +0.058 C 
ATOM      7  C   UNL     1      33.994 -14.200 -23.337  0.00  0.00    +0.044 C 
ATOM      8  C   UNL     1      33.268 -13.156 -21.282  0.00  0.00    +0.008 C 
ATOM      9  C   UNL     1      34.402 -15.326 -22.621  0.00  0.00    +0.168 C 
ATOM     10  C   UNL     1      34.244 -15.367 -21.235  0.00  0.00    +0.167 C 
ATOM     11  C   UNL     1      33.676 -14.282 -20.566  0.00  0.00    +0.040 C 
BRANCH   9  12
ATOM     12  O   UNL     1      34.954 -16.379 -23.286  0.00  0.00    -0.503 OA
ATOM     13  H   UNL     1      34.821 -16.472 -24.208  0.00  0.00    +0.292 HD
ENDBRANCH   9  12
BRANCH  10  14
ATOM     14  O   UNL     1      34.638 -16.460 -20.525  0.00  0.00    -0.503 OA
ATOM     15  H   UNL     1      34.213 -17.284 -20.661  0.00  0.00    +0.292 HD
ENDBRANCH  10  14
ENDBRANCH   4   6
ENDBRANCH   1   3
BRANCH   1  16
ATOM     16  C   UNL     1      30.974  -9.221 -22.716  0.00  0.00    +0.141 C 
BRANCH  16  19
ATOM     17  C   UNL     1      31.098  -6.737 -22.436  0.00  0.00    +0.000 C 
ATOM     18  C   UNL     1      31.328  -5.619 -21.599  0.00  0.00    -0.000 C 
ATOM     19  C   UNL     1      31.202  -8.031 -21.897  0.00  0.00    +0.031 C 
ATOM     20  C   UNL     1      31.529  -8.218 -20.554  0.00  0.00    +0.136 C 
ATOM     21  C   UNL     1      31.657  -5.827 -20.249  0.00  0.00    +0.003 C 
ATOM     22  C   UNL     1      30.769  -6.530 -23.785  0.00  0.00    -0.000 C 
ATOM     23  C   UNL     1      31.757  -7.118 -19.732  0.00  0.00    +0.037 C 
ATOM     24  C   UNL     1      31.225  -4.327 -22.137  0.00  0.00    -0.000 C 
ATOM     25  C   UNL     1      30.670  -5.239 -24.303  0.00  0.00    -0.000 C 
ATOM     26  C   UNL     1      30.898  -4.138 -23.481  0.00  0.00    -0.000 C 
BRANCH  20  27
ATOM     27  O   UNL     1      31.632  -9.470 -20.022  0.00  0.00    -0.472 OA
ATOM     28  C   UNL     1      31.268  -9.624 -18.653  0.00  0.00    +0.252 C 
ENDBRANCH  20  27
ENDBRANCH  16  19
ENDBRANCH   1  16
TORSDOF 7
ENDMDL
