MODEL 1
REMARK VINA RESULT:     -11.7      0.000      0.000
REMARK  Name = 23643565
REMARK  4 active torsions:
REMARK  status: ('A' for Active; 'I' for Inactive)
REMARK    1  A    between atoms: N_2  and  C_8
REMARK    2  A    between atoms: N_2  and  C_23
REMARK    3  A    between atoms: C_23  and  C_24
REMARK    4  A    between atoms: C_24  and  N_26
REMARK                            x       y       z     vdW  Elec       q    Type
REMARK                         _______ _______ _______ _____ _____    ______ ____
ROOT
ATOM      1  O   UNL     1      33.082 -14.471 -26.071  0.00  0.00    -0.209 OA
ATOM      2  N   UNL     1      34.846 -18.077 -22.681  0.00  0.00    -0.305 N 
ATOM      3  N   UNL     1      34.957 -17.123 -20.679  0.00  0.00    -0.305 N 
ATOM      4  N   UNL     1      33.301 -12.802 -22.437  0.00  0.00    -0.275 N 
ATOM      5  N   UNL     1      32.786 -12.622 -24.753  0.00  0.00    -0.302 NA
ATOM      6  N   UNL     1      32.534 -10.814 -23.284  0.00  0.00    -0.320 N 
ATOM      7  C   UNL     1      35.155 -18.229 -21.359  0.00  0.00    +0.208 C 
ATOM      8  C   UNL     1      34.419 -16.787 -22.867  0.00  0.00    +0.061 C 
ATOM      9  C   UNL     1      34.497 -16.212 -21.602  0.00  0.00    +0.061 C 
ATOM     10  C   UNL     1      33.683 -14.143 -22.552  0.00  0.00    +0.064 C 
ATOM     11  C   UNL     1      33.618 -14.757 -23.813  0.00  0.00    +0.110 C 
ATOM     12  C   UNL     1      33.986 -16.098 -24.001  0.00  0.00    +0.030 C 
ATOM     13  C   UNL     1      34.124 -14.868 -21.434  0.00  0.00    +0.031 C 
ATOM     14  C   UNL     1      33.143 -13.941 -24.966  0.00  0.00    +0.208 C 
ATOM     15  C   UNL     1      32.872 -12.117 -23.550  0.00  0.00    +0.248 C 
ATOM     16  H   UNL     1      34.917 -18.770 -23.377  0.00  0.00    +0.150 HD
ATOM     17  H   UNL     1      35.104 -16.978 -19.716  0.00  0.00    +0.150 HD
ATOM     18  H   UNL     1      33.339 -12.352 -21.563  0.00  0.00    +0.156 HD
ATOM     19  H   UNL     1      32.609 -10.463 -22.367  0.00  0.00    +0.146 HD
ATOM     20  H   UNL     1      32.214 -10.230 -24.008  0.00  0.00    +0.146 HD
ENDROOT
BRANCH   7  21
ATOM     21  N   UNL     1      35.603 -19.433 -20.941  0.00  0.00    -0.269 NA
ATOM     22  H   UNL     1      36.515 -19.697 -21.203  0.00  0.00    +0.126 HD
BRANCH  21  23
ATOM     23  C   UNL     1      34.833 -20.373 -20.126  0.00  0.00    +0.048 C 
BRANCH  23  24
ATOM     24  C   UNL     1      35.721 -20.944 -19.027  0.00  0.00    -0.060 C 
BRANCH  24  26
ATOM     25  O   UNL     1      33.881 -23.414 -16.175  0.00  0.00    -0.358 OA
ATOM     26  N   UNL     1      34.907 -21.395 -17.899  0.00  0.00    +0.391 N 
ATOM     27  C   UNL     1      35.746 -22.025 -16.870  0.00  0.00    -0.045 C 
ATOM     28  C   UNL     1      33.868 -22.333 -18.347  0.00  0.00    -0.045 C 
ATOM     29  C   UNL     1      34.874 -22.498 -15.711  0.00  0.00    +0.119 C 
ATOM     30  C   UNL     1      33.042 -22.799 -17.152  0.00  0.00    +0.119 C 
ATOM     31  H   UNL     1      34.453 -20.576 -17.494  0.00  0.00    -0.079 HD
ENDBRANCH  24  26
ENDBRANCH  23  24
ENDBRANCH  21  23
ENDBRANCH   7  21
TORSDOF 4
ENDMDL
MODEL 2
REMARK VINA RESULT:     -11.7      2.198      9.849
REMARK  Name = 23643565
REMARK  4 active torsions:
REMARK  status: ('A' for Active; 'I' for Inactive)
REMARK    1  A    between atoms: N_2  and  C_8
REMARK    2  A    between atoms: N_2  and  C_23
REMARK    3  A    between atoms: C_23  and  C_24
REMARK    4  A    between atoms: C_24  and  N_26
REMARK                            x       y       z     vdW  Elec       q    Type
REMARK                         _______ _______ _______ _____ _____    ______ ____
ROOT
ATOM      1  O   UNL     1      37.574 -22.324 -15.287  0.00  0.00    -0.209 OA
ATOM      2  N   UNL     1      35.734 -20.209 -19.731  0.00  0.00    -0.305 N 
ATOM      3  N   UNL     1      33.600 -20.794 -19.923  0.00  0.00    -0.305 N 
ATOM      4  N   UNL     1      33.721 -23.347 -15.684  0.00  0.00    -0.275 N 
ATOM      5  N   UNL     1      35.754 -23.435 -14.450  0.00  0.00    -0.302 NA
ATOM      6  N   UNL     1      33.812 -24.522 -13.717  0.00  0.00    -0.320 N 
ATOM      7  C   UNL     1      34.590 -20.131 -20.475  0.00  0.00    +0.208 C 
ATOM      8  C   UNL     1      35.463 -20.975 -18.626  0.00  0.00    +0.061 C 
ATOM      9  C   UNL     1      34.125 -21.327 -18.769  0.00  0.00    +0.061 C 
ATOM     10  C   UNL     1      34.281 -22.549 -16.687  0.00  0.00    +0.064 C 
ATOM     11  C   UNL     1      35.629 -22.173 -16.578  0.00  0.00    +0.110 C 
ATOM     12  C   UNL     1      36.254 -21.375 -17.547  0.00  0.00    +0.030 C 
ATOM     13  C   UNL     1      33.516 -22.127 -17.786  0.00  0.00    +0.031 C 
ATOM     14  C   UNL     1      36.395 -22.649 -15.391  0.00  0.00    +0.208 C 
ATOM     15  C   UNL     1      34.495 -23.745 -14.618  0.00  0.00    +0.248 C 
ATOM     16  H   UNL     1      36.598 -19.792 -19.950  0.00  0.00    +0.150 HD
ATOM     17  H   UNL     1      32.680 -20.888 -20.262  0.00  0.00    +0.150 HD
ATOM     18  H   UNL     1      32.778 -23.622 -15.741  0.00  0.00    +0.156 HD
ATOM     19  H   UNL     1      32.864 -24.738 -13.872  0.00  0.00    +0.146 HD
ATOM     20  H   UNL     1      34.269 -24.864 -12.915  0.00  0.00    +0.146 HD
ENDROOT
BRANCH   7  21
ATOM     21  N   UNL     1      34.621 -19.419 -21.623  0.00  0.00    -0.269 NA
ATOM     22  H   UNL     1      33.979 -19.663 -22.329  0.00  0.00    +0.126 HD
BRANCH  21  23
ATOM     23  C   UNL     1      35.538 -18.312 -21.894  0.00  0.00    +0.048 C 
BRANCH  23  24
ATOM     24  C   UNL     1      34.966 -17.022 -21.321  0.00  0.00    -0.060 C 
BRANCH  24  26
ATOM     25  O   UNL     1      33.205 -14.445 -24.128  0.00  0.00    -0.358 OA
ATOM     26  N   UNL     1      34.799 -16.026 -22.378  0.00  0.00    +0.391 N 
ATOM     27  C   UNL     1      34.038 -14.868 -21.889  0.00  0.00    -0.045 C 
ATOM     28  C   UNL     1      34.128 -16.612 -23.547  0.00  0.00    -0.045 C 
ATOM     29  C   UNL     1      33.866 -13.849 -23.011  0.00  0.00    +0.119 C 
ATOM     30  C   UNL     1      33.955 -15.552 -24.630  0.00  0.00    +0.119 C 
ATOM     31  H   UNL     1      35.728 -15.711 -22.660  0.00  0.00    -0.079 HD
ENDBRANCH  24  26
ENDBRANCH  23  24
ENDBRANCH  21  23
ENDBRANCH   7  21
TORSDOF 4
ENDMDL
MODEL 3
REMARK VINA RESULT:     -11.5      2.124      8.483
REMARK  Name = 23643565
REMARK  4 active torsions:
REMARK  status: ('A' for Active; 'I' for Inactive)
REMARK    1  A    between atoms: N_2  and  C_8
REMARK    2  A    between atoms: N_2  and  C_23
REMARK    3  A    between atoms: C_23  and  C_24
REMARK    4  A    between atoms: C_24  and  N_26
REMARK                            x       y       z     vdW  Elec       q    Type
REMARK                         _______ _______ _______ _____ _____    ______ ____
ROOT
ATOM      1  O   UNL     1      32.704 -21.991 -19.235  0.00  0.00    -0.209 OA
ATOM      2  N   UNL     1      33.743 -18.268 -22.794  0.00  0.00    -0.305 N 
ATOM      3  N   UNL     1      35.780 -17.485 -22.376  0.00  0.00    -0.305 N 
ATOM      4  N   UNL     1      36.371 -20.542 -18.528  0.00  0.00    -0.275 N 
ATOM      5  N   UNL     1      34.607 -22.036 -17.962  0.00  0.00    -0.302 NA
ATOM      6  N   UNL     1      36.612 -21.970 -16.750  0.00  0.00    -0.320 N 
ATOM      7  C   UNL     1      34.728 -17.392 -23.157  0.00  0.00    +0.208 C 
ATOM      8  C   UNL     1      34.190 -18.974 -21.706  0.00  0.00    +0.061 C 
ATOM      9  C   UNL     1      35.463 -18.467 -21.465  0.00  0.00    +0.061 C 
ATOM     10  C   UNL     1      35.661 -19.997 -19.603  0.00  0.00    +0.064 C 
ATOM     11  C   UNL     1      34.372 -20.482 -19.877  0.00  0.00    +0.110 C 
ATOM     12  C   UNL     1      33.604 -19.981 -20.938  0.00  0.00    +0.030 C 
ATOM     13  C   UNL     1      36.218 -18.983 -20.397  0.00  0.00    +0.031 C 
ATOM     14  C   UNL     1      33.829 -21.560 -19.002  0.00  0.00    +0.208 C 
ATOM     15  C   UNL     1      35.799 -21.536 -17.767  0.00  0.00    +0.248 C 
ATOM     16  H   UNL     1      32.869 -18.374 -23.234  0.00  0.00    +0.150 HD
ATOM     17  H   UNL     1      36.614 -16.966 -22.431  0.00  0.00    +0.150 HD
ATOM     18  H   UNL     1      37.275 -20.217 -18.318  0.00  0.00    +0.156 HD
ATOM     19  H   UNL     1      37.504 -21.574 -16.630  0.00  0.00    +0.146 HD
ATOM     20  H   UNL     1      36.302 -22.680 -16.142  0.00  0.00    +0.146 HD
ENDROOT
BRANCH   7  21
ATOM     21  N   UNL     1      34.505 -16.583 -24.216  0.00  0.00    -0.269 NA
ATOM     22  H   UNL     1      34.943 -16.814 -25.067  0.00  0.00    +0.126 HD
BRANCH  21  23
ATOM     23  C   UNL     1      33.660 -15.388 -24.191  0.00  0.00    +0.048 C 
BRANCH  23  24
ATOM     24  C   UNL     1      34.144 -14.442 -23.099  0.00  0.00    -0.060 C 
BRANCH  24  26
ATOM     25  O   UNL     1      31.840 -12.031 -20.551  0.00  0.00    -0.358 OA
ATOM     26  N   UNL     1      33.007 -13.880 -22.373  0.00  0.00    +0.391 N 
ATOM     27  C   UNL     1      32.802 -12.471 -22.735  0.00  0.00    -0.045 C 
ATOM     28  C   UNL     1      33.201 -14.004 -20.922  0.00  0.00    -0.045 C 
ATOM     29  C   UNL     1      31.619 -11.902 -21.956  0.00  0.00    +0.119 C 
ATOM     30  C   UNL     1      32.008 -13.401 -20.186  0.00  0.00    +0.119 C 
ATOM     31  H   UNL     1      32.175 -14.409 -22.637  0.00  0.00    -0.079 HD
ENDBRANCH  24  26
ENDBRANCH  23  24
ENDBRANCH  21  23
ENDBRANCH   7  21
TORSDOF 4
ENDMDL
MODEL 4
REMARK VINA RESULT:     -11.3      1.225      1.974
REMARK  Name = 23643565
REMARK  4 active torsions:
REMARK  status: ('A' for Active; 'I' for Inactive)
REMARK    1  A    between atoms: N_2  and  C_8
REMARK    2  A    between atoms: N_2  and  C_23
REMARK    3  A    between atoms: C_23  and  C_24
REMARK    4  A    between atoms: C_24  and  N_26
REMARK                            x       y       z     vdW  Elec       q    Type
REMARK                         _______ _______ _______ _____ _____    ______ ____
ROOT
ATOM      1  O   UNL     1      33.344 -12.509 -21.685  0.00  0.00    -0.209 OA
ATOM      2  N   UNL     1      35.040 -17.366 -20.618  0.00  0.00    -0.305 N 
ATOM      3  N   UNL     1      34.968 -18.536 -22.505  0.00  0.00    -0.305 N 
ATOM      4  N   UNL     1      33.234 -14.665 -25.059  0.00  0.00    -0.275 N 
ATOM      5  N   UNL     1      32.870 -12.605 -23.923  0.00  0.00    -0.302 NA
ATOM      6  N   UNL     1      32.431 -12.853 -26.212  0.00  0.00    -0.320 N 
ATOM      7  C   UNL     1      35.264 -18.569 -21.226  0.00  0.00    +0.208 C 
ATOM      8  C   UNL     1      34.566 -16.498 -21.568  0.00  0.00    +0.061 C 
ATOM      9  C   UNL     1      34.531 -17.251 -22.737  0.00  0.00    +0.061 C 
ATOM     10  C   UNL     1      33.687 -15.307 -23.901  0.00  0.00    +0.064 C 
ATOM     11  C   UNL     1      33.737 -14.579 -22.701  0.00  0.00    +0.110 C 
ATOM     12  C   UNL     1      34.179 -15.158 -21.503  0.00  0.00    +0.030 C 
ATOM     13  C   UNL     1      34.085 -16.653 -23.928  0.00  0.00    +0.031 C 
ATOM     14  C   UNL     1      33.302 -13.153 -22.729  0.00  0.00    +0.208 C 
ATOM     15  C   UNL     1      32.851 -13.345 -25.001  0.00  0.00    +0.248 C 
ATOM     16  H   UNL     1      35.191 -17.159 -19.667  0.00  0.00    +0.150 HD
ATOM     17  H   UNL     1      35.042 -19.270 -23.157  0.00  0.00    +0.150 HD
ATOM     18  H   UNL     1      33.191 -15.157 -25.910  0.00  0.00    +0.156 HD
ATOM     19  H   UNL     1      32.429 -13.435 -27.006  0.00  0.00    +0.146 HD
ATOM     20  H   UNL     1      32.133 -11.919 -26.287  0.00  0.00    +0.146 HD
ENDROOT
BRANCH   7  21
ATOM     21  N   UNL     1      35.737 -19.587 -20.475  0.00  0.00    -0.269 NA
ATOM     22  H   UNL     1      36.714 -19.670 -20.380  0.00  0.00    +0.126 HD
BRANCH  21  23
ATOM     23  C   UNL     1      34.904 -20.577 -19.789  0.00  0.00    +0.048 C 
BRANCH  23  24
ATOM     24  C   UNL     1      35.710 -21.245 -18.683  0.00  0.00    -0.060 C 
BRANCH  24  26
ATOM     25  O   UNL     1      33.696 -23.381 -15.683  0.00  0.00    -0.358 OA
ATOM     26  N   UNL     1      34.847 -21.564 -17.547  0.00  0.00    +0.391 N 
ATOM     27  C   UNL     1      35.631 -22.127 -16.438  0.00  0.00    -0.045 C 
ATOM     28  C   UNL     1      33.788 -22.502 -17.942  0.00  0.00    -0.045 C 
ATOM     29  C   UNL     1      34.708 -22.462 -15.270  0.00  0.00    +0.119 C 
ATOM     30  C   UNL     1      32.909 -22.828 -16.738  0.00  0.00    +0.119 C 
ATOM     31  H   UNL     1      34.412 -20.696 -17.232  0.00  0.00    -0.079 HD
ENDBRANCH  24  26
ENDBRANCH  23  24
ENDBRANCH  21  23
ENDBRANCH   7  21
TORSDOF 4
ENDMDL
MODEL 5
REMARK VINA RESULT:     -11.2      2.317      3.473
REMARK  Name = 23643565
REMARK  4 active torsions:
REMARK  status: ('A' for Active; 'I' for Inactive)
REMARK    1  A    between atoms: N_2  and  C_8
REMARK    2  A    between atoms: N_2  and  C_23
REMARK    3  A    between atoms: C_23  and  C_24
REMARK    4  A    between atoms: C_24  and  N_26
REMARK                            x       y       z     vdW  Elec       q    Type
REMARK                         _______ _______ _______ _____ _____    ______ ____
ROOT
ATOM      1  O   UNL     1      31.515 -11.188 -19.555  0.00  0.00    -0.209 OA
ATOM      2  N   UNL     1      34.141 -15.395 -21.292  0.00  0.00    -0.305 N 
ATOM      3  N   UNL     1      34.579 -15.074 -23.446  0.00  0.00    -0.305 N 
ATOM      4  N   UNL     1      32.334 -10.662 -23.440  0.00  0.00    -0.275 N 
ATOM      5  N   UNL     1      31.363  -9.866 -21.418  0.00  0.00    -0.302 NA
ATOM      6  N   UNL     1      31.285  -8.624 -23.404  0.00  0.00    -0.320 N 
ATOM      7  C   UNL     1      34.712 -15.894 -22.429  0.00  0.00    +0.208 C 
ATOM      8  C   UNL     1      33.603 -14.170 -21.596  0.00  0.00    +0.061 C 
ATOM      9  C   UNL     1      33.890 -13.993 -22.946  0.00  0.00    +0.061 C 
ATOM     10  C   UNL     1      32.773 -11.850 -22.846  0.00  0.00    +0.064 C 
ATOM     11  C   UNL     1      32.501 -12.066 -21.486  0.00  0.00    +0.110 C 
ATOM     12  C   UNL     1      32.911 -13.234 -20.826  0.00  0.00    +0.030 C 
ATOM     13  C   UNL     1      33.471 -12.815 -23.589  0.00  0.00    +0.031 C 
ATOM     14  C   UNL     1      31.756 -11.009 -20.745  0.00  0.00    +0.208 C 
ATOM     15  C   UNL     1      31.651  -9.735 -22.687  0.00  0.00    +0.248 C 
ATOM     16  H   UNL     1      34.118 -15.835 -20.412  0.00  0.00    +0.150 HD
ATOM     17  H   UNL     1      34.903 -15.205 -24.366  0.00  0.00    +0.150 HD
ATOM     18  H   UNL     1      32.513 -10.491 -24.392  0.00  0.00    +0.156 HD
ATOM     19  H   UNL     1      31.517  -8.554 -24.358  0.00  0.00    +0.146 HD
ATOM     20  H   UNL     1      30.790  -7.895 -22.964  0.00  0.00    +0.146 HD
ENDROOT
BRANCH   7  21
ATOM     21  N   UNL     1      35.308 -17.105 -22.366  0.00  0.00    -0.269 NA
ATOM     22  H   UNL     1      35.737 -17.445 -23.184  0.00  0.00    +0.126 HD
BRANCH  21  23
ATOM     23  C   UNL     1      35.365 -17.947 -21.170  0.00  0.00    +0.048 C 
BRANCH  23  24
ATOM     24  C   UNL     1      34.341 -19.068 -21.285  0.00  0.00    -0.060 C 
BRANCH  24  26
ATOM     25  O   UNL     1      34.165 -22.238 -18.539  0.00  0.00    -0.358 OA
ATOM     26  N   UNL     1      34.263 -19.816 -20.031  0.00  0.00    +0.391 N 
ATOM     27  C   UNL     1      35.455 -20.655 -19.849  0.00  0.00    -0.045 C 
ATOM     28  C   UNL     1      33.052 -20.648 -19.994  0.00  0.00    -0.045 C 
ATOM     29  C   UNL     1      35.345 -21.435 -18.542  0.00  0.00    +0.119 C 
ATOM     30  C   UNL     1      32.999 -21.427 -18.683  0.00  0.00    +0.119 C 
ATOM     31  H   UNL     1      34.218 -19.142 -19.267  0.00  0.00    -0.079 HD
ENDBRANCH  24  26
ENDBRANCH  23  24
ENDBRANCH  21  23
ENDBRANCH   7  21
TORSDOF 4
ENDMDL
MODEL 6
REMARK VINA RESULT:     -11.0      2.123      9.769
REMARK  Name = 23643565
REMARK  4 active torsions:
REMARK  status: ('A' for Active; 'I' for Inactive)
REMARK    1  A    between atoms: N_2  and  C_8
REMARK    2  A    between atoms: N_2  and  C_23
REMARK    3  A    between atoms: C_23  and  C_24
REMARK    4  A    between atoms: C_24  and  N_26
REMARK                            x       y       z     vdW  Elec       q    Type
REMARK                         _______ _______ _______ _____ _____    ______ ____
ROOT
ATOM      1  O   UNL     1      32.805 -23.563 -15.440  0.00  0.00    -0.209 OA
ATOM      2  N   UNL     1      33.547 -20.742 -19.810  0.00  0.00    -0.305 N 
ATOM      3  N   UNL     1      35.687 -20.148 -19.875  0.00  0.00    -0.305 N 
ATOM      4  N   UNL     1      36.654 -22.465 -15.608  0.00  0.00    -0.275 N 
ATOM      5  N   UNL     1      34.887 -23.597 -14.486  0.00  0.00    -0.302 NA
ATOM      6  N   UNL     1      37.067 -23.547 -13.629  0.00  0.00    -0.320 N 
ATOM      7  C   UNL     1      34.529 -20.078 -20.491  0.00  0.00    +0.208 C 
ATOM      8  C   UNL     1      34.110 -21.277 -18.679  0.00  0.00    +0.061 C 
ATOM      9  C   UNL     1      35.445 -20.893 -18.743  0.00  0.00    +0.061 C 
ATOM     10  C   UNL     1      35.821 -22.052 -16.654  0.00  0.00    +0.064 C 
ATOM     11  C   UNL     1      34.467 -22.420 -16.625  0.00  0.00    +0.110 C 
ATOM     12  C   UNL     1      33.576 -22.040 -17.639  0.00  0.00    +0.030 C 
ATOM     13  C   UNL     1      36.323 -21.283 -17.717  0.00  0.00    +0.031 C 
ATOM     14  C   UNL     1      33.988 -23.236 -15.473  0.00  0.00    +0.208 C 
ATOM     15  C   UNL     1      36.134 -23.218 -14.580  0.00  0.00    +0.248 C 
ATOM     16  H   UNL     1      32.605 -20.822 -20.083  0.00  0.00    +0.150 HD
ATOM     17  H   UNL     1      36.542 -19.755 -20.161  0.00  0.00    +0.150 HD
ATOM     18  H   UNL     1      37.606 -22.218 -15.609  0.00  0.00    +0.156 HD
ATOM     19  H   UNL     1      37.999 -23.246 -13.729  0.00  0.00    +0.146 HD
ATOM     20  H   UNL     1      36.805 -24.084 -12.847  0.00  0.00    +0.146 HD
ENDROOT
BRANCH   7  21
ATOM     21  N   UNL     1      34.202 -19.465 -21.649  0.00  0.00    -0.269 NA
ATOM     22  H   UNL     1      33.298 -19.620 -22.008  0.00  0.00    +0.126 HD
BRANCH  21  23
ATOM     23  C   UNL     1      35.091 -18.586 -22.410  0.00  0.00    +0.048 C 
BRANCH  23  24
ATOM     24  C   UNL     1      35.234 -17.253 -21.687  0.00  0.00    -0.060 C 
BRANCH  24  26
ATOM     25  O   UNL     1      33.080 -14.455 -23.956  0.00  0.00    -0.358 OA
ATOM     26  N   UNL     1      34.914 -16.148 -22.589  0.00  0.00    +0.391 N 
ATOM     27  C   UNL     1      34.167 -15.098 -21.885  0.00  0.00    -0.045 C 
ATOM     28  C   UNL     1      34.143 -16.625 -23.746  0.00  0.00    -0.045 C 
ATOM     29  C   UNL     1      33.835 -13.963 -22.849  0.00  0.00    +0.119 C 
ATOM     30  C   UNL     1      33.812 -15.454 -24.666  0.00  0.00    +0.119 C 
ATOM     31  H   UNL     1      35.794 -15.755 -22.925  0.00  0.00    -0.079 HD
ENDBRANCH  24  26
ENDBRANCH  23  24
ENDBRANCH  21  23
ENDBRANCH   7  21
TORSDOF 4
ENDMDL
MODEL 7
REMARK VINA RESULT:     -11.0      3.484      9.169
REMARK  Name = 23643565
REMARK  4 active torsions:
REMARK  status: ('A' for Active; 'I' for Inactive)
REMARK    1  A    between atoms: N_2  and  C_8
REMARK    2  A    between atoms: N_2  and  C_23
REMARK    3  A    between atoms: C_23  and  C_24
REMARK    4  A    between atoms: C_24  and  N_26
REMARK                            x       y       z     vdW  Elec       q    Type
REMARK                         _______ _______ _______ _____ _____    ______ ____
ROOT
ATOM      1  O   UNL     1      33.874 -18.490 -24.571  0.00  0.00    -0.209 OA
ATOM      2  N   UNL     1      32.941 -13.326 -24.307  0.00  0.00    -0.305 N 
ATOM      3  N   UNL     1      33.526 -12.638 -22.278  0.00  0.00    -0.305 N 
ATOM      4  N   UNL     1      34.915 -17.193 -20.927  0.00  0.00    -0.275 N 
ATOM      5  N   UNL     1      34.710 -18.973 -22.494  0.00  0.00    -0.302 NA
ATOM      6  N   UNL     1      35.547 -19.316 -20.333  0.00  0.00    -0.320 N 
ATOM      7  C   UNL     1      33.038 -12.273 -23.442  0.00  0.00    +0.208 C 
ATOM      8  C   UNL     1      33.395 -14.446 -23.658  0.00  0.00    +0.061 C 
ATOM      9  C   UNL     1      33.754 -13.990 -22.394  0.00  0.00    +0.061 C 
ATOM     10  C   UNL     1      34.407 -16.248 -21.825  0.00  0.00    +0.064 C 
ATOM     11  C   UNL     1      34.032 -16.670 -23.110  0.00  0.00    +0.110 C 
ATOM     12  C   UNL     1      33.516 -15.777 -24.060  0.00  0.00    +0.030 C 
ATOM     13  C   UNL     1      34.271 -14.900 -21.456  0.00  0.00    +0.031 C 
ATOM     14  C   UNL     1      34.198 -18.112 -23.450  0.00  0.00    +0.208 C 
ATOM     15  C   UNL     1      35.037 -18.507 -21.317  0.00  0.00    +0.248 C 
ATOM     16  H   UNL     1      32.604 -13.289 -25.231  0.00  0.00    +0.150 HD
ATOM     17  H   UNL     1      33.692 -12.067 -21.493  0.00  0.00    +0.150 HD
ATOM     18  H   UNL     1      35.183 -16.919 -20.021  0.00  0.00    +0.156 HD
ATOM     19  H   UNL     1      35.785 -18.935 -19.457  0.00  0.00    +0.146 HD
ATOM     20  H   UNL     1      35.677 -20.276 -20.503  0.00  0.00    +0.146 HD
ENDROOT
BRANCH   7  21
ATOM     21  N   UNL     1      32.642 -11.055 -23.870  0.00  0.00    -0.269 NA
ATOM     22  H   UNL     1      32.303 -10.982 -24.791  0.00  0.00    +0.126 HD
BRANCH  21  23
ATOM     23  C   UNL     1      32.680  -9.833 -23.064  0.00  0.00    +0.048 C 
BRANCH  23  24
ATOM     24  C   UNL     1      31.266  -9.294 -22.887  0.00  0.00    -0.060 C 
BRANCH  24  26
ATOM     25  O   UNL     1      31.929  -8.436 -18.832  0.00  0.00    -0.358 OA
ATOM     26  N   UNL     1      31.048  -8.883 -21.502  0.00  0.00    +0.391 N 
ATOM     27  C   UNL     1      31.901  -7.738 -21.156  0.00  0.00    -0.045 C 
ATOM     28  C   UNL     1      31.304  -9.998 -20.580  0.00  0.00    -0.045 C 
ATOM     29  C   UNL     1      31.665  -7.336 -19.703  0.00  0.00    +0.119 C 
ATOM     30  C   UNL     1      31.082  -9.542 -19.141  0.00  0.00    +0.119 C 
ATOM     31  H   UNL     1      30.071  -8.602 -21.409  0.00  0.00    -0.079 HD
ENDBRANCH  24  26
ENDBRANCH  23  24
ENDBRANCH  21  23
ENDBRANCH   7  21
TORSDOF 4
ENDMDL
MODEL 8
REMARK VINA RESULT:     -11.0      1.646      9.301
REMARK  Name = 23643565
REMARK  4 active torsions:
REMARK  status: ('A' for Active; 'I' for Inactive)
REMARK    1  A    between atoms: N_2  and  C_8
REMARK    2  A    between atoms: N_2  and  C_23
REMARK    3  A    between atoms: C_23  and  C_24
REMARK    4  A    between atoms: C_24  and  N_26
REMARK                            x       y       z     vdW  Elec       q    Type
REMARK                         _______ _______ _______ _____ _____    ______ ____
ROOT
ATOM      1  O   UNL     1      31.617 -22.312 -17.995  0.00  0.00    -0.209 OA
ATOM      2  N   UNL     1      34.161 -19.158 -21.340  0.00  0.00    -0.305 N 
ATOM      3  N   UNL     1      36.297 -19.115 -20.734  0.00  0.00    -0.305 N 
ATOM      4  N   UNL     1      35.482 -22.199 -16.948  0.00  0.00    -0.275 N 
ATOM      5  N   UNL     1      33.274 -23.005 -16.574  0.00  0.00    -0.302 NA
ATOM      6  N   UNL     1      35.069 -23.628 -15.203  0.00  0.00    -0.320 N 
ATOM      7  C   UNL     1      35.411 -18.668 -21.594  0.00  0.00    +0.208 C 
ATOM      8  C   UNL     1      34.246 -19.976 -20.242  0.00  0.00    +0.061 C 
ATOM      9  C   UNL     1      35.590 -19.933 -19.883  0.00  0.00    +0.061 C 
ATOM     10  C   UNL     1      35.095 -21.443 -18.060  0.00  0.00    +0.064 C 
ATOM     11  C   UNL     1      33.747 -21.460 -18.452  0.00  0.00    +0.110 C 
ATOM     12  C   UNL     1      33.289 -20.726 -19.556  0.00  0.00    +0.030 C 
ATOM     13  C   UNL     1      36.029 -20.677 -18.774  0.00  0.00    +0.031 C 
ATOM     14  C   UNL     1      32.797 -22.290 -17.658  0.00  0.00    +0.208 C 
ATOM     15  C   UNL     1      34.543 -22.941 -16.268  0.00  0.00    +0.248 C 
ATOM     16  H   UNL     1      33.344 -18.959 -21.852  0.00  0.00    +0.150 HD
ATOM     17  H   UNL     1      37.260 -18.911 -20.705  0.00  0.00    +0.150 HD
ATOM     18  H   UNL     1      36.421 -22.201 -16.656  0.00  0.00    +0.156 HD
ATOM     19  H   UNL     1      36.030 -23.559 -14.998  0.00  0.00    +0.146 HD
ATOM     20  H   UNL     1      34.487 -24.191 -14.644  0.00  0.00    +0.146 HD
ENDROOT
BRANCH   7  21
ATOM     21  N   UNL     1      35.569 -17.830 -22.641  0.00  0.00    -0.269 NA
ATOM     22  H   UNL     1      36.442 -17.826 -23.096  0.00  0.00    +0.126 HD
BRANCH  21  23
ATOM     23  C   UNL     1      34.536 -16.927 -23.151  0.00  0.00    +0.048 C 
BRANCH  23  24
ATOM     24  C   UNL     1      34.477 -15.676 -22.284  0.00  0.00    -0.060 C 
BRANCH  24  26
ATOM     25  O   UNL     1      32.503 -12.494 -24.181  0.00  0.00    -0.358 OA
ATOM     26  N   UNL     1      34.218 -14.497 -23.109  0.00  0.00    +0.391 N 
ATOM     27  C   UNL     1      33.733 -13.381 -22.286  0.00  0.00    -0.045 C 
ATOM     28  C   UNL     1      33.244 -14.804 -24.166  0.00  0.00    -0.045 C 
ATOM     29  C   UNL     1      33.457 -12.167 -23.169  0.00  0.00    +0.119 C 
ATOM     30  C   UNL     1      32.981 -13.557 -25.005  0.00  0.00    +0.119 C 
ATOM     31  H   UNL     1      35.098 -14.222 -23.546  0.00  0.00    -0.079 HD
ENDBRANCH  24  26
ENDBRANCH  23  24
ENDBRANCH  21  23
ENDBRANCH   7  21
TORSDOF 4
ENDMDL
MODEL 9
REMARK VINA RESULT:     -10.9      3.660      5.992
REMARK  Name = 23643565
REMARK  4 active torsions:
REMARK  status: ('A' for Active; 'I' for Inactive)
REMARK    1  A    between atoms: N_2  and  C_8
REMARK    2  A    between atoms: N_2  and  C_23
REMARK    3  A    between atoms: C_23  and  C_24
REMARK    4  A    between atoms: C_24  and  N_26
REMARK                            x       y       z     vdW  Elec       q    Type
REMARK                         _______ _______ _______ _____ _____    ______ ____
ROOT
ATOM      1  O   UNL     1      37.200 -18.389 -21.107  0.00  0.00    -0.209 OA
ATOM      2  N   UNL     1      35.007 -21.781 -17.747  0.00  0.00    -0.305 N 
ATOM      3  N   UNL     1      32.900 -22.088 -18.377  0.00  0.00    -0.305 N 
ATOM      4  N   UNL     1      33.392 -18.981 -22.199  0.00  0.00    -0.275 N 
ATOM      5  N   UNL     1      35.492 -17.919 -22.558  0.00  0.00    -0.302 NA
ATOM      6  N   UNL     1      33.654 -17.535 -23.960  0.00  0.00    -0.320 N 
ATOM      7  C   UNL     1      33.821 -22.413 -17.500  0.00  0.00    +0.208 C 
ATOM      8  C   UNL     1      34.839 -20.994 -18.857  0.00  0.00    +0.061 C 
ATOM      9  C   UNL     1      33.516 -21.203 -19.232  0.00  0.00    +0.061 C 
ATOM     10  C   UNL     1      33.852 -19.671 -21.073  0.00  0.00    +0.064 C 
ATOM     11  C   UNL     1      35.182 -19.484 -20.663  0.00  0.00    +0.110 C 
ATOM     12  C   UNL     1      35.709 -20.143 -19.542  0.00  0.00    +0.030 C 
ATOM     13  C   UNL     1      33.006 -20.534 -20.358  0.00  0.00    +0.031 C 
ATOM     14  C   UNL     1      36.036 -18.556 -21.457  0.00  0.00    +0.208 C 
ATOM     15  C   UNL     1      34.245 -18.141 -22.880  0.00  0.00    +0.248 C 
ATOM     16  H   UNL     1      35.834 -21.872 -17.220  0.00  0.00    +0.150 HD
ATOM     17  H   UNL     1      31.969 -22.408 -18.415  0.00  0.00    +0.150 HD
ATOM     18  H   UNL     1      32.464 -19.096 -22.504  0.00  0.00    +0.156 HD
ATOM     19  H   UNL     1      32.712 -17.723 -24.176  0.00  0.00    +0.146 HD
ATOM     20  H   UNL     1      34.172 -16.912 -24.519  0.00  0.00    +0.146 HD
ENDROOT
BRANCH   7  21
ATOM     21  N   UNL     1      33.750 -23.248 -16.440  0.00  0.00    -0.269 NA
ATOM     22  H   UNL     1      32.959 -23.831 -16.371  0.00  0.00    +0.126 HD
BRANCH  21  23
ATOM     23  C   UNL     1      34.762 -23.351 -15.388  0.00  0.00    +0.048 C 
BRANCH  23  24
ATOM     24  C   UNL     1      34.190 -24.116 -14.201  0.00  0.00    -0.060 C 
BRANCH  24  26
ATOM     25  O   UNL     1      37.805 -25.971 -13.147  0.00  0.00    -0.358 OA
ATOM     26  N   UNL     1      35.155 -25.102 -13.719  0.00  0.00    +0.391 N 
ATOM     27  C   UNL     1      35.903 -24.580 -12.567  0.00  0.00    -0.045 C 
ATOM     28  C   UNL     1      36.086 -25.489 -14.789  0.00  0.00    -0.045 C 
ATOM     29  C   UNL     1      36.912 -25.621 -12.089  0.00  0.00    +0.119 C 
ATOM     30  C   UNL     1      37.089 -26.508 -14.259  0.00  0.00    +0.119 C 
ATOM     31  H   UNL     1      34.636 -25.929 -13.424  0.00  0.00    -0.079 HD
ENDBRANCH  24  26
ENDBRANCH  23  24
ENDBRANCH  21  23
ENDBRANCH   7  21
TORSDOF 4
ENDMDL
