MODEL 1
REMARK VINA RESULT:     -11.3      0.000      0.000
REMARK  Name = 24754814
REMARK  9 active torsions:
REMARK  status: ('A' for Active; 'I' for Inactive)
REMARK    1  A    between atoms: C_3  and  C_8
REMARK    2  A    between atoms: C_7  and  C_20
REMARK    3  A    between atoms: C_8  and  O_9
REMARK    4  A    between atoms: O_9  and  C_11
REMARK    5  A    between atoms: C_11  and  C_12
REMARK    6  A    between atoms: C_12  and  C_14
REMARK    7  A    between atoms: C_20  and  N_22
REMARK    8  A    between atoms: C_23  and  O_25
REMARK    9  A    between atoms: O_25  and  C_26
REMARK                            x       y       z     vdW  Elec       q    Type
REMARK                         _______ _______ _______ _____ _____    ______ ____
ROOT
ATOM      1  O   UNL     1      33.077 -11.092 -23.815  0.00  0.00    -0.273 OA
ATOM      2  N   UNL     1      32.645 -12.351 -21.922  0.00  0.00    -0.276 N 
ATOM      3  C   UNL     1      33.694 -13.348 -22.141  0.00  0.00    +0.119 C 
ATOM      4  C   UNL     1      33.816 -14.051 -20.787  0.00  0.00    +0.025 C 
ATOM      5  C   UNL     1      32.403 -13.974 -20.221  0.00  0.00    +0.023 C 
ATOM      6  C   UNL     1      31.927 -12.603 -20.675  0.00  0.00    +0.094 C 
ATOM      7  C   UNL     1      32.452 -11.271 -22.768  0.00  0.00    +0.246 C 
ENDROOT
BRANCH   3   8
ATOM      8  C   UNL     1      33.320 -14.316 -23.262  0.00  0.00    +0.228 C 
BRANCH   8   9
ATOM      9  O   UNL     1      33.880 -15.582 -22.968  0.00  0.00    -0.446 OA
BRANCH   9  11
ATOM     10  O   UNL     1      34.569 -16.016 -25.126  0.00  0.00    -0.250 OA
ATOM     11  C   UNL     1      34.137 -16.394 -24.045  0.00  0.00    +0.322 C 
BRANCH  11  12
ATOM     12  C   UNL     1      33.800 -17.823 -23.688  0.00  0.00    +0.136 C 
BRANCH  12  14
ATOM     13 CL   UNL     1      34.062 -20.914 -19.500  0.00  0.00    -0.082 Cl
ATOM     14  C   UNL     1      34.590 -18.338 -22.515  0.00  0.00    -0.010 C 
ATOM     15  C   UNL     1      34.027 -19.277 -21.651  0.00  0.00    +0.008 C 
ATOM     16  C   UNL     1      35.888 -17.876 -22.291  0.00  0.00    -0.004 C 
ATOM     17  C   UNL     1      34.758 -19.754 -20.564  0.00  0.00    +0.057 C 
ATOM     18  C   UNL     1      36.620 -18.354 -21.203  0.00  0.00    +0.001 C 
ATOM     19  C   UNL     1      36.056 -19.292 -20.341  0.00  0.00    +0.011 C 
ENDBRANCH  12  14
ENDBRANCH  11  12
ENDBRANCH   9  11
ENDBRANCH   8   9
ENDBRANCH   3   8
BRANCH   7  20
ATOM     20  C   UNL     1      31.395 -10.286 -22.337  0.00  0.00    +0.178 C 
BRANCH  20  22
ATOM     21  O   UNL     1      31.239  -8.153 -20.371  0.00  0.00    -0.226 OA
ATOM     22  N   UNL     1      32.024  -9.008 -22.384  0.00  0.00    -0.262 N 
ATOM     23  C   UNL     1      31.900  -8.036 -21.397  0.00  0.00    +0.402 C 
ATOM     24  H   UNL     1      32.585  -8.799 -23.166  0.00  0.00    +0.153 HD
BRANCH  23  25
ATOM     25  O   UNL     1      32.621  -6.925 -21.733  0.00  0.00    -0.442 OA
BRANCH  25  26
ATOM     26  C   UNL     1      31.859  -5.794 -22.168  0.00  0.00    +0.138 C 
ATOM     27  C   UNL     1      30.555  -6.295 -22.788  0.00  0.00    +0.044 C 
ATOM     28  C   UNL     1      31.580  -4.901 -20.960  0.00  0.00    +0.044 C 
ATOM     29  C   UNL     1      32.695  -5.047 -23.206  0.00  0.00    +0.044 C 
ENDBRANCH  25  26
ENDBRANCH  23  25
ENDBRANCH  20  22
ENDBRANCH   7  20
TORSDOF 9
ENDMDL
MODEL 2
REMARK VINA RESULT:     -11.1      5.522     10.742
REMARK  Name = 24754814
REMARK  9 active torsions:
REMARK  status: ('A' for Active; 'I' for Inactive)
REMARK    1  A    between atoms: C_3  and  C_8
REMARK    2  A    between atoms: C_7  and  C_20
REMARK    3  A    between atoms: C_8  and  O_9
REMARK    4  A    between atoms: O_9  and  C_11
REMARK    5  A    between atoms: C_11  and  C_12
REMARK    6  A    between atoms: C_12  and  C_14
REMARK    7  A    between atoms: C_20  and  N_22
REMARK    8  A    between atoms: C_23  and  O_25
REMARK    9  A    between atoms: O_25  and  C_26
REMARK                            x       y       z     vdW  Elec       q    Type
REMARK                         _______ _______ _______ _____ _____    ______ ____
ROOT
ATOM      1  O   UNL     1      31.843 -20.098 -20.309  0.00  0.00    -0.273 OA
ATOM      2  N   UNL     1      34.140 -19.821 -20.308  0.00  0.00    -0.276 N 
ATOM      3  C   UNL     1      34.165 -18.622 -21.146  0.00  0.00    +0.119 C 
ATOM      4  C   UNL     1      35.575 -18.063 -20.942  0.00  0.00    +0.025 C 
ATOM      5  C   UNL     1      36.415 -19.310 -20.694  0.00  0.00    +0.023 C 
ATOM      6  C   UNL     1      35.485 -20.192 -19.875  0.00  0.00    +0.094 C 
ATOM      7  C   UNL     1      32.962 -20.440 -19.922  0.00  0.00    +0.246 C 
ENDROOT
BRANCH   3   8
ATOM      8  C   UNL     1      33.883 -18.958 -22.610  0.00  0.00    +0.228 C 
BRANCH   8   9
ATOM      9  O   UNL     1      34.540 -18.004 -23.424  0.00  0.00    -0.446 OA
BRANCH   9  11
ATOM     10  O   UNL     1      32.659 -17.532 -24.672  0.00  0.00    -0.250 OA
ATOM     11  C   UNL     1      33.729 -17.196 -24.182  0.00  0.00    +0.322 C 
BRANCH  11  12
ATOM     12  C   UNL     1      34.365 -15.833 -24.319  0.00  0.00    +0.136 C 
BRANCH  12  14
ATOM     13 CL   UNL     1      32.236 -11.281 -22.936  0.00  0.00    -0.082 Cl
ATOM     14  C   UNL     1      33.957 -14.881 -23.227  0.00  0.00    -0.010 C 
ATOM     15  C   UNL     1      33.356 -13.664 -23.549  0.00  0.00    +0.008 C 
ATOM     16  C   UNL     1      34.181 -15.215 -21.891  0.00  0.00    -0.004 C 
ATOM     17  C   UNL     1      32.979 -12.781 -22.537  0.00  0.00    +0.057 C 
ATOM     18  C   UNL     1      33.803 -14.332 -20.878  0.00  0.00    +0.001 C 
ATOM     19  C   UNL     1      33.202 -13.116 -21.202  0.00  0.00    +0.011 C 
ENDBRANCH  12  14
ENDBRANCH  11  12
ENDBRANCH   9  11
ENDBRANCH   8   9
ENDBRANCH   3   8
BRANCH   7  20
ATOM     20  C   UNL     1      33.116 -21.601 -18.973  0.00  0.00    +0.178 C 
BRANCH  20  22
ATOM     21  O   UNL     1      32.518 -23.117 -16.569  0.00  0.00    -0.226 OA
ATOM     22  N   UNL     1      31.865 -21.711 -18.299  0.00  0.00    -0.262 N 
ATOM     23  C   UNL     1      31.658 -22.461 -17.147  0.00  0.00    +0.402 C 
ATOM     24  H   UNL     1      31.096 -21.224 -18.674  0.00  0.00    +0.153 HD
BRANCH  23  25
ATOM     25  O   UNL     1      30.356 -22.364 -16.745  0.00  0.00    -0.442 OA
BRANCH  25  26
ATOM     26  C   UNL     1      30.091 -22.737 -15.389  0.00  0.00    +0.138 C 
ATOM     27  C   UNL     1      29.988 -24.260 -15.314  0.00  0.00    +0.044 C 
ATOM     28  C   UNL     1      31.233 -22.225 -14.512  0.00  0.00    +0.044 C 
ATOM     29  C   UNL     1      28.769 -22.089 -14.982  0.00  0.00    +0.044 C 
ENDBRANCH  25  26
ENDBRANCH  23  25
ENDBRANCH  20  22
ENDBRANCH   7  20
TORSDOF 9
ENDMDL
MODEL 3
REMARK VINA RESULT:     -10.7      8.555     13.320
REMARK  Name = 24754814
REMARK  9 active torsions:
REMARK  status: ('A' for Active; 'I' for Inactive)
REMARK    1  A    between atoms: C_3  and  C_8
REMARK    2  A    between atoms: C_7  and  C_20
REMARK    3  A    between atoms: C_8  and  O_9
REMARK    4  A    between atoms: O_9  and  C_11
REMARK    5  A    between atoms: C_11  and  C_12
REMARK    6  A    between atoms: C_12  and  C_14
REMARK    7  A    between atoms: C_20  and  N_22
REMARK    8  A    between atoms: C_23  and  O_25
REMARK    9  A    between atoms: O_25  and  C_26
REMARK                            x       y       z     vdW  Elec       q    Type
REMARK                         _______ _______ _______ _____ _____    ______ ____
ROOT
ATOM      1  O   UNL     1      34.520 -23.028 -16.550  0.00  0.00    -0.273 OA
ATOM      2  N   UNL     1      32.559 -22.832 -15.336  0.00  0.00    -0.276 N 
ATOM      3  C   UNL     1      31.645 -23.048 -16.458  0.00  0.00    +0.119 C 
ATOM      4  C   UNL     1      30.302 -23.337 -15.783  0.00  0.00    +0.025 C 
ATOM      5  C   UNL     1      30.372 -22.523 -14.497  0.00  0.00    +0.023 C 
ATOM      6  C   UNL     1      31.828 -22.661 -14.083  0.00  0.00    +0.094 C 
ATOM      7  C   UNL     1      33.937 -22.883 -15.474  0.00  0.00    +0.246 C 
ENDROOT
BRANCH   3   8
ATOM      8  C   UNL     1      31.581 -21.824 -17.370  0.00  0.00    +0.228 C 
BRANCH   8   9
ATOM      9  O   UNL     1      32.323 -22.099 -18.544  0.00  0.00    -0.446 OA
BRANCH   9  11
ATOM     10  O   UNL     1      31.993 -20.128 -19.695  0.00  0.00    -0.250 OA
ATOM     11  C   UNL     1      32.730 -21.007 -19.270  0.00  0.00    +0.322 C 
BRANCH  11  12
ATOM     12  C   UNL     1      34.227 -21.064 -19.464  0.00  0.00    +0.136 C 
BRANCH  12  14
ATOM     13 CL   UNL     1      33.560 -18.365 -23.873  0.00  0.00    -0.082 Cl
ATOM     14  C   UNL     1      34.736 -20.026 -20.429  0.00  0.00    -0.010 C 
ATOM     15  C   UNL     1      33.999 -19.713 -21.570  0.00  0.00    +0.008 C 
ATOM     16  C   UNL     1      35.946 -19.377 -20.180  0.00  0.00    -0.004 C 
ATOM     17  C   UNL     1      34.471 -18.752 -22.465  0.00  0.00    +0.057 C 
ATOM     18  C   UNL     1      36.417 -18.415 -21.074  0.00  0.00    +0.001 C 
ATOM     19  C   UNL     1      35.680 -18.102 -22.215  0.00  0.00    +0.011 C 
ENDBRANCH  12  14
ENDBRANCH  11  12
ENDBRANCH   9  11
ENDBRANCH   8   9
ENDBRANCH   3   8
BRANCH   7  20
ATOM     20  C   UNL     1      34.726 -22.741 -14.197  0.00  0.00    +0.178 C 
BRANCH  20  22
ATOM     21  O   UNL     1      37.183 -22.404 -12.685  0.00  0.00    -0.226 OA
ATOM     22  N   UNL     1      36.005 -23.305 -14.474  0.00  0.00    -0.262 N 
ATOM     23  C   UNL     1      37.139 -23.095 -13.698  0.00  0.00    +0.402 C 
ATOM     24  H   UNL     1      36.092 -23.881 -15.267  0.00  0.00    +0.153 HD
BRANCH  23  25
ATOM     25  O   UNL     1      38.205 -23.769 -14.223  0.00  0.00    -0.442 OA
BRANCH  25  26
ATOM     26  C   UNL     1      38.378 -25.115 -13.768  0.00  0.00    +0.138 C 
ATOM     27  C   UNL     1      37.975 -25.187 -12.296  0.00  0.00    +0.044 C 
ATOM     28  C   UNL     1      37.501 -26.033 -14.619  0.00  0.00    +0.044 C 
ATOM     29  C   UNL     1      39.853 -25.474 -13.938  0.00  0.00    +0.044 C 
ENDBRANCH  25  26
ENDBRANCH  23  25
ENDBRANCH  20  22
ENDBRANCH   7  20
TORSDOF 9
ENDMDL
MODEL 4
REMARK VINA RESULT:     -10.5      9.416     13.918
REMARK  Name = 24754814
REMARK  9 active torsions:
REMARK  status: ('A' for Active; 'I' for Inactive)
REMARK    1  A    between atoms: C_3  and  C_8
REMARK    2  A    between atoms: C_7  and  C_20
REMARK    3  A    between atoms: C_8  and  O_9
REMARK    4  A    between atoms: O_9  and  C_11
REMARK    5  A    between atoms: C_11  and  C_12
REMARK    6  A    between atoms: C_12  and  C_14
REMARK    7  A    between atoms: C_20  and  N_22
REMARK    8  A    between atoms: C_23  and  O_25
REMARK    9  A    between atoms: O_25  and  C_26
REMARK                            x       y       z     vdW  Elec       q    Type
REMARK                         _______ _______ _______ _____ _____    ______ ____
ROOT
ATOM      1  O   UNL     1      34.752 -24.259 -15.354  0.00  0.00    -0.273 OA
ATOM      2  N   UNL     1      32.740 -23.412 -14.585  0.00  0.00    -0.276 N 
ATOM      3  C   UNL     1      32.054 -23.411 -15.878  0.00  0.00    +0.119 C 
ATOM      4  C   UNL     1      30.579 -23.243 -15.507  0.00  0.00    +0.025 C 
ATOM      5  C   UNL     1      30.629 -22.411 -14.231  0.00  0.00    +0.023 C 
ATOM      6  C   UNL     1      31.856 -22.954 -13.516  0.00  0.00    +0.094 C 
ATOM      7  C   UNL     1      34.035 -23.881 -14.426  0.00  0.00    +0.246 C 
ENDROOT
BRANCH   3   8
ATOM      8  C   UNL     1      32.556 -22.281 -16.776  0.00  0.00    +0.228 C 
BRANCH   8   9
ATOM      9  O   UNL     1      33.554 -22.800 -17.635  0.00  0.00    -0.446 OA
BRANCH   9  11
ATOM     10  O   UNL     1      33.446 -23.597 -19.796  0.00  0.00    -0.250 OA
ATOM     11  C   UNL     1      33.306 -22.695 -18.982  0.00  0.00    +0.322 C 
BRANCH  11  12
ATOM     12  C   UNL     1      32.839 -21.294 -19.298  0.00  0.00    +0.136 C 
BRANCH  12  14
ATOM     13 CL   UNL     1      34.194 -17.589 -22.705  0.00  0.00    -0.082 Cl
ATOM     14  C   UNL     1      33.916 -20.438 -19.910  0.00  0.00    -0.010 C 
ATOM     15  C   UNL     1      33.594 -19.518 -20.907  0.00  0.00    +0.008 C 
ATOM     16  C   UNL     1      35.237 -20.567 -19.480  0.00  0.00    -0.004 C 
ATOM     17  C   UNL     1      34.592 -18.726 -21.475  0.00  0.00    +0.057 C 
ATOM     18  C   UNL     1      36.236 -19.773 -20.048  0.00  0.00    +0.001 C 
ATOM     19  C   UNL     1      35.913 -18.854 -21.044  0.00  0.00    +0.011 C 
ENDBRANCH  12  14
ENDBRANCH  11  12
ENDBRANCH   9  11
ENDBRANCH   8   9
ENDBRANCH   3   8
BRANCH   7  20
ATOM     20  C   UNL     1      34.549 -23.906 -13.009  0.00  0.00    +0.178 C 
BRANCH  20  22
ATOM     21  O   UNL     1      36.445 -25.512 -11.505  0.00  0.00    -0.226 OA
ATOM     22  N   UNL     1      35.970 -23.910 -13.120  0.00  0.00    -0.262 N 
ATOM     23  C   UNL     1      36.813 -24.713 -12.360  0.00  0.00    +0.402 C 
ATOM     24  H   UNL     1      36.382 -23.305 -13.778  0.00  0.00    +0.153 HD
BRANCH  23  25
ATOM     25  O   UNL     1      38.117 -24.486 -12.699  0.00  0.00    -0.442 OA
BRANCH  25  26
ATOM     26  C   UNL     1      38.521 -24.970 -13.985  0.00  0.00    +0.138 C 
ATOM     27  C   UNL     1      37.631 -26.154 -14.360  0.00  0.00    +0.044 C 
ATOM     28  C   UNL     1      38.376 -23.836 -14.999  0.00  0.00    +0.044 C 
ATOM     29  C   UNL     1      39.980 -25.409 -13.875  0.00  0.00    +0.044 C 
ENDBRANCH  25  26
ENDBRANCH  23  25
ENDBRANCH  20  22
ENDBRANCH   7  20
TORSDOF 9
ENDMDL
MODEL 5
REMARK VINA RESULT:     -10.4      6.853     12.715
REMARK  Name = 24754814
REMARK  9 active torsions:
REMARK  status: ('A' for Active; 'I' for Inactive)
REMARK    1  A    between atoms: C_3  and  C_8
REMARK    2  A    between atoms: C_7  and  C_20
REMARK    3  A    between atoms: C_8  and  O_9
REMARK    4  A    between atoms: O_9  and  C_11
REMARK    5  A    between atoms: C_11  and  C_12
REMARK    6  A    between atoms: C_12  and  C_14
REMARK    7  A    between atoms: C_20  and  N_22
REMARK    8  A    between atoms: C_23  and  O_25
REMARK    9  A    between atoms: O_25  and  C_26
REMARK                            x       y       z     vdW  Elec       q    Type
REMARK                         _______ _______ _______ _____ _____    ______ ____
ROOT
ATOM      1  O   UNL     1      37.256 -21.294 -16.869  0.00  0.00    -0.273 OA
ATOM      2  N   UNL     1      35.190 -21.584 -17.871  0.00  0.00    -0.276 N 
ATOM      3  C   UNL     1      35.628 -21.307 -19.240  0.00  0.00    +0.119 C 
ATOM      4  C   UNL     1      34.475 -21.827 -20.102  0.00  0.00    +0.025 C 
ATOM      5  C   UNL     1      33.250 -21.612 -19.221  0.00  0.00    +0.023 C 
ATOM      6  C   UNL     1      33.772 -21.930 -17.829  0.00  0.00    +0.094 C 
ATOM      7  C   UNL     1      36.063 -21.594 -16.795  0.00  0.00    +0.246 C 
ENDROOT
BRANCH   3   8
ATOM      8  C   UNL     1      35.882 -19.815 -19.454  0.00  0.00    +0.228 C 
BRANCH   8   9
ATOM      9  O   UNL     1      35.075 -19.372 -20.530  0.00  0.00    -0.446 OA
BRANCH   9  11
ATOM     10  O   UNL     1      36.800 -18.063 -21.322  0.00  0.00    -0.250 OA
ATOM     11  C   UNL     1      35.690 -18.561 -21.451  0.00  0.00    +0.322 C 
BRANCH  11  12
ATOM     12  C   UNL     1      34.782 -18.379 -22.644  0.00  0.00    +0.136 C 
BRANCH  12  14
ATOM     13 CL   UNL     1      33.930 -13.608 -20.727  0.00  0.00    -0.082 Cl
ATOM     14  C   UNL     1      34.409 -16.941 -22.887  0.00  0.00    -0.010 C 
ATOM     15  C   UNL     1      34.349 -16.045 -21.820  0.00  0.00    +0.008 C 
ATOM     16  C   UNL     1      34.123 -16.503 -24.181  0.00  0.00    -0.004 C 
ATOM     17  C   UNL     1      34.003 -14.712 -22.044  0.00  0.00    +0.057 C 
ATOM     18  C   UNL     1      33.778 -15.170 -24.406  0.00  0.00    +0.001 C 
ATOM     19  C   UNL     1      33.718 -14.275 -23.338  0.00  0.00    +0.011 C 
ENDBRANCH  12  14
ENDBRANCH  11  12
ENDBRANCH   9  11
ENDBRANCH   8   9
ENDBRANCH   3   8
BRANCH   7  20
ATOM     20  C   UNL     1      35.463 -22.001 -15.473  0.00  0.00    +0.178 C 
BRANCH  20  22
ATOM     21  O   UNL     1      35.366 -23.124 -12.796  0.00  0.00    -0.226 OA
ATOM     22  N   UNL     1      36.535 -22.568 -14.726  0.00  0.00    -0.262 N 
ATOM     23  C   UNL     1      36.408 -23.089 -13.442  0.00  0.00    +0.402 C 
ATOM     24  H   UNL     1      37.426 -22.594 -15.145  0.00  0.00    +0.153 HD
BRANCH  23  25
ATOM     25  O   UNL     1      37.613 -23.557 -12.999  0.00  0.00    -0.442 OA
BRANCH  25  26
ATOM     26  C   UNL     1      37.848 -24.956 -13.191  0.00  0.00    +0.138 C 
ATOM     27  C   UNL     1      39.334 -25.165 -13.478  0.00  0.00    +0.044 C 
ATOM     28  C   UNL     1      37.429 -25.698 -11.922  0.00  0.00    +0.044 C 
ATOM     29  C   UNL     1      37.002 -25.406 -14.381  0.00  0.00    +0.044 C 
ENDBRANCH  25  26
ENDBRANCH  23  25
ENDBRANCH  20  22
ENDBRANCH   7  20
TORSDOF 9
ENDMDL
MODEL 6
REMARK VINA RESULT:     -10.3      9.642     13.150
REMARK  Name = 24754814
REMARK  9 active torsions:
REMARK  status: ('A' for Active; 'I' for Inactive)
REMARK    1  A    between atoms: C_3  and  C_8
REMARK    2  A    between atoms: C_7  and  C_20
REMARK    3  A    between atoms: C_8  and  O_9
REMARK    4  A    between atoms: O_9  and  C_11
REMARK    5  A    between atoms: C_11  and  C_12
REMARK    6  A    between atoms: C_12  and  C_14
REMARK    7  A    between atoms: C_20  and  N_22
REMARK    8  A    between atoms: C_23  and  O_25
REMARK    9  A    between atoms: O_25  and  C_26
REMARK                            x       y       z     vdW  Elec       q    Type
REMARK                         _______ _______ _______ _____ _____    ______ ____
ROOT
ATOM      1  O   UNL     1      34.467 -22.132 -14.485  0.00  0.00    -0.273 OA
ATOM      2  N   UNL     1      35.880 -23.964 -14.414  0.00  0.00    -0.276 N 
ATOM      3  C   UNL     1      37.131 -23.208 -14.330  0.00  0.00    +0.119 C 
ATOM      4  C   UNL     1      38.158 -24.252 -13.887  0.00  0.00    +0.025 C 
ATOM      5  C   UNL     1      37.635 -25.544 -14.502  0.00  0.00    +0.023 C 
ATOM      6  C   UNL     1      36.128 -25.403 -14.365  0.00  0.00    +0.094 C 
ATOM      7  C   UNL     1      34.637 -23.352 -14.443  0.00  0.00    +0.246 C 
ENDROOT
BRANCH   3   8
ATOM      8  C   UNL     1      37.493 -22.576 -15.673  0.00  0.00    +0.228 C 
BRANCH   8   9
ATOM      9  O   UNL     1      36.950 -21.269 -15.714  0.00  0.00    -0.446 OA
BRANCH   9  11
ATOM     10  O   UNL     1      37.096 -19.559 -17.255  0.00  0.00    -0.250 OA
ATOM     11  C   UNL     1      36.811 -20.712 -16.962  0.00  0.00    +0.322 C 
BRANCH  11  12
ATOM     12  C   UNL     1      36.250 -21.744 -17.912  0.00  0.00    +0.136 C 
BRANCH  12  14
ATOM     13 CL   UNL     1      34.322 -18.896 -21.828  0.00  0.00    -0.082 Cl
ATOM     14  C   UNL     1      35.051 -21.250 -18.677  0.00  0.00    -0.010 C 
ATOM     15  C   UNL     1      35.221 -20.401 -19.770  0.00  0.00    +0.008 C 
ATOM     16  C   UNL     1      33.769 -21.641 -18.291  0.00  0.00    -0.004 C 
ATOM     17  C   UNL     1      34.111 -19.943 -20.479  0.00  0.00    +0.057 C 
ATOM     18  C   UNL     1      32.657 -21.183 -19.000  0.00  0.00    +0.001 C 
ATOM     19  C   UNL     1      32.828 -20.335 -20.093  0.00  0.00    +0.011 C 
ENDBRANCH  12  14
ENDBRANCH  11  12
ENDBRANCH   9  11
ENDBRANCH   8   9
ENDBRANCH   3   8
BRANCH   7  20
ATOM     20  C   UNL     1      33.452 -24.284 -14.425  0.00  0.00    +0.178 C 
BRANCH  20  22
ATOM     21  O   UNL     1      31.062 -24.352 -12.776  0.00  0.00    -0.226 OA
ATOM     22  N   UNL     1      32.305 -23.443 -14.516  0.00  0.00    -0.262 N 
ATOM     23  C   UNL     1      31.194 -23.539 -13.684  0.00  0.00    +0.402 C 
ATOM     24  H   UNL     1      32.298 -22.748 -15.213  0.00  0.00    +0.153 HD
BRANCH  23  25
ATOM     25  O   UNL     1      30.266 -22.596 -14.023  0.00  0.00    -0.442 OA
BRANCH  25  26
ATOM     26  C   UNL     1      29.496 -22.870 -15.198  0.00  0.00    +0.138 C 
ATOM     27  C   UNL     1      29.223 -24.372 -15.261  0.00  0.00    +0.044 C 
ATOM     28  C   UNL     1      28.190 -22.081 -15.120  0.00  0.00    +0.044 C 
ATOM     29  C   UNL     1      30.322 -22.424 -16.404  0.00  0.00    +0.044 C 
ENDBRANCH  25  26
ENDBRANCH  23  25
ENDBRANCH  20  22
ENDBRANCH   7  20
TORSDOF 9
ENDMDL
MODEL 7
REMARK VINA RESULT:     -10.2      1.699      2.694
REMARK  Name = 24754814
REMARK  9 active torsions:
REMARK  status: ('A' for Active; 'I' for Inactive)
REMARK    1  A    between atoms: C_3  and  C_8
REMARK    2  A    between atoms: C_7  and  C_20
REMARK    3  A    between atoms: C_8  and  O_9
REMARK    4  A    between atoms: O_9  and  C_11
REMARK    5  A    between atoms: C_11  and  C_12
REMARK    6  A    between atoms: C_12  and  C_14
REMARK    7  A    between atoms: C_20  and  N_22
REMARK    8  A    between atoms: C_23  and  O_25
REMARK    9  A    between atoms: O_25  and  C_26
REMARK                            x       y       z     vdW  Elec       q    Type
REMARK                         _______ _______ _______ _____ _____    ______ ____
ROOT
ATOM      1  O   UNL     1      32.383 -12.285 -21.515  0.00  0.00    -0.273 OA
ATOM      2  N   UNL     1      32.788 -13.124 -23.634  0.00  0.00    -0.276 N 
ATOM      3  C   UNL     1      33.006 -14.513 -23.225  0.00  0.00    +0.119 C 
ATOM      4  C   UNL     1      32.910 -15.297 -24.535  0.00  0.00    +0.025 C 
ATOM      5  C   UNL     1      33.427 -14.311 -25.575  0.00  0.00    +0.023 C 
ATOM      6  C   UNL     1      32.881 -12.979 -25.084  0.00  0.00    +0.094 C 
ATOM      7  C   UNL     1      32.450 -12.125 -22.735  0.00  0.00    +0.246 C 
ENDROOT
BRANCH   3   8
ATOM      8  C   UNL     1      34.362 -14.689 -22.544  0.00  0.00    +0.228 C 
BRANCH   8   9
ATOM      9  O   UNL     1      34.806 -16.015 -22.764  0.00  0.00    -0.446 OA
BRANCH   9  11
ATOM     10  O   UNL     1      34.720 -16.475 -20.506  0.00  0.00    -0.250 OA
ATOM     11  C   UNL     1      34.795 -16.844 -21.670  0.00  0.00    +0.322 C 
BRANCH  11  12
ATOM     12  C   UNL     1      34.893 -18.280 -22.128  0.00  0.00    +0.136 C 
BRANCH  12  14
ATOM     13 CL   UNL     1      36.117 -21.496 -18.213  0.00  0.00    -0.082 Cl
ATOM     14  C   UNL     1      34.444 -19.264 -21.080  0.00  0.00    -0.010 C 
ATOM     15  C   UNL     1      35.378 -19.856 -20.231  0.00  0.00    +0.008 C 
ATOM     16  C   UNL     1      33.091 -19.585 -20.959  0.00  0.00    -0.004 C 
ATOM     17  C   UNL     1      34.963 -20.768 -19.261  0.00  0.00    +0.057 C 
ATOM     18  C   UNL     1      32.675 -20.498 -19.988  0.00  0.00    +0.001 C 
ATOM     19  C   UNL     1      33.610 -21.088 -19.140  0.00  0.00    +0.011 C 
ENDBRANCH  12  14
ENDBRANCH  11  12
ENDBRANCH   9  11
ENDBRANCH   8   9
ENDBRANCH   3   8
BRANCH   7  20
ATOM     20  C   UNL     1      32.161 -10.775 -23.341  0.00  0.00    +0.178 C 
BRANCH  20  22
ATOM     21  O   UNL     1      30.626  -8.317 -23.147  0.00  0.00    -0.226 OA
ATOM     22  N   UNL     1      32.099  -9.869 -22.243  0.00  0.00    -0.262 N 
ATOM     23  C   UNL     1      31.336  -8.707 -22.227  0.00  0.00    +0.402 C 
ATOM     24  H   UNL     1      32.632 -10.080 -21.442  0.00  0.00    +0.153 HD
BRANCH  23  25
ATOM     25  O   UNL     1      31.488  -8.056 -21.035  0.00  0.00    -0.442 OA
BRANCH  25  26
ATOM     26  C   UNL     1      31.925  -6.695 -21.118  0.00  0.00    +0.138 C 
ATOM     27  C   UNL     1      30.799  -5.859 -21.725  0.00  0.00    +0.044 C 
ATOM     28  C   UNL     1      32.268  -6.208 -19.711  0.00  0.00    +0.044 C 
ATOM     29  C   UNL     1      33.161  -6.662 -22.015  0.00  0.00    +0.044 C 
ENDBRANCH  25  26
ENDBRANCH  23  25
ENDBRANCH  20  22
ENDBRANCH   7  20
TORSDOF 9
ENDMDL
MODEL 8
REMARK VINA RESULT:     -10.2      3.507     10.235
REMARK  Name = 24754814
REMARK  9 active torsions:
REMARK  status: ('A' for Active; 'I' for Inactive)
REMARK    1  A    between atoms: C_3  and  C_8
REMARK    2  A    between atoms: C_7  and  C_20
REMARK    3  A    between atoms: C_8  and  O_9
REMARK    4  A    between atoms: O_9  and  C_11
REMARK    5  A    between atoms: C_11  and  C_12
REMARK    6  A    between atoms: C_12  and  C_14
REMARK    7  A    between atoms: C_20  and  N_22
REMARK    8  A    between atoms: C_23  and  O_25
REMARK    9  A    between atoms: O_25  and  C_26
REMARK                            x       y       z     vdW  Elec       q    Type
REMARK                         _______ _______ _______ _____ _____    ______ ____
ROOT
ATOM      1  O   UNL     1      34.180 -14.583 -20.520  0.00  0.00    -0.273 OA
ATOM      2  N   UNL     1      33.554 -13.717 -22.573  0.00  0.00    -0.276 N 
ATOM      3  C   UNL     1      33.128 -12.406 -22.079  0.00  0.00    +0.119 C 
ATOM      4  C   UNL     1      33.039 -11.552 -23.345  0.00  0.00    +0.025 C 
ATOM      5  C   UNL     1      32.649 -12.556 -24.422  0.00  0.00    +0.023 C 
ATOM      6  C   UNL     1      33.427 -13.802 -24.025  0.00  0.00    +0.094 C 
ATOM      7  C   UNL     1      34.089 -14.690 -21.744  0.00  0.00    +0.246 C 
ENDROOT
BRANCH   3   8
ATOM      8  C   UNL     1      31.790 -12.494 -21.346  0.00  0.00    +0.228 C 
BRANCH   8   9
ATOM      9  O   UNL     1      31.740 -11.461 -20.379  0.00  0.00    -0.446 OA
BRANCH   9  11
ATOM     10  O   UNL     1      30.036 -10.418 -21.532  0.00  0.00    -0.250 OA
ATOM     11  C   UNL     1      30.886 -10.421 -20.651  0.00  0.00    +0.322 C 
BRANCH  11  12
ATOM     12  C   UNL     1      31.161  -9.283 -19.696  0.00  0.00    +0.136 C 
BRANCH  12  14
ATOM     13 CL   UNL     1      33.438  -7.042 -23.815  0.00  0.00    -0.082 Cl
ATOM     14  C   UNL     1      31.617  -8.028 -20.392  0.00  0.00    -0.010 C 
ATOM     15  C   UNL     1      32.243  -8.107 -21.635  0.00  0.00    +0.008 C 
ATOM     16  C   UNL     1      31.412  -6.785 -19.792  0.00  0.00    -0.004 C 
ATOM     17  C   UNL     1      32.666  -6.944 -22.280  0.00  0.00    +0.057 C 
ATOM     18  C   UNL     1      31.834  -5.621 -20.437  0.00  0.00    +0.001 C 
ATOM     19  C   UNL     1      32.460  -5.701 -21.680  0.00  0.00    +0.011 C 
ENDBRANCH  12  14
ENDBRANCH  11  12
ENDBRANCH   9  11
ENDBRANCH   8   9
ENDBRANCH   3   8
BRANCH   7  20
ATOM     20  C   UNL     1      34.572 -15.940 -22.435  0.00  0.00    +0.178 C 
BRANCH  20  22
ATOM     21  O   UNL     1      36.645 -17.883 -21.831  0.00  0.00    -0.226 OA
ATOM     22  N   UNL     1      34.549 -16.959 -21.439  0.00  0.00    -0.262 N 
ATOM     23  C   UNL     1      35.588 -17.855 -21.210  0.00  0.00    +0.402 C 
ATOM     24  H   UNL     1      33.746 -17.034 -20.875  0.00  0.00    +0.153 HD
BRANCH  23  25
ATOM     25  O   UNL     1      35.264 -18.706 -20.191  0.00  0.00    -0.442 OA
BRANCH  25  26
ATOM     26  C   UNL     1      34.617 -19.923 -20.575  0.00  0.00    +0.138 C 
ATOM     27  C   UNL     1      33.204 -19.928 -19.992  0.00  0.00    +0.044 C 
ATOM     28  C   UNL     1      34.575 -19.991 -22.102  0.00  0.00    +0.044 C 
ATOM     29  C   UNL     1      35.436 -21.080 -20.009  0.00  0.00    +0.044 C 
ENDBRANCH  25  26
ENDBRANCH  23  25
ENDBRANCH  20  22
ENDBRANCH   7  20
TORSDOF 9
ENDMDL
MODEL 9
REMARK VINA RESULT:     -10.2      4.058     10.381
REMARK  Name = 24754814
REMARK  9 active torsions:
REMARK  status: ('A' for Active; 'I' for Inactive)
REMARK    1  A    between atoms: C_3  and  C_8
REMARK    2  A    between atoms: C_7  and  C_20
REMARK    3  A    between atoms: C_8  and  O_9
REMARK    4  A    between atoms: O_9  and  C_11
REMARK    5  A    between atoms: C_11  and  C_12
REMARK    6  A    between atoms: C_12  and  C_14
REMARK    7  A    between atoms: C_20  and  N_22
REMARK    8  A    between atoms: C_23  and  O_25
REMARK    9  A    between atoms: O_25  and  C_26
REMARK                            x       y       z     vdW  Elec       q    Type
REMARK                         _______ _______ _______ _____ _____    ______ ____
ROOT
ATOM      1  O   UNL     1      35.113 -17.213 -20.476  0.00  0.00    -0.273 OA
ATOM      2  N   UNL     1      34.337 -16.796 -22.616  0.00  0.00    -0.276 N 
ATOM      3  C   UNL     1      34.657 -15.368 -22.635  0.00  0.00    +0.119 C 
ATOM      4  C   UNL     1      34.568 -14.995 -24.116  0.00  0.00    +0.025 C 
ATOM      5  C   UNL     1      33.502 -15.942 -24.655  0.00  0.00    +0.023 C 
ATOM      6  C   UNL     1      33.771 -17.229 -23.891  0.00  0.00    +0.094 C 
ATOM      7  C   UNL     1      34.635 -17.615 -21.539  0.00  0.00    +0.246 C 
ENDROOT
BRANCH   3   8
ATOM      8  C   UNL     1      33.679 -14.566 -21.778  0.00  0.00    +0.228 C 
BRANCH   8   9
ATOM      9  O   UNL     1      33.909 -13.188 -22.004  0.00  0.00    -0.446 OA
BRANCH   9  11
ATOM     10  O   UNL     1      32.944 -12.019 -23.743  0.00  0.00    -0.250 OA
ATOM     11  C   UNL     1      32.892 -12.499 -22.618  0.00  0.00    +0.322 C 
BRANCH  11  12
ATOM     12  C   UNL     1      31.703 -12.425 -21.689  0.00  0.00    +0.136 C 
BRANCH  12  14
ATOM     13 CL   UNL     1      30.800  -7.337 -22.373  0.00  0.00    -0.082 Cl
ATOM     14  C   UNL     1      31.511 -11.058 -21.087  0.00  0.00    -0.010 C 
ATOM     15  C   UNL     1      31.273  -9.959 -21.912  0.00  0.00    +0.008 C 
ATOM     16  C   UNL     1      31.572 -10.891 -19.703  0.00  0.00    -0.004 C 
ATOM     17  C   UNL     1      31.095  -8.693 -21.355  0.00  0.00    +0.057 C 
ATOM     18  C   UNL     1      31.394  -9.624 -19.145  0.00  0.00    +0.001 C 
ATOM     19  C   UNL     1      31.155  -8.526 -19.971  0.00  0.00    +0.011 C 
ENDBRANCH  12  14
ENDBRANCH  11  12
ENDBRANCH   9  11
ENDBRANCH   8   9
ENDBRANCH   3   8
BRANCH   7  20
ATOM     20  C   UNL     1      34.332 -19.080 -21.729  0.00  0.00    +0.178 C 
BRANCH  20  22
ATOM     21  O   UNL     1      32.043 -20.474 -20.612  0.00  0.00    -0.226 OA
ATOM     22  N   UNL     1      34.192 -19.614 -20.416  0.00  0.00    -0.262 N 
ATOM     23  C   UNL     1      33.058 -20.273 -19.954  0.00  0.00    +0.402 C 
ATOM     24  H   UNL     1      34.949 -19.512 -19.794  0.00  0.00    +0.153 HD
BRANCH  23  25
ATOM     25  O   UNL     1      33.233 -20.666 -18.657  0.00  0.00    -0.442 OA
BRANCH  25  26
ATOM     26  C   UNL     1      34.088 -21.796 -18.457  0.00  0.00    +0.138 C 
ATOM     27  C   UNL     1      33.696 -22.886 -19.454  0.00  0.00    +0.044 C 
ATOM     28  C   UNL     1      35.535 -21.355 -18.673  0.00  0.00    +0.044 C 
ATOM     29  C   UNL     1      33.883 -22.281 -17.023  0.00  0.00    +0.044 C 
ENDBRANCH  25  26
ENDBRANCH  23  25
ENDBRANCH  20  22
ENDBRANCH   7  20
TORSDOF 9
ENDMDL
