MODEL 1
REMARK VINA RESULT:     -10.8      0.000      0.000
REMARK  Name = 5281855
REMARK  4 active torsions:
REMARK  status: ('A' for Active; 'I' for Inactive)
REMARK    1  A    between atoms: C_11  and  O_19
REMARK    2  A    between atoms: C_12  and  O_21
REMARK    3  A    between atoms: C_17  and  O_23
REMARK    4  A    between atoms: C_18  and  O_25
REMARK                            x       y       z     vdW  Elec       q    Type
REMARK                         _______ _______ _______ _____ _____    ______ ____
ROOT
ATOM      1  O   UNL     1      36.028 -22.566 -16.283  0.00  0.00    -0.418 OA
ATOM      2  O   UNL     1      33.047 -23.911 -12.449  0.00  0.00    -0.418 OA
ATOM      3  O   UNL     1      38.149 -22.779 -15.439  0.00  0.00    -0.244 OA
ATOM      4  O   UNL     1      30.927 -23.695 -13.292  0.00  0.00    -0.244 OA
ATOM      5  C   UNL     1      34.096 -23.074 -14.906  0.00  0.00    +0.047 A 
ATOM      6  C   UNL     1      34.979 -23.402 -13.826  0.00  0.00    +0.047 A 
ATOM      7  C   UNL     1      36.363 -23.313 -13.974  0.00  0.00    +0.082 A 
ATOM      8  C   UNL     1      32.713 -23.163 -14.758  0.00  0.00    +0.082 A 
ATOM      9  C   UNL     1      34.627 -22.660 -16.122  0.00  0.00    +0.185 A 
ATOM     10  C   UNL     1      34.449 -23.817 -12.610  0.00  0.00    +0.185 A 
ATOM     11  C   UNL     1      33.811 -22.330 -17.200  0.00  0.00    +0.203 C 
ATOM     12  C   UNL     1      35.264 -24.146 -11.532  0.00  0.00    +0.203 C 
ATOM     13  C   UNL     1      37.201 -23.640 -12.901  0.00  0.00    +0.046 C 
ATOM     14  C   UNL     1      31.875 -22.837 -15.831  0.00  0.00    +0.046 C 
ATOM     15  C   UNL     1      36.941 -22.872 -15.267  0.00  0.00    +0.346 A 
ATOM     16  C   UNL     1      32.135 -23.605 -13.464  0.00  0.00    +0.346 A 
ATOM     17  C   UNL     1      32.428 -22.422 -17.048  0.00  0.00    +0.171 C 
ATOM     18  C   UNL     1      36.648 -24.055 -11.684  0.00  0.00    +0.171 C 
ENDROOT
BRANCH  11  19
ATOM     19  O   UNL     1      34.352 -21.927 -18.381  0.00  0.00    -0.501 OA
ATOM     20  H   UNL     1      33.948 -21.238 -18.871  0.00  0.00    +0.292 HD
ENDBRANCH  11  19
BRANCH  12  21
ATOM     21  O   UNL     1      34.724 -24.549 -10.351  0.00  0.00    -0.501 OA
ATOM     22  H   UNL     1      35.281 -24.760  -9.627  0.00  0.00    +0.292 HD
ENDBRANCH  12  21
BRANCH  17  23
ATOM     23  O   UNL     1      31.599 -22.106 -18.082  0.00  0.00    -0.503 OA
ATOM     24  H   UNL     1      31.486 -22.706 -18.792  0.00  0.00    +0.292 HD
ENDBRANCH  17  23
BRANCH  18  25
ATOM     25  O   UNL     1      37.477 -24.370 -10.650  0.00  0.00    -0.503 OA
ATOM     26  H   UNL     1      38.259 -24.860 -10.808  0.00  0.00    +0.292 HD
ENDBRANCH  18  25
TORSDOF 4
ENDMDL
MODEL 2
REMARK VINA RESULT:     -10.8      0.061      6.255
REMARK  Name = 5281855
REMARK  4 active torsions:
REMARK  status: ('A' for Active; 'I' for Inactive)
REMARK    1  A    between atoms: C_11  and  O_19
REMARK    2  A    between atoms: C_12  and  O_21
REMARK    3  A    between atoms: C_17  and  O_23
REMARK    4  A    between atoms: C_18  and  O_25
REMARK                            x       y       z     vdW  Elec       q    Type
REMARK                         _______ _______ _______ _____ _____    ______ ____
ROOT
ATOM      1  O   UNL     1      33.107 -23.911 -12.401  0.00  0.00    -0.418 OA
ATOM      2  O   UNL     1      36.050 -22.588 -16.271  0.00  0.00    -0.418 OA
ATOM      3  O   UNL     1      30.978 -23.697 -13.223  0.00  0.00    -0.244 OA
ATOM      4  O   UNL     1      38.179 -22.799 -15.448  0.00  0.00    -0.244 OA
ATOM      5  C   UNL     1      35.025 -23.412 -13.800  0.00  0.00    +0.047 A 
ATOM      6  C   UNL     1      34.132 -23.088 -14.873  0.00  0.00    +0.047 A 
ATOM      7  C   UNL     1      32.749 -23.174 -14.710  0.00  0.00    +0.082 A 
ATOM      8  C   UNL     1      36.407 -23.325 -13.962  0.00  0.00    +0.082 A 
ATOM      9  C   UNL     1      34.507 -23.820 -12.577  0.00  0.00    +0.185 A 
ATOM     10  C   UNL     1      34.650 -22.680 -16.095  0.00  0.00    +0.185 A 
ATOM     11  C   UNL     1      35.333 -24.145 -11.506  0.00  0.00    +0.203 C 
ATOM     12  C   UNL     1      33.824 -22.354 -17.167  0.00  0.00    +0.203 C 
ATOM     13  C   UNL     1      31.901 -22.851 -15.775  0.00  0.00    +0.046 C 
ATOM     14  C   UNL     1      37.256 -23.649 -12.897  0.00  0.00    +0.046 C 
ATOM     15  C   UNL     1      32.185 -23.609 -13.408  0.00  0.00    +0.346 A 
ATOM     16  C   UNL     1      36.972 -22.891 -15.264  0.00  0.00    +0.346 A 
ATOM     17  C   UNL     1      36.715 -24.058 -11.673  0.00  0.00    +0.171 C 
ATOM     18  C   UNL     1      32.442 -22.442 -17.000  0.00  0.00    +0.171 C 
ENDROOT
BRANCH  11  19
ATOM     19  O   UNL     1      34.804 -24.543 -10.317  0.00  0.00    -0.501 OA
ATOM     20  H   UNL     1      34.013 -25.043 -10.300  0.00  0.00    +0.292 HD
ENDBRANCH  11  19
BRANCH  12  21
ATOM     21  O   UNL     1      34.353 -21.957 -18.355  0.00  0.00    -0.501 OA
ATOM     22  H   UNL     1      35.124 -21.425 -18.371  0.00  0.00    +0.292 HD
ENDBRANCH  12  21
BRANCH  17  23
ATOM     23  O   UNL     1      37.554 -24.368 -10.645  0.00  0.00    -0.503 OA
ATOM     24  H   UNL     1      38.456 -24.554 -10.816  0.00  0.00    +0.292 HD
ENDBRANCH  17  23
BRANCH  18  25
ATOM     25  O   UNL     1      31.603 -22.131 -18.027  0.00  0.00    -0.503 OA
ATOM     26  H   UNL     1      30.964 -22.753 -18.315  0.00  0.00    +0.292 HD
ENDBRANCH  18  25
TORSDOF 4
ENDMDL
MODEL 3
REMARK VINA RESULT:     -10.6      2.244      5.555
REMARK  Name = 5281855
REMARK  4 active torsions:
REMARK  status: ('A' for Active; 'I' for Inactive)
REMARK    1  A    between atoms: C_11  and  O_19
REMARK    2  A    between atoms: C_12  and  O_21
REMARK    3  A    between atoms: C_17  and  O_23
REMARK    4  A    between atoms: C_18  and  O_25
REMARK                            x       y       z     vdW  Elec       q    Type
REMARK                         _______ _______ _______ _____ _____    ______ ____
ROOT
ATOM      1  O   UNL     1      34.216 -23.620 -14.548  0.00  0.00    -0.418 OA
ATOM      2  O   UNL     1      30.728 -21.782 -17.686  0.00  0.00    -0.418 OA
ATOM      3  O   UNL     1      36.201 -23.199 -15.615  0.00  0.00    -0.244 OA
ATOM      4  O   UNL     1      28.743 -22.207 -16.621  0.00  0.00    -0.244 OA
ATOM      5  C   UNL     1      32.110 -22.966 -15.559  0.00  0.00    +0.047 A 
ATOM      6  C   UNL     1      32.835 -22.437 -16.676  0.00  0.00    +0.047 A 
ATOM      7  C   UNL     1      34.227 -22.499 -16.727  0.00  0.00    +0.082 A 
ATOM      8  C   UNL     1      30.718 -22.903 -15.508  0.00  0.00    +0.082 A 
ATOM      9  C   UNL     1      32.805 -23.551 -14.507  0.00  0.00    +0.185 A 
ATOM     10  C   UNL     1      32.139 -21.851 -17.727  0.00  0.00    +0.185 A 
ATOM     11  C   UNL     1      32.146 -24.079 -13.401  0.00  0.00    +0.203 C 
ATOM     12  C   UNL     1      32.798 -21.323 -18.834  0.00  0.00    +0.203 C 
ATOM     13  C   UNL     1      34.908 -21.974 -17.831  0.00  0.00    +0.046 C 
ATOM     14  C   UNL     1      30.036 -23.427 -14.403  0.00  0.00    +0.046 C 
ATOM     15  C   UNL     1      34.979 -23.122 -15.610  0.00  0.00    +0.346 A 
ATOM     16  C   UNL     1      29.965 -22.280 -16.625  0.00  0.00    +0.346 A 
ATOM     17  C   UNL     1      30.754 -24.013 -13.354  0.00  0.00    +0.171 C 
ATOM     18  C   UNL     1      34.191 -21.388 -18.881  0.00  0.00    +0.171 C 
ENDROOT
BRANCH  11  19
ATOM     19  O   UNL     1      32.847 -24.648 -12.383  0.00  0.00    -0.501 OA
ATOM     20  H   UNL     1      32.921 -25.580 -12.328  0.00  0.00    +0.292 HD
ENDBRANCH  11  19
BRANCH  12  21
ATOM     21  O   UNL     1      32.098 -20.755 -19.852  0.00  0.00    -0.501 OA
ATOM     22  H   UNL     1      31.323 -20.260 -19.670  0.00  0.00    +0.292 HD
ENDBRANCH  12  21
BRANCH  17  23
ATOM     23  O   UNL     1      30.076 -24.521 -12.287  0.00  0.00    -0.503 OA
ATOM     24  H   UNL     1      30.013 -25.448 -12.168  0.00  0.00    +0.292 HD
ENDBRANCH  17  23
BRANCH  18  25
ATOM     25  O   UNL     1      34.868 -20.882 -19.948  0.00  0.00    -0.503 OA
ATOM     26  H   UNL     1      34.913 -19.955 -20.079  0.00  0.00    +0.292 HD
ENDBRANCH  18  25
TORSDOF 4
ENDMDL
MODEL 4
REMARK VINA RESULT:     -10.6      2.234      4.844
REMARK  Name = 5281855
REMARK  4 active torsions:
REMARK  status: ('A' for Active; 'I' for Inactive)
REMARK    1  A    between atoms: C_11  and  O_19
REMARK    2  A    between atoms: C_12  and  O_21
REMARK    3  A    between atoms: C_17  and  O_23
REMARK    4  A    between atoms: C_18  and  O_25
REMARK                            x       y       z     vdW  Elec       q    Type
REMARK                         _______ _______ _______ _____ _____    ______ ____
ROOT
ATOM      1  O   UNL     1      30.746 -21.781 -17.702  0.00  0.00    -0.418 OA
ATOM      2  O   UNL     1      34.250 -23.589 -14.564  0.00  0.00    -0.418 OA
ATOM      3  O   UNL     1      28.765 -22.214 -16.632  0.00  0.00    -0.244 OA
ATOM      4  O   UNL     1      36.230 -23.158 -15.636  0.00  0.00    -0.244 OA
ATOM      5  C   UNL     1      32.858 -22.420 -16.693  0.00  0.00    +0.047 A 
ATOM      6  C   UNL     1      32.138 -22.950 -15.573  0.00  0.00    +0.047 A 
ATOM      7  C   UNL     1      30.745 -22.896 -15.520  0.00  0.00    +0.082 A 
ATOM      8  C   UNL     1      34.250 -22.474 -16.746  0.00  0.00    +0.082 A 
ATOM      9  C   UNL     1      32.157 -21.841 -17.745  0.00  0.00    +0.185 A 
ATOM     10  C   UNL     1      32.838 -23.528 -14.521  0.00  0.00    +0.185 A 
ATOM     11  C   UNL     1      32.811 -21.313 -18.854  0.00  0.00    +0.203 C 
ATOM     12  C   UNL     1      32.185 -24.057 -13.412  0.00  0.00    +0.203 C 
ATOM     13  C   UNL     1      30.069 -23.422 -14.413  0.00  0.00    +0.046 C 
ATOM     14  C   UNL     1      34.927 -21.947 -17.852  0.00  0.00    +0.046 C 
ATOM     15  C   UNL     1      29.987 -22.281 -16.638  0.00  0.00    +0.346 A 
ATOM     16  C   UNL     1      35.008 -23.089 -15.628  0.00  0.00    +0.346 A 
ATOM     17  C   UNL     1      34.204 -21.368 -18.902  0.00  0.00    +0.171 C 
ATOM     18  C   UNL     1      30.792 -24.001 -13.364  0.00  0.00    +0.171 C 
ENDROOT
BRANCH  11  19
ATOM     19  O   UNL     1      32.106 -20.751 -19.872  0.00  0.00    -0.501 OA
ATOM     20  H   UNL     1      32.480 -20.698 -20.729  0.00  0.00    +0.292 HD
ENDBRANCH  11  19
BRANCH  12  21
ATOM     21  O   UNL     1      32.890 -24.618 -12.394  0.00  0.00    -0.501 OA
ATOM     22  H   UNL     1      32.916 -24.201 -11.555  0.00  0.00    +0.292 HD
ENDBRANCH  12  21
BRANCH  17  23
ATOM     23  O   UNL     1      34.877 -20.861 -19.973  0.00  0.00    -0.503 OA
ATOM     24  H   UNL     1      34.405 -20.559 -20.723  0.00  0.00    +0.292 HD
ENDBRANCH  17  23
BRANCH  18  25
ATOM     25  O   UNL     1      30.119 -24.508 -12.293  0.00  0.00    -0.503 OA
ATOM     26  H   UNL     1      29.949 -23.969 -11.547  0.00  0.00    +0.292 HD
ENDBRANCH  18  25
TORSDOF 4
ENDMDL
MODEL 5
REMARK VINA RESULT:     -10.4      1.161      4.870
REMARK  Name = 5281855
REMARK  4 active torsions:
REMARK  status: ('A' for Active; 'I' for Inactive)
REMARK    1  A    between atoms: C_11  and  O_19
REMARK    2  A    between atoms: C_12  and  O_21
REMARK    3  A    between atoms: C_17  and  O_23
REMARK    4  A    between atoms: C_18  and  O_25
REMARK                            x       y       z     vdW  Elec       q    Type
REMARK                         _______ _______ _______ _____ _____    ______ ____
ROOT
ATOM      1  O   UNL     1      33.810 -22.297 -17.050  0.00  0.00    -0.418 OA
ATOM      2  O   UNL     1      32.690 -24.187 -12.515  0.00  0.00    -0.418 OA
ATOM      3  O   UNL     1      31.772 -22.070 -18.075  0.00  0.00    -0.244 OA
ATOM      4  O   UNL     1      34.727 -24.417 -11.490  0.00  0.00    -0.244 OA
ATOM      5  C   UNL     1      33.963 -23.176 -14.793  0.00  0.00    +0.047 A 
ATOM      6  C   UNL     1      32.536 -23.308 -14.771  0.00  0.00    +0.047 A 
ATOM      7  C   UNL     1      31.761 -22.941 -15.871  0.00  0.00    +0.082 A 
ATOM      8  C   UNL     1      34.738 -23.543 -13.694  0.00  0.00    +0.082 A 
ATOM      9  C   UNL     1      34.586 -22.673 -15.929  0.00  0.00    +0.185 A 
ATOM     10  C   UNL     1      31.914 -23.812 -13.635  0.00  0.00    +0.185 A 
ATOM     11  C   UNL     1      35.968 -22.525 -15.999  0.00  0.00    +0.203 C 
ATOM     12  C   UNL     1      30.532 -23.959 -13.565  0.00  0.00    +0.203 C 
ATOM     13  C   UNL     1      30.369 -23.082 -15.820  0.00  0.00    +0.046 C 
ATOM     14  C   UNL     1      36.130 -23.401 -13.744  0.00  0.00    +0.046 C 
ATOM     15  C   UNL     1      32.415 -22.403 -17.088  0.00  0.00    +0.346 A 
ATOM     16  C   UNL     1      34.084 -24.081 -12.476  0.00  0.00    +0.346 A 
ATOM     17  C   UNL     1      36.739 -22.892 -14.897  0.00  0.00    +0.171 C 
ATOM     18  C   UNL     1      29.760 -23.591 -14.667  0.00  0.00    +0.171 C 
ENDROOT
BRANCH  11  19
ATOM     19  O   UNL     1      36.556 -22.030 -17.121  0.00  0.00    -0.501 OA
ATOM     20  H   UNL     1      36.184 -22.205 -17.963  0.00  0.00    +0.292 HD
ENDBRANCH  11  19
BRANCH  12  21
ATOM     21  O   UNL     1      29.943 -24.454 -12.443  0.00  0.00    -0.501 OA
ATOM     22  H   UNL     1      29.009 -24.466 -12.370  0.00  0.00    +0.292 HD
ENDBRANCH  12  21
BRANCH  17  23
ATOM     23  O   UNL     1      38.095 -22.762 -14.931  0.00  0.00    -0.503 OA
ATOM     24  H   UNL     1      38.557 -22.881 -15.736  0.00  0.00    +0.292 HD
ENDBRANCH  17  23
BRANCH  18  25
ATOM     25  O   UNL     1      28.404 -23.722 -14.634  0.00  0.00    -0.503 OA
ATOM     26  H   UNL     1      27.858 -22.968 -14.734  0.00  0.00    +0.292 HD
ENDBRANCH  18  25
TORSDOF 4
ENDMDL
MODEL 6
REMARK VINA RESULT:     -10.3      1.075      4.873
REMARK  Name = 5281855
REMARK  4 active torsions:
REMARK  status: ('A' for Active; 'I' for Inactive)
REMARK    1  A    between atoms: C_11  and  O_19
REMARK    2  A    between atoms: C_12  and  O_21
REMARK    3  A    between atoms: C_17  and  O_23
REMARK    4  A    between atoms: C_18  and  O_25
REMARK                            x       y       z     vdW  Elec       q    Type
REMARK                         _______ _______ _______ _____ _____    ______ ____
ROOT
ATOM      1  O   UNL     1      35.727 -22.694 -16.445  0.00  0.00    -0.418 OA
ATOM      2  O   UNL     1      33.026 -23.967 -12.386  0.00  0.00    -0.418 OA
ATOM      3  O   UNL     1      34.149 -22.122 -18.006  0.00  0.00    -0.244 OA
ATOM      4  O   UNL     1      34.604 -24.541 -10.827  0.00  0.00    -0.244 OA
ATOM      5  C   UNL     1      35.063 -23.415 -14.226  0.00  0.00    +0.047 A 
ATOM      6  C   UNL     1      33.691 -23.245 -14.605  0.00  0.00    +0.047 A 
ATOM      7  C   UNL     1      33.345 -22.806 -15.883  0.00  0.00    +0.082 A 
ATOM      8  C   UNL     1      35.408 -23.854 -12.949  0.00  0.00    +0.082 A 
ATOM      9  C   UNL     1      36.066 -23.139 -15.147  0.00  0.00    +0.185 A 
ATOM     10  C   UNL     1      32.687 -23.521 -13.685  0.00  0.00    +0.185 A 
ATOM     11  C   UNL     1      37.412 -23.289 -14.827  0.00  0.00    +0.203 C 
ATOM     12  C   UNL     1      31.341 -23.371 -14.005  0.00  0.00    +0.203 C 
ATOM     13  C   UNL     1      31.997 -22.649 -16.225  0.00  0.00    +0.046 C 
ATOM     14  C   UNL     1      36.756 -24.010 -12.606  0.00  0.00    +0.046 C 
ATOM     15  C   UNL     1      34.409 -22.508 -16.874  0.00  0.00    +0.346 A 
ATOM     16  C   UNL     1      34.345 -24.152 -11.958  0.00  0.00    +0.346 A 
ATOM     17  C   UNL     1      37.753 -23.727 -13.547  0.00  0.00    +0.171 C 
ATOM     18  C   UNL     1      31.000 -22.932 -15.284  0.00  0.00    +0.171 C 
ENDROOT
BRANCH  11  19
ATOM     19  O   UNL     1      38.378 -23.013 -15.743  0.00  0.00    -0.501 OA
ATOM     20  H   UNL     1      38.716 -23.695 -16.289  0.00  0.00    +0.292 HD
ENDBRANCH  11  19
BRANCH  12  21
ATOM     21  O   UNL     1      30.375 -23.647 -13.088  0.00  0.00    -0.501 OA
ATOM     22  H   UNL     1      30.545 -23.524 -12.175  0.00  0.00    +0.292 HD
ENDBRANCH  12  21
BRANCH  17  23
ATOM     23  O   UNL     1      39.060 -23.886 -13.199  0.00  0.00    -0.503 OA
ATOM     24  H   UNL     1      39.492 -23.232 -12.686  0.00  0.00    +0.292 HD
ENDBRANCH  17  23
BRANCH  18  25
ATOM     25  O   UNL     1      29.693 -22.774 -15.633  0.00  0.00    -0.503 OA
ATOM     26  H   UNL     1      29.200 -22.054 -15.292  0.00  0.00    +0.292 HD
ENDBRANCH  18  25
TORSDOF 4
ENDMDL
MODEL 7
REMARK VINA RESULT:     -10.3      1.076      3.928
REMARK  Name = 5281855
REMARK  4 active torsions:
REMARK  status: ('A' for Active; 'I' for Inactive)
REMARK    1  A    between atoms: C_11  and  O_19
REMARK    2  A    between atoms: C_12  and  O_21
REMARK    3  A    between atoms: C_17  and  O_23
REMARK    4  A    between atoms: C_18  and  O_25
REMARK                            x       y       z     vdW  Elec       q    Type
REMARK                         _______ _______ _______ _____ _____    ______ ____
ROOT
ATOM      1  O   UNL     1      33.044 -23.974 -12.376  0.00  0.00    -0.418 OA
ATOM      2  O   UNL     1      35.760 -22.700 -16.425  0.00  0.00    -0.418 OA
ATOM      3  O   UNL     1      34.617 -24.556 -10.813  0.00  0.00    -0.244 OA
ATOM      4  O   UNL     1      34.187 -22.120 -17.988  0.00  0.00    -0.244 OA
ATOM      5  C   UNL     1      33.717 -23.249 -14.591  0.00  0.00    +0.047 A 
ATOM      6  C   UNL     1      35.087 -23.425 -14.209  0.00  0.00    +0.047 A 
ATOM      7  C   UNL     1      35.428 -23.868 -12.931  0.00  0.00    +0.082 A 
ATOM      8  C   UNL     1      33.376 -22.806 -15.868  0.00  0.00    +0.082 A 
ATOM      9  C   UNL     1      32.710 -23.524 -13.674  0.00  0.00    +0.185 A 
ATOM     10  C   UNL     1      36.094 -23.149 -15.127  0.00  0.00    +0.185 A 
ATOM     11  C   UNL     1      31.365 -23.369 -13.997  0.00  0.00    +0.203 C 
ATOM     12  C   UNL     1      37.438 -23.304 -14.804  0.00  0.00    +0.203 C 
ATOM     13  C   UNL     1      36.775 -24.030 -12.587  0.00  0.00    +0.046 C 
ATOM     14  C   UNL     1      32.029 -22.642 -16.214  0.00  0.00    +0.046 C 
ATOM     15  C   UNL     1      34.361 -24.165 -11.944  0.00  0.00    +0.346 A 
ATOM     16  C   UNL     1      34.443 -22.509 -16.856  0.00  0.00    +0.346 A 
ATOM     17  C   UNL     1      31.029 -22.925 -15.276  0.00  0.00    +0.171 C 
ATOM     18  C   UNL     1      37.775 -23.748 -13.524  0.00  0.00    +0.171 C 
ENDROOT
BRANCH  11  19
ATOM     19  O   UNL     1      30.396 -23.644 -13.083  0.00  0.00    -0.501 OA
ATOM     20  H   UNL     1      30.281 -23.087 -12.339  0.00  0.00    +0.292 HD
ENDBRANCH  11  19
BRANCH  12  21
ATOM     21  O   UNL     1      38.408 -23.029 -15.717  0.00  0.00    -0.501 OA
ATOM     22  H   UNL     1      38.600 -22.141 -15.944  0.00  0.00    +0.292 HD
ENDBRANCH  12  21
BRANCH  17  23
ATOM     23  O   UNL     1      29.723 -22.763 -15.627  0.00  0.00    -0.503 OA
ATOM     24  H   UNL     1      29.066 -23.319 -15.259  0.00  0.00    +0.292 HD
ENDBRANCH  17  23
BRANCH  18  25
ATOM     25  O   UNL     1      39.081 -23.911 -13.173  0.00  0.00    -0.503 OA
ATOM     26  H   UNL     1      39.408 -24.764 -12.966  0.00  0.00    +0.292 HD
ENDBRANCH  18  25
TORSDOF 4
ENDMDL
MODEL 8
REMARK VINA RESULT:     -10.3      1.382      2.510
REMARK  Name = 5281855
REMARK  4 active torsions:
REMARK  status: ('A' for Active; 'I' for Inactive)
REMARK    1  A    between atoms: C_11  and  O_19
REMARK    2  A    between atoms: C_12  and  O_21
REMARK    3  A    between atoms: C_17  and  O_23
REMARK    4  A    between atoms: C_18  and  O_25
REMARK                            x       y       z     vdW  Elec       q    Type
REMARK                         _______ _______ _______ _____ _____    ______ ____
ROOT
ATOM      1  O   UNL     1      36.372 -22.033 -16.808  0.00  0.00    -0.418 OA
ATOM      2  O   UNL     1      31.744 -23.278 -15.249  0.00  0.00    -0.418 OA
ATOM      3  O   UNL     1      37.733 -22.687 -15.084  0.00  0.00    -0.244 OA
ATOM      4  O   UNL     1      30.382 -22.622 -16.972  0.00  0.00    -0.244 OA
ATOM      5  C   UNL     1      33.972 -22.362 -16.677  0.00  0.00    +0.047 A 
ATOM      6  C   UNL     1      34.145 -22.949 -15.380  0.00  0.00    +0.047 A 
ATOM      7  C   UNL     1      35.411 -23.075 -14.810  0.00  0.00    +0.082 A 
ATOM      8  C   UNL     1      32.706 -22.236 -17.247  0.00  0.00    +0.082 A 
ATOM      9  C   UNL     1      35.084 -21.911 -17.377  0.00  0.00    +0.185 A 
ATOM     10  C   UNL     1      33.033 -23.400 -14.680  0.00  0.00    +0.185 A 
ATOM     11  C   UNL     1      34.967 -21.334 -18.638  0.00  0.00    +0.203 C 
ATOM     12  C   UNL     1      33.149 -23.977 -13.419  0.00  0.00    +0.203 C 
ATOM     13  C   UNL     1      35.549 -23.652 -13.542  0.00  0.00    +0.046 C 
ATOM     14  C   UNL     1      32.567 -21.660 -18.516  0.00  0.00    +0.046 C 
ATOM     15  C   UNL     1      36.605 -22.596 -15.549  0.00  0.00    +0.346 A 
ATOM     16  C   UNL     1      31.511 -22.715 -16.508  0.00  0.00    +0.346 A 
ATOM     17  C   UNL     1      33.699 -21.211 -19.206  0.00  0.00    +0.171 C 
ATOM     18  C   UNL     1      34.417 -24.101 -12.852  0.00  0.00    +0.171 C 
ENDROOT
BRANCH  11  19
ATOM     19  O   UNL     1      36.069 -20.899 -19.307  0.00  0.00    -0.501 OA
ATOM     20  H   UNL     1      36.915 -20.964 -18.909  0.00  0.00    +0.292 HD
ENDBRANCH  11  19
BRANCH  12  21
ATOM     21  O   UNL     1      32.047 -24.412 -12.750  0.00  0.00    -0.501 OA
ATOM     22  H   UNL     1      31.834 -24.051 -11.913  0.00  0.00    +0.292 HD
ENDBRANCH  12  21
BRANCH  17  23
ATOM     23  O   UNL     1      33.547 -20.651 -20.438  0.00  0.00    -0.503 OA
ATOM     24  H   UNL     1      33.601 -19.721 -20.541  0.00  0.00    +0.292 HD
ENDBRANCH  17  23
BRANCH  18  25
ATOM     25  O   UNL     1      34.569 -24.661 -11.619  0.00  0.00    -0.503 OA
ATOM     26  H   UNL     1      34.399 -25.573 -11.494  0.00  0.00    +0.292 HD
ENDBRANCH  18  25
TORSDOF 4
ENDMDL
MODEL 9
REMARK VINA RESULT:     -10.0      1.332      5.186
REMARK  Name = 5281855
REMARK  4 active torsions:
REMARK  status: ('A' for Active; 'I' for Inactive)
REMARK    1  A    between atoms: C_11  and  O_19
REMARK    2  A    between atoms: C_12  and  O_21
REMARK    3  A    between atoms: C_17  and  O_23
REMARK    4  A    between atoms: C_18  and  O_25
REMARK                            x       y       z     vdW  Elec       q    Type
REMARK                         _______ _______ _______ _____ _____    ______ ____
ROOT
ATOM      1  O   UNL     1      36.977 -22.367 -14.456  0.00  0.00    -0.418 OA
ATOM      2  O   UNL     1      32.336 -23.005 -16.315  0.00  0.00    -0.418 OA
ATOM      3  O   UNL     1      38.142 -21.417 -16.186  0.00  0.00    -0.244 OA
ATOM      4  O   UNL     1      31.172 -23.958 -14.585  0.00  0.00    -0.244 OA
ATOM      5  C   UNL     1      34.632 -22.935 -14.714  0.00  0.00    +0.047 A 
ATOM      6  C   UNL     1      34.681 -22.438 -16.057  0.00  0.00    +0.047 A 
ATOM      7  C   UNL     1      35.860 -21.914 -16.589  0.00  0.00    +0.082 A 
ATOM      8  C   UNL     1      33.454 -23.458 -14.182  0.00  0.00    +0.082 A 
ATOM      9  C   UNL     1      35.777 -22.895 -13.927  0.00  0.00    +0.185 A 
ATOM     10  C   UNL     1      33.536 -22.477 -16.844  0.00  0.00    +0.185 A 
ATOM     11  C   UNL     1      35.779 -23.366 -12.617  0.00  0.00    +0.203 C 
ATOM     12  C   UNL     1      33.534 -22.007 -18.153  0.00  0.00    +0.203 C 
ATOM     13  C   UNL     1      35.878 -21.436 -17.904  0.00  0.00    +0.046 C 
ATOM     14  C   UNL     1      33.435 -23.935 -12.866  0.00  0.00    +0.046 C 
ATOM     15  C   UNL     1      37.088 -21.867 -15.758  0.00  0.00    +0.346 A 
ATOM     16  C   UNL     1      32.225 -23.505 -15.013  0.00  0.00    +0.346 A 
ATOM     17  C   UNL     1      34.598 -23.887 -12.089  0.00  0.00    +0.171 C 
ATOM     18  C   UNL     1      34.715 -21.484 -18.681  0.00  0.00    +0.171 C 
ENDROOT
BRANCH  11  19
ATOM     19  O   UNL     1      36.911 -23.317 -11.865  0.00  0.00    -0.501 OA
ATOM     20  H   UNL     1      36.861 -23.415 -10.935  0.00  0.00    +0.292 HD
ENDBRANCH  11  19
BRANCH  12  21
ATOM     21  O   UNL     1      32.402 -22.055 -18.906  0.00  0.00    -0.501 OA
ATOM     22  H   UNL     1      32.091 -21.283 -19.337  0.00  0.00    +0.292 HD
ENDBRANCH  12  21
BRANCH  17  23
ATOM     23  O   UNL     1      34.564 -24.357 -10.811  0.00  0.00    -0.503 OA
ATOM     24  H   UNL     1      34.087 -25.138 -10.611  0.00  0.00    +0.292 HD
ENDBRANCH  17  23
BRANCH  18  25
ATOM     25  O   UNL     1      34.749 -21.015 -19.960  0.00  0.00    -0.503 OA
ATOM     26  H   UNL     1      34.010 -21.133 -20.523  0.00  0.00    +0.292 HD
ENDBRANCH  18  25
TORSDOF 4
ENDMDL
