MODEL 1
REMARK VINA RESULT:     -12.0      0.000      0.000
REMARK  Name = 24779674
REMARK  2 active torsions:
REMARK  status: ('A' for Active; 'I' for Inactive)
REMARK    1  A    between atoms: N_2  and  C_14
REMARK    2  A    between atoms: N_5  and  C_20
REMARK                            x       y       z     vdW  Elec       q    Type
REMARK                         _______ _______ _______ _____ _____    ______ ____
ROOT
ATOM      1  N   UNL     1      34.504 -22.887 -14.880  0.00  0.00    -0.124 N 
ATOM      2  N   UNL     1      32.284 -23.517 -14.377  0.00  0.00    -0.274 N 
ATOM      3  N   UNL     1      32.915 -22.722 -16.518  0.00  0.00    -0.295 NA
ATOM      4  N   UNL     1      35.170 -22.093 -16.992  0.00  0.00    -0.315 NA
ATOM      5  N   UNL     1      33.555 -21.927 -18.649  0.00  0.00    -0.238 N 
ATOM      6  N   UNL     1      34.935 -23.178 -13.640  0.00  0.00    -0.171 NA
ATOM      7  C   UNL     1      33.189 -23.042 -15.288  0.00  0.00    +0.279 C 
ATOM      8  C   UNL     1      35.476 -22.421 -15.716  0.00  0.00    +0.206 C 
ATOM      9  C   UNL     1      33.918 -22.248 -17.362  0.00  0.00    +0.207 C 
ATOM     10  C   UNL     1      36.630 -22.407 -14.967  0.00  0.00    +0.127 C 
ATOM     11  C   UNL     1      36.237 -22.882 -13.699  0.00  0.00    +0.101 C 
ATOM     12  H   UNL     1      32.631 -23.720 -13.479  0.00  0.00    +0.156 HD
ATOM     13  H   UNL     1      32.807 -22.438 -19.037  0.00  0.00    +0.166 HD
ENDROOT
BRANCH   2  14
ATOM     14  C   UNL     1      30.923 -23.744 -14.587  0.00  0.00    +0.051 C 
ATOM     15  C   UNL     1      30.164 -22.819 -15.303  0.00  0.00    +0.015 C 
ATOM     16  C   UNL     1      30.323 -24.898 -14.083  0.00  0.00    +0.015 C 
ATOM     17  C   UNL     1      28.804 -23.045 -15.513  0.00  0.00    +0.001 C 
ATOM     18  C   UNL     1      28.963 -25.125 -14.292  0.00  0.00    +0.001 C 
ATOM     19  C   UNL     1      28.203 -24.199 -15.008  0.00  0.00    +0.000 C 
ENDBRANCH   2  14
BRANCH   5  20
ATOM     20  C   UNL     1      34.134 -20.956 -19.461  0.00  0.00    +0.058 C 
ATOM     21  C   UNL     1      35.520 -20.807 -19.488  0.00  0.00    +0.015 C 
ATOM     22  C   UNL     1      33.328 -20.132 -20.247  0.00  0.00    +0.015 C 
ATOM     23  C   UNL     1      36.101 -19.833 -20.301  0.00  0.00    +0.001 C 
ATOM     24  C   UNL     1      33.909 -19.159 -21.059  0.00  0.00    +0.001 C 
ATOM     25  C   UNL     1      35.296 -19.009 -21.086  0.00  0.00    +0.000 C 
ENDBRANCH   5  20
TORSDOF 2
ENDMDL
MODEL 2
REMARK VINA RESULT:     -11.9      1.584      6.716
REMARK  Name = 24779674
REMARK  2 active torsions:
REMARK  status: ('A' for Active; 'I' for Inactive)
REMARK    1  A    between atoms: N_2  and  C_14
REMARK    2  A    between atoms: N_5  and  C_20
REMARK                            x       y       z     vdW  Elec       q    Type
REMARK                         _______ _______ _______ _____ _____    ______ ____
ROOT
ATOM      1  N   UNL     1      31.563 -23.160 -15.870  0.00  0.00    -0.124 N 
ATOM      2  N   UNL     1      32.086 -21.930 -17.818  0.00  0.00    -0.274 N 
ATOM      3  N   UNL     1      33.763 -22.840 -16.413  0.00  0.00    -0.295 NA
ATOM      4  N   UNL     1      33.198 -24.079 -14.450  0.00  0.00    -0.315 NA
ATOM      5  N   UNL     1      35.427 -23.751 -15.005  0.00  0.00    -0.238 N 
ATOM      6  N   UNL     1      30.239 -23.024 -16.062  0.00  0.00    -0.171 NA
ATOM      7  C   UNL     1      32.518 -22.630 -16.722  0.00  0.00    +0.279 C 
ATOM      8  C   UNL     1      31.897 -23.871 -14.754  0.00  0.00    +0.206 C 
ATOM      9  C   UNL     1      34.090 -23.569 -15.270  0.00  0.00    +0.207 C 
ATOM     10  C   UNL     1      30.701 -24.228 -14.174  0.00  0.00    +0.127 C 
ATOM     11  C   UNL     1      29.717 -23.680 -15.021  0.00  0.00    +0.101 C 
ATOM     12  H   UNL     1      31.112 -21.849 -17.930  0.00  0.00    +0.156 HD
ATOM     13  H   UNL     1      36.031 -23.787 -15.783  0.00  0.00    +0.166 HD
ENDROOT
BRANCH   2  14
ATOM     14  C   UNL     1      32.879 -21.323 -18.791  0.00  0.00    +0.051 C 
ATOM     15  C   UNL     1      32.319 -20.392 -19.667  0.00  0.00    +0.015 C 
ATOM     16  C   UNL     1      34.233 -21.646 -18.889  0.00  0.00    +0.015 C 
ATOM     17  C   UNL     1      33.112 -19.785 -20.641  0.00  0.00    +0.001 C 
ATOM     18  C   UNL     1      35.026 -21.039 -19.863  0.00  0.00    +0.001 C 
ATOM     19  C   UNL     1      34.466 -20.108 -20.738  0.00  0.00    +0.000 C 
ENDBRANCH   2  14
BRANCH   5  20
ATOM     20  C   UNL     1      36.016 -23.891 -13.751  0.00  0.00    +0.058 C 
ATOM     21  C   UNL     1      36.487 -25.137 -13.338  0.00  0.00    +0.015 C 
ATOM     22  C   UNL     1      36.133 -22.785 -12.909  0.00  0.00    +0.015 C 
ATOM     23  C   UNL     1      37.077 -25.278 -12.081  0.00  0.00    +0.001 C 
ATOM     24  C   UNL     1      36.722 -22.927 -11.653  0.00  0.00    +0.001 C 
ATOM     25  C   UNL     1      37.194 -24.173 -11.239  0.00  0.00    +0.000 C 
ENDBRANCH   5  20
TORSDOF 2
ENDMDL
MODEL 3
REMARK VINA RESULT:     -11.3      1.460      6.523
REMARK  Name = 24779674
REMARK  2 active torsions:
REMARK  status: ('A' for Active; 'I' for Inactive)
REMARK    1  A    between atoms: N_2  and  C_14
REMARK    2  A    between atoms: N_5  and  C_20
REMARK                            x       y       z     vdW  Elec       q    Type
REMARK                         _______ _______ _______ _____ _____    ______ ____
ROOT
ATOM      1  N   UNL     1      34.811 -22.124 -17.302  0.00  0.00    -0.124 N 
ATOM      2  N   UNL     1      36.362 -22.539 -15.570  0.00  0.00    -0.274 N 
ATOM      3  N   UNL     1      34.079 -23.146 -15.389  0.00  0.00    -0.295 NA
ATOM      4  N   UNL     1      32.537 -22.710 -17.161  0.00  0.00    -0.315 NA
ATOM      5  N   UNL     1      31.800 -23.746 -15.220  0.00  0.00    -0.238 N 
ATOM      6  N   UNL     1      35.743 -21.558 -18.089  0.00  0.00    -0.171 NA
ATOM      7  C   UNL     1      35.078 -22.626 -16.039  0.00  0.00    +0.279 C 
ATOM      8  C   UNL     1      33.563 -22.165 -17.853  0.00  0.00    +0.206 C 
ATOM      9  C   UNL     1      32.810 -23.182 -15.965  0.00  0.00    +0.207 C 
ATOM     10  C   UNL     1      33.689 -21.584 -19.093  0.00  0.00    +0.127 C 
ATOM     11  C   UNL     1      35.050 -21.230 -19.184  0.00  0.00    +0.101 C 
ATOM     12  H   UNL     1      37.020 -22.120 -16.170  0.00  0.00    +0.156 HD
ATOM     13  H   UNL     1      32.061 -24.460 -14.593  0.00  0.00    +0.166 HD
ENDROOT
BRANCH   2  14
ATOM     14  C   UNL     1      36.836 -22.983 -14.335  0.00  0.00    +0.051 C 
ATOM     15  C   UNL     1      36.434 -22.342 -13.163  0.00  0.00    +0.015 C 
ATOM     16  C   UNL     1      37.711 -24.067 -14.272  0.00  0.00    +0.015 C 
ATOM     17  C   UNL     1      36.908 -22.785 -11.928  0.00  0.00    +0.001 C 
ATOM     18  C   UNL     1      38.184 -24.510 -13.038  0.00  0.00    +0.001 C 
ATOM     19  C   UNL     1      37.783 -23.869 -11.865  0.00  0.00    +0.000 C 
ENDBRANCH   2  14
BRANCH   5  20
ATOM     20  C   UNL     1      30.449 -23.414 -15.261  0.00  0.00    +0.058 C 
ATOM     21  C   UNL     1      29.526 -24.315 -15.791  0.00  0.00    +0.015 C 
ATOM     22  C   UNL     1      30.020 -22.180 -14.773  0.00  0.00    +0.015 C 
ATOM     23  C   UNL     1      28.171 -23.982 -15.833  0.00  0.00    +0.001 C 
ATOM     24  C   UNL     1      28.666 -21.847 -14.815  0.00  0.00    +0.001 C 
ATOM     25  C   UNL     1      27.742 -22.748 -15.346  0.00  0.00    +0.000 C 
ENDBRANCH   5  20
TORSDOF 2
ENDMDL
MODEL 4
REMARK VINA RESULT:     -11.0     11.055     15.215
REMARK  Name = 24779674
REMARK  2 active torsions:
REMARK  status: ('A' for Active; 'I' for Inactive)
REMARK    1  A    between atoms: N_2  and  C_14
REMARK    2  A    between atoms: N_5  and  C_20
REMARK                            x       y       z     vdW  Elec       q    Type
REMARK                         _______ _______ _______ _____ _____    ______ ____
ROOT
ATOM      1  N   UNL     1      31.704  -9.046 -21.226  0.00  0.00    -0.124 N 
ATOM      2  N   UNL     1      32.166  -7.335 -22.787  0.00  0.00    -0.274 N 
ATOM      3  N   UNL     1      32.372  -9.630 -23.336  0.00  0.00    -0.295 NA
ATOM      4  N   UNL     1      31.897 -11.336 -21.732  0.00  0.00    -0.315 NA
ATOM      5  N   UNL     1      32.576 -11.922 -23.873  0.00  0.00    -0.238 N 
ATOM      6  N   UNL     1      31.388  -8.168 -20.259  0.00  0.00    -0.171 NA
ATOM      7  C   UNL     1      32.097  -8.672 -22.501  0.00  0.00    +0.279 C 
ATOM      8  C   UNL     1      31.606 -10.354 -20.849  0.00  0.00    +0.206 C 
ATOM      9  C   UNL     1      32.267 -10.962 -22.937  0.00  0.00    +0.207 C 
ATOM     10  C   UNL     1      31.194 -10.328 -19.537  0.00  0.00    +0.127 C 
ATOM     11  C   UNL     1      31.076  -8.958 -19.228  0.00  0.00    +0.101 C 
ATOM     12  H   UNL     1      31.928  -6.718 -22.058  0.00  0.00    +0.156 HD
ATOM     13  H   UNL     1      32.404 -11.691 -24.815  0.00  0.00    +0.166 HD
ENDROOT
BRANCH   2  14
ATOM     14  C   UNL     1      32.535  -6.754 -24.001  0.00  0.00    +0.051 C 
ATOM     15  C   UNL     1      33.872  -6.438 -24.245  0.00  0.00    +0.015 C 
ATOM     16  C   UNL     1      31.568  -6.491 -24.971  0.00  0.00    +0.015 C 
ATOM     17  C   UNL     1      34.241  -5.858 -25.458  0.00  0.00    +0.001 C 
ATOM     18  C   UNL     1      31.938  -5.910 -26.184  0.00  0.00    +0.001 C 
ATOM     19  C   UNL     1      33.275  -5.594 -26.428  0.00  0.00    +0.000 C 
ENDBRANCH   2  14
BRANCH   5  20
ATOM     20  C   UNL     1      33.103 -13.186 -23.626  0.00  0.00    +0.058 C 
ATOM     21  C   UNL     1      33.665 -13.476 -22.382  0.00  0.00    +0.015 C 
ATOM     22  C   UNL     1      33.069 -14.163 -24.621  0.00  0.00    +0.015 C 
ATOM     23  C   UNL     1      34.194 -14.744 -22.135  0.00  0.00    +0.001 C 
ATOM     24  C   UNL     1      33.598 -15.429 -24.374  0.00  0.00    +0.001 C 
ATOM     25  C   UNL     1      34.161 -15.719 -23.130  0.00  0.00    +0.000 C 
ENDBRANCH   5  20
TORSDOF 2
ENDMDL
MODEL 5
REMARK VINA RESULT:     -10.9      1.649      5.003
REMARK  Name = 24779674
REMARK  2 active torsions:
REMARK  status: ('A' for Active; 'I' for Inactive)
REMARK    1  A    between atoms: N_2  and  C_14
REMARK    2  A    between atoms: N_5  and  C_20
REMARK                            x       y       z     vdW  Elec       q    Type
REMARK                         _______ _______ _______ _____ _____    ______ ____
ROOT
ATOM      1  N   UNL     1      33.318 -21.842 -17.951  0.00  0.00    -0.124 N 
ATOM      2  N   UNL     1      31.142 -22.337 -17.178  0.00  0.00    -0.274 N 
ATOM      3  N   UNL     1      33.080 -22.931 -15.951  0.00  0.00    -0.295 NA
ATOM      4  N   UNL     1      35.267 -22.414 -16.763  0.00  0.00    -0.315 NA
ATOM      5  N   UNL     1      35.020 -23.519 -14.737  0.00  0.00    -0.238 N 
ATOM      6  N   UNL     1      32.857 -21.254 -19.068  0.00  0.00    -0.171 NA
ATOM      7  C   UNL     1      32.496 -22.394 -16.982  0.00  0.00    +0.279 C 
ATOM      8  C   UNL     1      34.679 -21.852 -17.843  0.00  0.00    +0.206 C 
ATOM      9  C   UNL     1      34.471 -22.933 -15.854  0.00  0.00    +0.207 C 
ATOM     10  C   UNL     1      35.142 -21.222 -18.975  0.00  0.00    +0.127 C 
ATOM     11  C   UNL     1      33.978 -20.876 -19.691  0.00  0.00    +0.101 C 
ATOM     12  H   UNL     1      30.837 -21.900 -18.005  0.00  0.00    +0.156 HD
ATOM     13  H   UNL     1      34.484 -23.483 -13.911  0.00  0.00    +0.166 HD
ENDROOT
BRANCH   2  14
ATOM     14  C   UNL     1      30.150 -22.829 -16.329  0.00  0.00    +0.051 C 
ATOM     15  C   UNL     1      28.859 -22.303 -16.386  0.00  0.00    +0.015 C 
ATOM     16  C   UNL     1      30.448 -23.848 -15.424  0.00  0.00    +0.015 C 
ATOM     17  C   UNL     1      27.867 -22.795 -15.538  0.00  0.00    +0.001 C 
ATOM     18  C   UNL     1      29.457 -24.340 -14.576  0.00  0.00    +0.001 C 
ATOM     19  C   UNL     1      28.166 -23.814 -14.633  0.00  0.00    +0.000 C 
ENDBRANCH   2  14
BRANCH   5  20
ATOM     20  C   UNL     1      36.254 -24.156 -14.652  0.00  0.00    +0.058 C 
ATOM     21  C   UNL     1      36.315 -25.540 -14.496  0.00  0.00    +0.015 C 
ATOM     22  C   UNL     1      37.430 -23.409 -14.725  0.00  0.00    +0.015 C 
ATOM     23  C   UNL     1      37.553 -26.179 -14.410  0.00  0.00    +0.001 C 
ATOM     24  C   UNL     1      38.667 -24.048 -14.639  0.00  0.00    +0.001 C 
ATOM     25  C   UNL     1      38.728 -25.433 -14.482  0.00  0.00    +0.000 C 
ENDBRANCH   5  20
TORSDOF 2
ENDMDL
MODEL 6
REMARK VINA RESULT:     -10.4     12.701     16.865
REMARK  Name = 24779674
REMARK  2 active torsions:
REMARK  status: ('A' for Active; 'I' for Inactive)
REMARK    1  A    between atoms: N_2  and  C_14
REMARK    2  A    between atoms: N_5  and  C_20
REMARK                            x       y       z     vdW  Elec       q    Type
REMARK                         _______ _______ _______ _____ _____    ______ ____
ROOT
ATOM      1  N   UNL     1      32.075  -6.536 -21.694  0.00  0.00    -0.124 N 
ATOM      2  N   UNL     1      32.731  -5.600 -23.761  0.00  0.00    -0.274 N 
ATOM      3  N   UNL     1      32.433  -7.933 -23.471  0.00  0.00    -0.295 NA
ATOM      4  N   UNL     1      31.770  -8.846 -21.366  0.00  0.00    -0.315 NA
ATOM      5  N   UNL     1      32.135 -10.257 -23.171  0.00  0.00    -0.238 N 
ATOM      6  N   UNL     1      32.021  -5.334 -21.093  0.00  0.00    -0.171 NA
ATOM      7  C   UNL     1      32.424  -6.712 -23.023  0.00  0.00    +0.279 C 
ATOM      8  C   UNL     1      31.754  -7.584 -20.880  0.00  0.00    +0.206 C 
ATOM      9  C   UNL     1      32.102  -8.993 -22.629  0.00  0.00    +0.207 C 
ATOM     10  C   UNL     1      31.468  -7.024 -19.656  0.00  0.00    +0.127 C 
ATOM     11  C   UNL     1      31.649  -5.640 -19.847  0.00  0.00    +0.101 C 
ATOM     12  H   UNL     1      32.682  -4.736 -23.292  0.00  0.00    +0.156 HD
ATOM     13  H   UNL     1      31.933 -10.330 -24.133  0.00  0.00    +0.166 HD
ENDROOT
BRANCH   2  14
ATOM     14  C   UNL     1      33.103  -5.561 -25.105  0.00  0.00    +0.051 C 
ATOM     15  C   UNL     1      34.423  -5.276 -25.456  0.00  0.00    +0.015 C 
ATOM     16  C   UNL     1      32.155  -5.809 -26.098  0.00  0.00    +0.015 C 
ATOM     17  C   UNL     1      34.795  -5.237 -26.799  0.00  0.00    +0.001 C 
ATOM     18  C   UNL     1      32.528  -5.770 -27.442  0.00  0.00    +0.001 C 
ATOM     19  C   UNL     1      33.848  -5.485 -27.792  0.00  0.00    +0.000 C 
ENDBRANCH   2  14
BRANCH   5  20
ATOM     20  C   UNL     1      32.422 -11.443 -22.502  0.00  0.00    +0.058 C 
ATOM     21  C   UNL     1      33.458 -12.263 -22.949  0.00  0.00    +0.015 C 
ATOM     22  C   UNL     1      31.673 -11.811 -21.384  0.00  0.00    +0.015 C 
ATOM     23  C   UNL     1      33.745 -13.452 -22.277  0.00  0.00    +0.001 C 
ATOM     24  C   UNL     1      31.960 -13.000 -20.714  0.00  0.00    +0.001 C 
ATOM     25  C   UNL     1      32.997 -13.820 -21.160  0.00  0.00    +0.000 C 
ENDBRANCH   5  20
TORSDOF 2
ENDMDL
MODEL 7
REMARK VINA RESULT:     -10.1      1.093      6.652
REMARK  Name = 24779674
REMARK  2 active torsions:
REMARK  status: ('A' for Active; 'I' for Inactive)
REMARK    1  A    between atoms: N_2  and  C_14
REMARK    2  A    between atoms: N_5  and  C_20
REMARK                            x       y       z     vdW  Elec       q    Type
REMARK                         _______ _______ _______ _____ _____    ______ ____
ROOT
ATOM      1  N   UNL     1      35.486 -22.917 -15.757  0.00  0.00    -0.124 N 
ATOM      2  N   UNL     1      35.566 -21.703 -17.782  0.00  0.00    -0.274 N 
ATOM      3  N   UNL     1      33.530 -22.123 -16.645  0.00  0.00    -0.295 NA
ATOM      4  N   UNL     1      33.486 -23.356 -14.599  0.00  0.00    -0.315 NA
ATOM      5  N   UNL     1      31.506 -22.550 -15.503  0.00  0.00    -0.238 N 
ATOM      6  N   UNL     1      36.817 -23.101 -15.741  0.00  0.00    -0.171 NA
ATOM      7  C   UNL     1      34.822 -22.225 -16.758  0.00  0.00    +0.279 C 
ATOM      8  C   UNL     1      34.829 -23.472 -14.698  0.00  0.00    +0.206 C 
ATOM      9  C   UNL     1      32.873 -22.695 -15.557  0.00  0.00    +0.207 C 
ATOM     10  C   UNL     1      35.805 -24.063 -13.930  0.00  0.00    +0.127 C 
ATOM     11  C   UNL     1      37.007 -23.803 -14.619  0.00  0.00    +0.101 C 
ATOM     12  H   UNL     1      36.537 -21.855 -17.740  0.00  0.00    +0.156 HD
ATOM     13  H   UNL     1      31.133 -21.735 -15.912  0.00  0.00    +0.166 HD
ENDROOT
BRANCH   2  14
ATOM     14  C   UNL     1      35.095 -20.977 -18.877  0.00  0.00    +0.051 C 
ATOM     15  C   UNL     1      33.740 -21.019 -19.210  0.00  0.00    +0.015 C 
ATOM     16  C   UNL     1      35.976 -20.209 -19.637  0.00  0.00    +0.015 C 
ATOM     17  C   UNL     1      33.268 -20.294 -20.304  0.00  0.00    +0.001 C 
ATOM     18  C   UNL     1      35.504 -19.485 -20.731  0.00  0.00    +0.001 C 
ATOM     19  C   UNL     1      34.150 -19.527 -21.065  0.00  0.00    +0.000 C 
ENDBRANCH   2  14
BRANCH   5  20
ATOM     20  C   UNL     1      30.596 -23.434 -14.931  0.00  0.00    +0.058 C 
ATOM     21  C   UNL     1      29.512 -23.897 -15.675  0.00  0.00    +0.015 C 
ATOM     22  C   UNL     1      30.770 -23.856 -13.613  0.00  0.00    +0.015 C 
ATOM     23  C   UNL     1      28.599 -24.783 -15.101  0.00  0.00    +0.001 C 
ATOM     24  C   UNL     1      29.858 -24.742 -13.039  0.00  0.00    +0.001 C 
ATOM     25  C   UNL     1      28.773 -25.205 -13.783  0.00  0.00    +0.000 C 
ENDBRANCH   5  20
TORSDOF 2
ENDMDL
MODEL 8
REMARK VINA RESULT:      -9.9      1.929      5.076
REMARK  Name = 24779674
REMARK  2 active torsions:
REMARK  status: ('A' for Active; 'I' for Inactive)
REMARK    1  A    between atoms: N_2  and  C_14
REMARK    2  A    between atoms: N_5  and  C_20
REMARK                            x       y       z     vdW  Elec       q    Type
REMARK                         _______ _______ _______ _____ _____    ______ ____
ROOT
ATOM      1  N   UNL     1      33.090 -23.943 -14.538  0.00  0.00    -0.124 N 
ATOM      2  N   UNL     1      35.113 -24.929 -13.820  0.00  0.00    -0.274 N 
ATOM      3  N   UNL     1      35.049 -23.278 -15.519  0.00  0.00    -0.295 NA
ATOM      4  N   UNL     1      32.984 -22.302 -16.220  0.00  0.00    -0.315 NA
ATOM      5  N   UNL     1      34.972 -21.631 -17.212  0.00  0.00    -0.238 N 
ATOM      6  N   UNL     1      32.357 -24.669 -13.676  0.00  0.00    -0.171 NA
ATOM      7  C   UNL     1      34.469 -24.042 -14.641  0.00  0.00    +0.279 C 
ATOM      8  C   UNL     1      32.362 -23.089 -15.313  0.00  0.00    +0.206 C 
ATOM      9  C   UNL     1      34.292 -22.409 -16.303  0.00  0.00    +0.207 C 
ATOM     10  C   UNL     1      31.053 -23.269 -14.929  0.00  0.00    +0.127 C 
ATOM     11  C   UNL     1      31.111 -24.252 -13.920  0.00  0.00    +0.101 C 
ATOM     12  H   UNL     1      34.549 -25.445 -13.202  0.00  0.00    +0.156 HD
ATOM     13  H   UNL     1      35.894 -21.379 -16.972  0.00  0.00    +0.166 HD
ENDROOT
BRANCH   2  14
ATOM     14  C   UNL     1      36.486 -25.177 -13.767  0.00  0.00    +0.051 C 
ATOM     15  C   UNL     1      37.302 -24.409 -12.936  0.00  0.00    +0.015 C 
ATOM     16  C   UNL     1      37.042 -26.194 -14.544  0.00  0.00    +0.015 C 
ATOM     17  C   UNL     1      38.673 -24.656 -12.883  0.00  0.00    +0.001 C 
ATOM     18  C   UNL     1      38.413 -26.441 -14.490  0.00  0.00    +0.001 C 
ATOM     19  C   UNL     1      39.229 -25.673 -13.659  0.00  0.00    +0.000 C 
ENDBRANCH   2  14
BRANCH   5  20
ATOM     20  C   UNL     1      34.493 -21.164 -18.431  0.00  0.00    +0.058 C 
ATOM     21  C   UNL     1      35.372 -20.604 -19.358  0.00  0.00    +0.015 C 
ATOM     22  C   UNL     1      33.132 -21.255 -18.727  0.00  0.00    +0.015 C 
ATOM     23  C   UNL     1      34.891 -20.135 -20.581  0.00  0.00    +0.001 C 
ATOM     24  C   UNL     1      32.652 -20.786 -19.949  0.00  0.00    +0.001 C 
ATOM     25  C   UNL     1      33.532 -20.226 -20.876  0.00  0.00    +0.000 C 
ENDBRANCH   5  20
TORSDOF 2
ENDMDL
MODEL 9
REMARK VINA RESULT:      -9.5      8.283     11.983
REMARK  Name = 24779674
REMARK  2 active torsions:
REMARK  status: ('A' for Active; 'I' for Inactive)
REMARK    1  A    between atoms: N_2  and  C_14
REMARK    2  A    between atoms: N_5  and  C_20
REMARK                            x       y       z     vdW  Elec       q    Type
REMARK                         _______ _______ _______ _____ _____    ______ ____
ROOT
ATOM      1  N   UNL     1      33.058 -13.878 -24.931  0.00  0.00    -0.124 N 
ATOM      2  N   UNL     1      33.943 -15.877 -24.036  0.00  0.00    -0.274 N 
ATOM      3  N   UNL     1      32.821 -14.282 -22.690  0.00  0.00    -0.295 NA
ATOM      4  N   UNL     1      31.939 -12.270 -23.629  0.00  0.00    -0.315 NA
ATOM      5  N   UNL     1      31.701 -12.684 -21.358  0.00  0.00    -0.238 N 
ATOM      6  N   UNL     1      33.469 -14.178 -26.175  0.00  0.00    -0.171 NA
ATOM      7  C   UNL     1      33.274 -14.699 -23.836  0.00  0.00    +0.279 C 
ATOM      8  C   UNL     1      32.403 -12.686 -24.829  0.00  0.00    +0.206 C 
ATOM      9  C   UNL     1      32.152 -13.062 -22.601  0.00  0.00    +0.207 C 
ATOM     10  C   UNL     1      32.382 -12.167 -26.103  0.00  0.00    +0.127 C 
ATOM     11  C   UNL     1      33.052 -13.128 -26.889  0.00  0.00    +0.101 C 
ATOM     12  H   UNL     1      34.230 -16.067 -24.958  0.00  0.00    +0.156 HD
ATOM     13  H   UNL     1      31.455 -13.410 -20.739  0.00  0.00    +0.166 HD
ENDROOT
BRANCH   2  14
ATOM     14  C   UNL     1      34.258 -16.837 -23.074  0.00  0.00    +0.051 C 
ATOM     15  C   UNL     1      33.959 -18.180 -23.304  0.00  0.00    +0.015 C 
ATOM     16  C   UNL     1      34.873 -16.454 -21.882  0.00  0.00    +0.015 C 
ATOM     17  C   UNL     1      34.274 -19.140 -22.342  0.00  0.00    +0.001 C 
ATOM     18  C   UNL     1      35.188 -17.413 -20.920  0.00  0.00    +0.001 C 
ATOM     19  C   UNL     1      34.889 -18.757 -21.150  0.00  0.00    +0.000 C 
ENDBRANCH   2  14
BRANCH   5  20
ATOM     20  C   UNL     1      31.556 -11.384 -20.885  0.00  0.00    +0.058 C 
ATOM     21  C   UNL     1      31.682 -11.120 -19.521  0.00  0.00    +0.015 C 
ATOM     22  C   UNL     1      31.284 -10.345 -21.775  0.00  0.00    +0.015 C 
ATOM     23  C   UNL     1      31.536  -9.815 -19.047  0.00  0.00    +0.001 C 
ATOM     24  C   UNL     1      31.137  -9.042 -21.300  0.00  0.00    +0.001 C 
ATOM     25  C   UNL     1      31.263  -8.777 -19.936  0.00  0.00    +0.000 C 
ENDBRANCH   5  20
TORSDOF 2
ENDMDL
