MODEL 1
REMARK VINA RESULT:     -14.8      0.000      0.000
REMARK  Name = 24882195
REMARK  2 active torsions:
REMARK  status: ('A' for Active; 'I' for Inactive)
REMARK    1  A    between atoms: C_5  and  N_15
REMARK    2  A    between atoms: N_15  and  C_21
REMARK                            x       y       z     vdW  Elec       q    Type
REMARK                         _______ _______ _______ _____ _____    ______ ____
ROOT
ATOM      1  C   UNL     1      34.193 -19.477 -20.815  0.00  0.00    +0.001 C 
ATOM      2  C   UNL     1      35.510 -19.599 -20.321  0.00  0.00    +0.000 C 
ATOM      3  C   UNL     1      33.407 -21.045 -19.104  0.00  0.00    +0.000 C 
ATOM      4  C   UNL     1      34.724 -21.168 -18.610  0.00  0.00    +0.000 C 
ATOM      5  C   UNL     1      34.983 -17.921 -22.511  0.00  0.00    +0.049 C 
ATOM      6  C   UNL     1      33.159 -20.203 -20.200  0.00  0.00    +0.000 C 
ATOM      7  C   UNL     1      33.946 -18.635 -21.911  0.00  0.00    +0.015 C 
ATOM      8  C   UNL     1      35.759 -20.443 -19.225  0.00  0.00    +0.000 C 
ATOM      9  C   UNL     1      36.544 -18.874 -20.936  0.00  0.00    +0.001 C 
ATOM     10  C   UNL     1      36.282 -18.040 -22.024  0.00  0.00    +0.015 C 
ATOM     11  C   UNL     1      32.373 -21.771 -18.489  0.00  0.00    +0.000 C 
ATOM     12  C   UNL     1      34.972 -22.011 -17.514  0.00  0.00    +0.000 C 
ATOM     13  C   UNL     1      32.636 -22.604 -17.402  0.00  0.00    +0.000 C 
ATOM     14  C   UNL     1      33.933 -22.724 -16.915  0.00  0.00    +0.000 C 
ENDROOT
BRANCH   5  15
ATOM     15  N   UNL     1      34.717 -17.078 -23.610  0.00  0.00    -0.299 N 
ATOM     16  H   UNL     1      34.990 -17.425 -24.490  0.00  0.00    +0.153 HD
BRANCH  15  21
ATOM     17  N   UNL     1      33.991 -15.205 -22.385  0.00  0.00    -0.106 N 
ATOM     18  N   UNL     1      32.952 -13.281 -23.386  0.00  0.00    -0.340 NA
ATOM     19  N   UNL     1      34.353 -15.627 -21.145  0.00  0.00    -0.139 NA
ATOM     20  N   UNL     1      33.395 -13.566 -21.018  0.00  0.00    -0.145 NA
ATOM     21  C   UNL     1      34.140 -15.857 -23.616  0.00  0.00    +0.138 C 
ATOM     22  C   UNL     1      33.702 -15.236 -24.722  0.00  0.00    +0.061 C 
ATOM     23  C   UNL     1      33.407 -13.939 -22.282  0.00  0.00    +0.174 C 
ATOM     24  C   UNL     1      33.091 -13.887 -24.528  0.00  0.00    +0.125 C 
ATOM     25  C   UNL     1      32.594 -13.178 -25.762  0.00  0.00    +0.068 C 
ATOM     26  C   UNL     1      33.973 -14.612 -20.377  0.00  0.00    +0.230 C 
ENDBRANCH  15  21
ENDBRANCH   5  15
TORSDOF 2
ENDMDL
MODEL 2
REMARK VINA RESULT:     -14.6      5.794     10.111
REMARK  Name = 24882195
REMARK  2 active torsions:
REMARK  status: ('A' for Active; 'I' for Inactive)
REMARK    1  A    between atoms: C_5  and  N_15
REMARK    2  A    between atoms: N_15  and  C_21
REMARK                            x       y       z     vdW  Elec       q    Type
REMARK                         _______ _______ _______ _____ _____    ______ ____
ROOT
ATOM      1  C   UNL     1      34.546 -21.531 -18.138  0.00  0.00    +0.001 C 
ATOM      2  C   UNL     1      33.237 -21.385 -18.647  0.00  0.00    +0.000 C 
ATOM      3  C   UNL     1      35.397 -20.065 -19.907  0.00  0.00    +0.000 C 
ATOM      4  C   UNL     1      34.088 -19.918 -20.416  0.00  0.00    +0.000 C 
ATOM      5  C   UNL     1      33.691 -22.987 -16.385  0.00  0.00    +0.049 C 
ATOM      6  C   UNL     1      35.609 -20.870 -18.776  0.00  0.00    +0.000 C 
ATOM      7  C   UNL     1      34.757 -22.336 -17.007  0.00  0.00    +0.015 C 
ATOM      8  C   UNL     1      33.024 -20.580 -19.779  0.00  0.00    +0.000 C 
ATOM      9  C   UNL     1      32.174 -22.046 -18.009  0.00  0.00    +0.001 C 
ATOM     10  C   UNL     1      32.401 -22.842 -16.885  0.00  0.00    +0.015 C 
ATOM     11  C   UNL     1      36.459 -19.404 -20.546  0.00  0.00    +0.000 C 
ATOM     12  C   UNL     1      33.876 -19.114 -21.548  0.00  0.00    +0.000 C 
ATOM     13  C   UNL     1      36.233 -18.609 -21.669  0.00  0.00    +0.000 C 
ATOM     14  C   UNL     1      34.943 -18.463 -22.169  0.00  0.00    +0.000 C 
ENDROOT
BRANCH   5  15
ATOM     15  N   UNL     1      33.921 -23.791 -15.249  0.00  0.00    -0.299 N 
ATOM     16  H   UNL     1      33.164 -24.350 -14.961  0.00  0.00    +0.153 HD
BRANCH  15  21
ATOM     17  N   UNL     1      35.840 -25.031 -14.686  0.00  0.00    -0.106 N 
ATOM     18  N   UNL     1      37.447 -24.325 -13.042  0.00  0.00    -0.340 NA
ATOM     19  N   UNL     1      35.652 -26.080 -15.529  0.00  0.00    -0.139 NA
ATOM     20  N   UNL     1      37.567 -26.375 -14.333  0.00  0.00    -0.145 NA
ATOM     21  C   UNL     1      35.042 -23.895 -14.503  0.00  0.00    +0.138 C 
ATOM     22  C   UNL     1      35.435 -22.980 -13.602  0.00  0.00    +0.061 C 
ATOM     23  C   UNL     1      37.021 -25.234 -13.964  0.00  0.00    +0.174 C 
ATOM     24  C   UNL     1      36.706 -23.270 -12.872  0.00  0.00    +0.125 C 
ATOM     25  C   UNL     1      37.158 -22.252 -11.857  0.00  0.00    +0.068 C 
ATOM     26  C   UNL     1      36.709 -26.844 -15.274  0.00  0.00    +0.230 C 
ENDBRANCH  15  21
ENDBRANCH   5  15
TORSDOF 2
ENDMDL
MODEL 3
REMARK VINA RESULT:     -14.3      0.992      2.235
REMARK  Name = 24882195
REMARK  2 active torsions:
REMARK  status: ('A' for Active; 'I' for Inactive)
REMARK    1  A    between atoms: C_5  and  N_15
REMARK    2  A    between atoms: N_15  and  C_21
REMARK                            x       y       z     vdW  Elec       q    Type
REMARK                         _______ _______ _______ _____ _____    ______ ____
ROOT
ATOM      1  C   UNL     1      34.145 -19.331 -20.641  0.00  0.00    +0.001 C 
ATOM      2  C   UNL     1      35.479 -19.621 -20.280  0.00  0.00    +0.000 C 
ATOM      3  C   UNL     1      33.350 -21.031 -19.065  0.00  0.00    +0.000 C 
ATOM      4  C   UNL     1      34.684 -21.321 -18.703  0.00  0.00    +0.000 C 
ATOM      5  C   UNL     1      34.944 -17.645 -22.203  0.00  0.00    +0.049 C 
ATOM      6  C   UNL     1      33.098 -20.041 -20.029  0.00  0.00    +0.000 C 
ATOM      7  C   UNL     1      33.894 -18.341 -21.605  0.00  0.00    +0.015 C 
ATOM      8  C   UNL     1      35.732 -20.611 -19.315  0.00  0.00    +0.000 C 
ATOM      9  C   UNL     1      36.526 -18.911 -20.891  0.00  0.00    +0.001 C 
ATOM     10  C   UNL     1      36.259 -17.930 -21.847  0.00  0.00    +0.015 C 
ATOM     11  C   UNL     1      32.304 -21.741 -18.453  0.00  0.00    +0.000 C 
ATOM     12  C   UNL     1      34.936 -22.311 -17.740  0.00  0.00    +0.000 C 
ATOM     13  C   UNL     1      32.570 -22.721 -17.498  0.00  0.00    +0.000 C 
ATOM     14  C   UNL     1      33.884 -23.006 -17.141  0.00  0.00    +0.000 C 
ENDROOT
BRANCH   5  15
ATOM     15  N   UNL     1      34.674 -16.653 -23.169  0.00  0.00    -0.299 N 
ATOM     16  H   UNL     1      34.929 -16.877 -24.094  0.00  0.00    +0.153 HD
BRANCH  15  21
ATOM     17  N   UNL     1      33.614 -14.784 -24.128  0.00  0.00    -0.106 N 
ATOM     18  N   UNL     1      32.892 -12.870 -22.865  0.00  0.00    -0.340 NA
ATOM     19  N   UNL     1      33.607 -15.203 -25.421  0.00  0.00    -0.139 NA
ATOM     20  N   UNL     1      32.638 -13.148 -25.262  0.00  0.00    -0.145 NA
ATOM     21  C   UNL     1      34.114 -15.437 -22.994  0.00  0.00    +0.138 C 
ATOM     22  C   UNL     1      34.008 -14.821 -21.807  0.00  0.00    +0.061 C 
ATOM     23  C   UNL     1      33.014 -13.523 -24.055  0.00  0.00    +0.174 C 
ATOM     24  C   UNL     1      33.355 -13.476 -21.813  0.00  0.00    +0.125 C 
ATOM     25  C   UNL     1      33.231 -12.772 -20.486  0.00  0.00    +0.068 C 
ATOM     26  C   UNL     1      33.015 -14.190 -26.045  0.00  0.00    +0.230 C 
ENDBRANCH  15  21
ENDBRANCH   5  15
TORSDOF 2
ENDMDL
MODEL 4
REMARK VINA RESULT:     -14.2      6.001     10.186
REMARK  Name = 24882195
REMARK  2 active torsions:
REMARK  status: ('A' for Active; 'I' for Inactive)
REMARK    1  A    between atoms: C_5  and  N_15
REMARK    2  A    between atoms: N_15  and  C_21
REMARK                            x       y       z     vdW  Elec       q    Type
REMARK                         _______ _______ _______ _____ _____    ______ ____
ROOT
ATOM      1  C   UNL     1      34.841 -21.645 -17.809  0.00  0.00    +0.001 C 
ATOM      2  C   UNL     1      33.505 -21.674 -18.264  0.00  0.00    +0.000 C 
ATOM      3  C   UNL     1      35.444 -20.174 -19.673  0.00  0.00    +0.000 C 
ATOM      4  C   UNL     1      34.108 -20.204 -20.129  0.00  0.00    +0.000 C 
ATOM      5  C   UNL     1      34.232 -23.106 -15.960  0.00  0.00    +0.049 C 
ATOM      6  C   UNL     1      35.793 -20.896 -18.520  0.00  0.00    +0.000 C 
ATOM      7  C   UNL     1      35.189 -22.366 -16.655  0.00  0.00    +0.015 C 
ATOM      8  C   UNL     1      33.155 -20.953 -19.419  0.00  0.00    +0.000 C 
ATOM      9  C   UNL     1      32.553 -22.423 -17.553  0.00  0.00    +0.001 C 
ATOM     10  C   UNL     1      32.915 -23.135 -16.408  0.00  0.00    +0.015 C 
ATOM     11  C   UNL     1      36.395 -19.425 -20.385  0.00  0.00    +0.000 C 
ATOM     12  C   UNL     1      33.759 -19.482 -21.283  0.00  0.00    +0.000 C 
ATOM     13  C   UNL     1      36.033 -18.715 -21.529  0.00  0.00    +0.000 C 
ATOM     14  C   UNL     1      34.717 -18.743 -21.977  0.00  0.00    +0.000 C 
ENDROOT
BRANCH   5  15
ATOM     15  N   UNL     1      34.599 -23.824 -14.803  0.00  0.00    -0.299 N 
ATOM     16  H   UNL     1      33.869 -24.304 -14.348  0.00  0.00    +0.153 HD
BRANCH  15  21
ATOM     17  N   UNL     1      35.903 -23.793 -12.844  0.00  0.00    -0.106 N 
ATOM     18  N   UNL     1      38.281 -24.145 -12.822  0.00  0.00    -0.340 NA
ATOM     19  N   UNL     1      34.910 -23.543 -11.950  0.00  0.00    -0.139 NA
ATOM     20  N   UNL     1      36.907 -23.716 -10.869  0.00  0.00    -0.145 NA
ATOM     21  C   UNL     1      35.819 -23.940 -14.234  0.00  0.00    +0.138 C 
ATOM     22  C   UNL     1      36.947 -24.187 -14.917  0.00  0.00    +0.061 C 
ATOM     23  C   UNL     1      37.117 -23.896 -12.158  0.00  0.00    +0.174 C 
ATOM     24  C   UNL     1      38.203 -24.282 -14.112  0.00  0.00    +0.125 C 
ATOM     25  C   UNL     1      39.479 -24.557 -14.867  0.00  0.00    +0.068 C 
ATOM     26  C   UNL     1      35.568 -23.509 -10.796  0.00  0.00    +0.230 C 
ENDBRANCH  15  21
ENDBRANCH   5  15
TORSDOF 2
ENDMDL
MODEL 5
REMARK VINA RESULT:     -13.9      6.111     10.410
REMARK  Name = 24882195
REMARK  2 active torsions:
REMARK  status: ('A' for Active; 'I' for Inactive)
REMARK    1  A    between atoms: C_5  and  N_15
REMARK    2  A    between atoms: N_15  and  C_21
REMARK                            x       y       z     vdW  Elec       q    Type
REMARK                         _______ _______ _______ _____ _____    ______ ____
ROOT
ATOM      1  C   UNL     1      34.548 -21.437 -18.174  0.00  0.00    +0.001 C 
ATOM      2  C   UNL     1      35.882 -20.985 -18.080  0.00  0.00    +0.000 C 
ATOM      3  C   UNL     1      34.261 -20.162 -20.246  0.00  0.00    +0.000 C 
ATOM      4  C   UNL     1      35.596 -19.709 -20.153  0.00  0.00    +0.000 C 
ATOM      5  C   UNL     1      34.843 -22.700 -16.114  0.00  0.00    +0.049 C 
ATOM      6  C   UNL     1      33.755 -21.018 -19.255  0.00  0.00    +0.000 C 
ATOM      7  C   UNL     1      34.043 -22.293 -17.182  0.00  0.00    +0.015 C 
ATOM      8  C   UNL     1      36.390 -20.127 -19.071  0.00  0.00    +0.000 C 
ATOM      9  C   UNL     1      36.676 -21.403 -16.999  0.00  0.00    +0.001 C 
ATOM     10  C   UNL     1      36.159 -22.256 -16.022  0.00  0.00    +0.015 C 
ATOM     11  C   UNL     1      33.468 -19.742 -21.327  0.00  0.00    +0.000 C 
ATOM     12  C   UNL     1      36.102 -18.852 -21.144  0.00  0.00    +0.000 C 
ATOM     13  C   UNL     1      33.985 -18.891 -22.303  0.00  0.00    +0.000 C 
ATOM     14  C   UNL     1      35.300 -18.446 -22.212  0.00  0.00    +0.000 C 
ENDROOT
BRANCH   5  15
ATOM     15  N   UNL     1      34.319 -23.562 -15.128  0.00  0.00    -0.299 N 
ATOM     16  H   UNL     1      33.385 -23.843 -15.258  0.00  0.00    +0.153 HD
BRANCH  15  21
ATOM     17  N   UNL     1      35.792 -25.141 -14.192  0.00  0.00    -0.106 N 
ATOM     18  N   UNL     1      36.322 -25.243 -11.849  0.00  0.00    -0.340 NA
ATOM     19  N   UNL     1      36.120 -25.804 -15.332  0.00  0.00    -0.139 NA
ATOM     20  N   UNL     1      37.210 -26.721 -13.556  0.00  0.00    -0.145 NA
ATOM     21  C   UNL     1      34.929 -24.050 -14.026  0.00  0.00    +0.138 C 
ATOM     22  C   UNL     1      34.759 -23.557 -12.790  0.00  0.00    +0.061 C 
ATOM     23  C   UNL     1      36.473 -25.720 -13.117  0.00  0.00    +0.174 C 
ATOM     24  C   UNL     1      35.521 -24.231 -11.695  0.00  0.00    +0.125 C 
ATOM     25  C   UNL     1      35.339 -23.687 -10.301  0.00  0.00    +0.068 C 
ATOM     26  C   UNL     1      36.965 -26.730 -14.890  0.00  0.00    +0.230 C 
ENDBRANCH  15  21
ENDBRANCH   5  15
TORSDOF 2
ENDMDL
MODEL 6
REMARK VINA RESULT:     -13.7      2.775      7.873
REMARK  Name = 24882195
REMARK  2 active torsions:
REMARK  status: ('A' for Active; 'I' for Inactive)
REMARK    1  A    between atoms: C_5  and  N_15
REMARK    2  A    between atoms: N_15  and  C_21
REMARK                            x       y       z     vdW  Elec       q    Type
REMARK                         _______ _______ _______ _____ _____    ______ ____
ROOT
ATOM      1  C   UNL     1      34.651 -16.562 -21.866  0.00  0.00    +0.001 C 
ATOM      2  C   UNL     1      34.329 -17.042 -23.154  0.00  0.00    +0.000 C 
ATOM      3  C   UNL     1      33.836 -14.338 -22.490  0.00  0.00    +0.000 C 
ATOM      4  C   UNL     1      33.514 -14.816 -23.779  0.00  0.00    +0.000 C 
ATOM      5  C   UNL     1      35.458 -18.776 -21.256  0.00  0.00    +0.049 C 
ATOM      6  C   UNL     1      34.400 -15.216 -21.551  0.00  0.00    +0.000 C 
ATOM      7  C   UNL     1      35.216 -17.441 -20.928  0.00  0.00    +0.015 C 
ATOM      8  C   UNL     1      33.765 -16.163 -24.095  0.00  0.00    +0.000 C 
ATOM      9  C   UNL     1      34.580 -18.387 -23.469  0.00  0.00    +0.001 C 
ATOM     10  C   UNL     1      35.141 -19.249 -22.525  0.00  0.00    +0.015 C 
ATOM     11  C   UNL     1      33.585 -12.992 -22.176  0.00  0.00    +0.000 C 
ATOM     12  C   UNL     1      32.949 -13.938 -24.718  0.00  0.00    +0.000 C 
ATOM     13  C   UNL     1      33.024 -12.131 -23.119  0.00  0.00    +0.000 C 
ATOM     14  C   UNL     1      32.706 -12.604 -24.388  0.00  0.00    +0.000 C 
ENDROOT
BRANCH   5  15
ATOM     15  N   UNL     1      36.026 -19.645 -20.301  0.00  0.00    -0.299 N 
ATOM     16  H   UNL     1      37.009 -19.703 -20.306  0.00  0.00    +0.153 HD
BRANCH  15  21
ATOM     17  N   UNL     1      34.020 -20.603 -19.528  0.00  0.00    -0.106 N 
ATOM     18  N   UNL     1      33.873 -21.985 -17.566  0.00  0.00    -0.340 NA
ATOM     19  N   UNL     1      33.188 -20.119 -20.488  0.00  0.00    -0.139 NA
ATOM     20  N   UNL     1      32.014 -21.388 -19.006  0.00  0.00    -0.145 NA
ATOM     21  C   UNL     1      35.399 -20.411 -19.381  0.00  0.00    +0.138 C 
ATOM     22  C   UNL     1      36.015 -20.996 -18.342  0.00  0.00    +0.061 C 
ATOM     23  C   UNL     1      33.278 -21.378 -18.632  0.00  0.00    +0.174 C 
ATOM     24  C   UNL     1      35.153 -21.807 -17.430  0.00  0.00    +0.125 C 
ATOM     25  C   UNL     1      35.832 -22.468 -16.257  0.00  0.00    +0.068 C 
ATOM     26  C   UNL     1      32.012 -20.620 -20.125  0.00  0.00    +0.230 C 
ENDBRANCH  15  21
ENDBRANCH   5  15
TORSDOF 2
ENDMDL
MODEL 7
REMARK VINA RESULT:     -13.7      5.445      9.714
REMARK  Name = 24882195
REMARK  2 active torsions:
REMARK  status: ('A' for Active; 'I' for Inactive)
REMARK    1  A    between atoms: C_5  and  N_15
REMARK    2  A    between atoms: N_15  and  C_21
REMARK                            x       y       z     vdW  Elec       q    Type
REMARK                         _______ _______ _______ _____ _____    ______ ____
ROOT
ATOM      1  C   UNL     1      35.294 -20.816 -18.789  0.00  0.00    +0.001 C 
ATOM      2  C   UNL     1      33.953 -21.032 -19.174  0.00  0.00    +0.000 C 
ATOM      3  C   UNL     1      35.595 -19.296 -20.686  0.00  0.00    +0.000 C 
ATOM      4  C   UNL     1      34.254 -19.511 -21.072  0.00  0.00    +0.000 C 
ATOM      5  C   UNL     1      34.986 -22.328 -16.907  0.00  0.00    +0.049 C 
ATOM      6  C   UNL     1      36.098 -19.951 -19.551  0.00  0.00    +0.000 C 
ATOM      7  C   UNL     1      35.796 -21.472 -17.653  0.00  0.00    +0.015 C 
ATOM      8  C   UNL     1      33.449 -20.376 -20.311  0.00  0.00    +0.000 C 
ATOM      9  C   UNL     1      33.150 -21.896 -18.413  0.00  0.00    +0.001 C 
ATOM     10  C   UNL     1      33.664 -22.540 -17.286  0.00  0.00    +0.015 C 
ATOM     11  C   UNL     1      36.398 -18.431 -21.449  0.00  0.00    +0.000 C 
ATOM     12  C   UNL     1      33.751 -18.855 -22.208  0.00  0.00    +0.000 C 
ATOM     13  C   UNL     1      35.884 -17.788 -22.575  0.00  0.00    +0.000 C 
ATOM     14  C   UNL     1      34.562 -17.999 -22.954  0.00  0.00    +0.000 C 
ENDROOT
BRANCH   5  15
ATOM     15  N   UNL     1      35.506 -22.979 -15.768  0.00  0.00    -0.299 N 
ATOM     16  H   UNL     1      36.446 -23.263 -15.831  0.00  0.00    +0.153 HD
BRANCH  15  21
ATOM     17  N   UNL     1      35.601 -23.058 -13.418  0.00  0.00    -0.106 N 
ATOM     18  N   UNL     1      33.778 -23.798 -12.036  0.00  0.00    -0.340 NA
ATOM     19  N   UNL     1      36.869 -22.598 -13.256  0.00  0.00    -0.139 NA
ATOM     20  N   UNL     1      35.936 -23.041 -11.227  0.00  0.00    -0.145 NA
ATOM     21  C   UNL     1      34.884 -23.265 -14.604  0.00  0.00    +0.138 C 
ATOM     22  C   UNL     1      33.629 -23.732 -14.515  0.00  0.00    +0.061 C 
ATOM     23  C   UNL     1      35.049 -23.322 -12.161  0.00  0.00    +0.174 C 
ATOM     24  C   UNL     1      33.113 -23.990 -13.137  0.00  0.00    +0.125 C 
ATOM     25  C   UNL     1      31.705 -24.516 -13.023  0.00  0.00    +0.068 C 
ATOM     26  C   UNL     1      37.010 -22.609 -11.935  0.00  0.00    +0.230 C 
ENDBRANCH  15  21
ENDBRANCH   5  15
TORSDOF 2
ENDMDL
MODEL 8
REMARK VINA RESULT:     -13.6      6.290     10.606
REMARK  Name = 24882195
REMARK  2 active torsions:
REMARK  status: ('A' for Active; 'I' for Inactive)
REMARK    1  A    between atoms: C_5  and  N_15
REMARK    2  A    between atoms: N_15  and  C_21
REMARK                            x       y       z     vdW  Elec       q    Type
REMARK                         _______ _______ _______ _____ _____    ______ ____
ROOT
ATOM      1  C   UNL     1      35.961 -21.048 -17.908  0.00  0.00    +0.001 C 
ATOM      2  C   UNL     1      34.638 -21.538 -17.980  0.00  0.00    +0.000 C 
ATOM      3  C   UNL     1      35.611 -19.799 -19.986  0.00  0.00    +0.000 C 
ATOM      4  C   UNL     1      34.288 -20.288 -20.059  0.00  0.00    +0.000 C 
ATOM      5  C   UNL     1      36.298 -22.293 -15.844  0.00  0.00    +0.049 C 
ATOM      6  C   UNL     1      36.430 -20.186 -18.913  0.00  0.00    +0.000 C 
ATOM      7  C   UNL     1      36.779 -21.436 -16.834  0.00  0.00    +0.015 C 
ATOM      8  C   UNL     1      33.819 -21.152 -19.054  0.00  0.00    +0.000 C 
ATOM      9  C   UNL     1      34.169 -22.400 -16.976  0.00  0.00    +0.001 C 
ATOM     10  C   UNL     1      34.994 -22.776 -15.915  0.00  0.00    +0.015 C 
ATOM     11  C   UNL     1      36.079 -18.937 -20.992  0.00  0.00    +0.000 C 
ATOM     12  C   UNL     1      33.470 -19.901 -21.133  0.00  0.00    +0.000 C 
ATOM     13  C   UNL     1      35.254 -18.562 -22.052  0.00  0.00    +0.000 C 
ATOM     14  C   UNL     1      33.951 -19.043 -22.122  0.00  0.00    +0.000 C 
ENDROOT
BRANCH   5  15
ATOM     15  N   UNL     1      37.133 -22.672 -14.772  0.00  0.00    -0.299 N 
ATOM     16  H   UNL     1      38.071 -22.381 -14.838  0.00  0.00    +0.153 HD
BRANCH  15  21
ATOM     17  N   UNL     1      36.865 -24.779 -13.760  0.00  0.00    -0.106 N 
ATOM     18  N   UNL     1      36.192 -25.082 -11.472  0.00  0.00    -0.340 NA
ATOM     19  N   UNL     1      37.194 -25.554 -14.827  0.00  0.00    -0.139 NA
ATOM     20  N   UNL     1      36.683 -26.867 -13.038  0.00  0.00    -0.145 NA
ATOM     21  C   UNL     1      36.817 -23.383 -13.668  0.00  0.00    +0.138 C 
ATOM     22  C   UNL     1      36.461 -22.835 -12.496  0.00  0.00    +0.061 C 
ATOM     23  C   UNL     1      36.557 -25.606 -12.675  0.00  0.00    +0.174 C 
ATOM     24  C   UNL     1      36.147 -23.785 -11.386  0.00  0.00    +0.125 C 
ATOM     25  C   UNL     1      35.745 -23.183 -10.064  0.00  0.00    +0.068 C 
ATOM     26  C   UNL     1      37.068 -26.783 -14.337  0.00  0.00    +0.230 C 
ENDBRANCH  15  21
ENDBRANCH   5  15
TORSDOF 2
ENDMDL
MODEL 9
REMARK VINA RESULT:     -13.6      5.087      8.824
REMARK  Name = 24882195
REMARK  2 active torsions:
REMARK  status: ('A' for Active; 'I' for Inactive)
REMARK    1  A    between atoms: C_5  and  N_15
REMARK    2  A    between atoms: N_15  and  C_21
REMARK                            x       y       z     vdW  Elec       q    Type
REMARK                         _______ _______ _______ _____ _____    ______ ____
ROOT
ATOM      1  C   UNL     1      33.733 -20.895 -19.480  0.00  0.00    +0.001 C 
ATOM      2  C   UNL     1      35.064 -20.814 -19.015  0.00  0.00    +0.000 C 
ATOM      3  C   UNL     1      34.243 -19.255 -21.227  0.00  0.00    +0.000 C 
ATOM      4  C   UNL     1      35.574 -19.173 -20.763  0.00  0.00    +0.000 C 
ATOM      5  C   UNL     1      33.237 -22.524 -17.741  0.00  0.00    +0.049 C 
ATOM      6  C   UNL     1      33.340 -20.114 -20.579  0.00  0.00    +0.000 C 
ATOM      7  C   UNL     1      32.831 -21.754 -18.832  0.00  0.00    +0.015 C 
ATOM      8  C   UNL     1      35.968 -19.954 -19.662  0.00  0.00    +0.000 C 
ATOM      9  C   UNL     1      35.457 -21.595 -17.916  0.00  0.00    +0.001 C 
ATOM     10  C   UNL     1      34.548 -22.444 -17.283  0.00  0.00    +0.015 C 
ATOM     11  C   UNL     1      33.851 -18.473 -22.326  0.00  0.00    +0.000 C 
ATOM     12  C   UNL     1      36.477 -18.314 -21.410  0.00  0.00    +0.000 C 
ATOM     13  C   UNL     1      34.759 -17.624 -22.958  0.00  0.00    +0.000 C 
ATOM     14  C   UNL     1      36.070 -17.545 -22.501  0.00  0.00    +0.000 C 
ENDROOT
BRANCH   5  15
ATOM     15  N   UNL     1      32.317 -23.382 -17.102  0.00  0.00    -0.299 N 
ATOM     16  H   UNL     1      32.320 -24.317 -17.411  0.00  0.00    +0.153 HD
BRANCH  15  21
ATOM     17  N   UNL     1      31.866 -23.224 -14.798  0.00  0.00    -0.106 N 
ATOM     18  N   UNL     1      29.745 -22.534 -13.901  0.00  0.00    -0.340 NA
ATOM     19  N   UNL     1      33.082 -23.613 -14.331  0.00  0.00    -0.139 NA
ATOM     20  N   UNL     1      31.689 -23.154 -12.589  0.00  0.00    -0.145 NA
ATOM     21  C   UNL     1      31.433 -23.092 -16.123  0.00  0.00    +0.138 C 
ATOM     22  C   UNL     1      30.173 -22.686 -16.343  0.00  0.00    +0.061 C 
ATOM     23  C   UNL     1      31.030 -22.947 -13.712  0.00  0.00    +0.174 C 
ATOM     24  C   UNL     1      29.343 -22.411 -15.131  0.00  0.00    +0.125 C 
ATOM     25  C   UNL     1      27.925 -21.956 -15.363  0.00  0.00    +0.068 C 
ATOM     26  C   UNL     1      32.915 -23.551 -13.014  0.00  0.00    +0.230 C 
ENDBRANCH  15  21
ENDBRANCH   5  15
TORSDOF 2
ENDMDL
