MODEL 1
REMARK VINA RESULT:     -11.2      0.000      0.000
REMARK  Name = 52913813
REMARK  5 active torsions:
REMARK  status: ('A' for Active; 'I' for Inactive)
REMARK    1  A    between atoms: C_3  and  C_23
REMARK    2  A    between atoms: C_5  and  N_13
REMARK    3  A    between atoms: C_9  and  C_20
REMARK    4  A    between atoms: C_23  and  N_25
REMARK    5  A    between atoms: N_25  and  C_29
REMARK                            x       y       z     vdW  Elec       q    Type
REMARK                         _______ _______ _______ _____ _____    ______ ____
ROOT
ATOM      1  O   UNL     1      33.453 -23.374 -15.148  0.00  0.00    -0.440 OA
ATOM      2  O   UNL     1      30.661 -24.369 -12.361  0.00  0.00    -0.286 OA
ATOM      3  C   UNL     1      31.792 -22.686 -16.679  0.00  0.00    +0.030 C 
ATOM      4  C   UNL     1      32.121 -23.204 -15.426  0.00  0.00    +0.147 C 
ATOM      5  C   UNL     1      33.825 -23.889 -13.912  0.00  0.00    +0.202 C 
ATOM      6  C   UNL     1      31.112 -23.524 -14.520  0.00  0.00    +0.074 C 
ATOM      7  C   UNL     1      30.454 -22.489 -17.020  0.00  0.00    +0.005 C 
ATOM      8  C   UNL     1      32.935 -24.230 -12.965  0.00  0.00    +0.096 C 
ATOM      9  C   UNL     1      29.445 -22.810 -16.111  0.00  0.00    +0.054 C 
ATOM     10  C   UNL     1      31.488 -24.067 -13.208  0.00  0.00    +0.203 C 
ATOM     11  C   UNL     1      29.770 -23.329 -14.857  0.00  0.00    +0.011 C 
ENDROOT
BRANCH   5  13
ATOM     12  O   UNL     1      37.928 -23.597 -13.444  0.00  0.00    -0.350 OA
ATOM     13  N   UNL     1      35.170 -24.022 -13.733  0.00  0.00    -0.274 N 
ATOM     14  C   UNL     1      35.784 -24.056 -12.404  0.00  0.00    +0.126 C 
ATOM     15  C   UNL     1      36.081 -24.334 -14.834  0.00  0.00    +0.126 C 
ATOM     16  C   UNL     1      37.035 -23.185 -12.406  0.00  0.00    +0.164 C 
ATOM     17  C   UNL     1      37.319 -23.450 -14.728  0.00  0.00    +0.164 C 
ENDBRANCH   5  13
BRANCH   9  20
ATOM     18  O   UNL     1      27.682 -23.055 -17.563  0.00  0.00    -0.270 OA
ATOM     19  N   UNL     1      27.207 -21.930 -15.571  0.00  0.00    -0.273 N 
ATOM     20  C   UNL     1      28.051 -22.605 -16.471  0.00  0.00    +0.249 C 
ATOM     21  C   UNL     1      27.688 -21.414 -14.291  0.00  0.00    +0.115 C 
ATOM     22  C   UNL     1      25.797 -21.699 -15.854  0.00  0.00    +0.115 C 
ENDBRANCH   9  20
BRANCH   3  23
ATOM     23  C   UNL     1      32.853 -22.335 -17.670  0.00  0.00    +0.095 C 
ATOM     24  C   UNL     1      33.399 -23.541 -18.448  0.00  0.00    +0.026 C 
BRANCH  23  25
ATOM     25  N   UNL     1      32.365 -21.359 -18.634  0.00  0.00    -0.330 N 
ATOM     26  H   UNL     1      31.400 -21.164 -18.655  0.00  0.00    +0.147 HD
BRANCH  25  29
ATOM     27  F   UNL     1      32.955 -18.820 -22.628  0.00  0.00    -0.204 F 
ATOM     28  F   UNL     1      36.709 -19.890 -19.948  0.00  0.00    -0.204 F 
ATOM     29  C   UNL     1      33.187 -20.693 -19.519  0.00  0.00    +0.049 C 
ATOM     30  C   UNL     1      34.560 -20.628 -19.282  0.00  0.00    +0.044 C 
ATOM     31  C   UNL     1      32.645 -20.082 -20.650  0.00  0.00    +0.044 C 
ATOM     32  C   UNL     1      33.475 -19.407 -21.543  0.00  0.00    +0.144 C 
ATOM     33  C   UNL     1      35.391 -19.952 -20.176  0.00  0.00    +0.144 C 
ATOM     34  C   UNL     1      34.848 -19.342 -21.307  0.00  0.00    +0.059 C 
ENDBRANCH  25  29
ENDBRANCH  23  25
ENDBRANCH   3  23
TORSDOF 5
ENDMDL
MODEL 2
REMARK VINA RESULT:     -11.1      1.545      2.182
REMARK  Name = 52913813
REMARK  5 active torsions:
REMARK  status: ('A' for Active; 'I' for Inactive)
REMARK    1  A    between atoms: C_3  and  C_23
REMARK    2  A    between atoms: C_5  and  N_13
REMARK    3  A    between atoms: C_9  and  C_20
REMARK    4  A    between atoms: C_23  and  N_25
REMARK    5  A    between atoms: N_25  and  C_29
REMARK                            x       y       z     vdW  Elec       q    Type
REMARK                         _______ _______ _______ _____ _____    ______ ____
ROOT
ATOM      1  O   UNL     1      35.292 -23.197 -15.479  0.00  0.00    -0.440 OA
ATOM      2  O   UNL     1      32.862 -23.588 -12.238  0.00  0.00    -0.286 OA
ATOM      3  C   UNL     1      33.454 -22.802 -16.906  0.00  0.00    +0.030 C 
ATOM      4  C   UNL     1      33.934 -23.067 -15.624  0.00  0.00    +0.147 C 
ATOM      5  C   UNL     1      35.815 -23.463 -14.218  0.00  0.00    +0.202 C 
ATOM      6  C   UNL     1      33.045 -23.190 -14.559  0.00  0.00    +0.074 C 
ATOM      7  C   UNL     1      32.082 -22.659 -17.118  0.00  0.00    +0.005 C 
ATOM      8  C   UNL     1      35.047 -23.599 -13.124  0.00  0.00    +0.096 C 
ATOM      9  C   UNL     1      31.192 -22.782 -16.050  0.00  0.00    +0.054 C 
ATOM     10  C   UNL     1      33.580 -23.468 -13.221  0.00  0.00    +0.203 C 
ATOM     11  C   UNL     1      31.670 -23.048 -14.766  0.00  0.00    +0.011 C 
ENDROOT
BRANCH   5  13
ATOM     12  O   UNL     1      39.830 -24.464 -14.303  0.00  0.00    -0.350 OA
ATOM     13  N   UNL     1      37.173 -23.576 -14.177  0.00  0.00    -0.274 N 
ATOM     14  C   UNL     1      38.026 -23.187 -15.302  0.00  0.00    +0.126 C 
ATOM     15  C   UNL     1      37.895 -23.908 -12.950  0.00  0.00    +0.126 C 
ATOM     16  C   UNL     1      39.097 -24.251 -15.512  0.00  0.00    +0.164 C 
ATOM     17  C   UNL     1      38.972 -24.940 -13.264  0.00  0.00    +0.164 C 
ENDBRANCH   5  13
BRANCH   9  20
ATOM     18  O   UNL     1      29.390 -21.605 -16.854  0.00  0.00    -0.270 OA
ATOM     19  N   UNL     1      28.895 -23.655 -15.846  0.00  0.00    -0.273 N 
ATOM     20  C   UNL     1      29.763 -22.634 -16.275  0.00  0.00    +0.249 C 
ATOM     21  C   UNL     1      29.382 -24.854 -15.166  0.00  0.00    +0.115 C 
ATOM     22  C   UNL     1      27.455 -23.586 -16.050  0.00  0.00    +0.115 C 
ENDBRANCH   9  20
BRANCH   3  23
ATOM     23  C   UNL     1      34.384 -22.667 -18.066  0.00  0.00    +0.095 C 
ATOM     24  C   UNL     1      33.737 -22.988 -19.422  0.00  0.00    +0.026 C 
BRANCH  23  25
ATOM     25  N   UNL     1      34.938 -21.323 -18.138  0.00  0.00    -0.330 N 
ATOM     26  H   UNL     1      35.364 -20.948 -17.332  0.00  0.00    +0.147 HD
BRANCH  25  29
ATOM     27  F   UNL     1      32.499 -19.409 -21.763  0.00  0.00    -0.204 F 
ATOM     28  F   UNL     1      37.142 -18.573 -21.354  0.00  0.00    -0.204 F 
ATOM     29  C   UNL     1      34.900 -20.548 -19.278  0.00  0.00    +0.049 C 
ATOM     30  C   UNL     1      36.064 -19.942 -19.750  0.00  0.00    +0.044 C 
ATOM     31  C   UNL     1      33.696 -20.368 -19.959  0.00  0.00    +0.044 C 
ATOM     32  C   UNL     1      33.655 -19.582 -21.110  0.00  0.00    +0.144 C 
ATOM     33  C   UNL     1      36.024 -19.156 -20.901  0.00  0.00    +0.144 C 
ATOM     34  C   UNL     1      34.820 -18.976 -21.582  0.00  0.00    +0.059 C 
ENDBRANCH  25  29
ENDBRANCH  23  25
ENDBRANCH   3  23
TORSDOF 5
ENDMDL
MODEL 3
REMARK VINA RESULT:     -11.0      1.559      6.280
REMARK  Name = 52913813
REMARK  5 active torsions:
REMARK  status: ('A' for Active; 'I' for Inactive)
REMARK    1  A    between atoms: C_3  and  C_23
REMARK    2  A    between atoms: C_5  and  N_13
REMARK    3  A    between atoms: C_9  and  C_20
REMARK    4  A    between atoms: C_23  and  N_25
REMARK    5  A    between atoms: N_25  and  C_29
REMARK                            x       y       z     vdW  Elec       q    Type
REMARK                         _______ _______ _______ _____ _____    ______ ____
ROOT
ATOM      1  O   UNL     1      31.413 -22.907 -15.951  0.00  0.00    -0.440 OA
ATOM      2  O   UNL     1      32.800 -23.539 -12.178  0.00  0.00    -0.286 OA
ATOM      3  C   UNL     1      33.604 -22.667 -16.799  0.00  0.00    +0.030 C 
ATOM      4  C   UNL     1      32.763 -22.898 -15.709  0.00  0.00    +0.147 C 
ATOM      5  C   UNL     1      30.539 -23.132 -14.894  0.00  0.00    +0.202 C 
ATOM      6  C   UNL     1      33.307 -23.106 -14.444  0.00  0.00    +0.074 C 
ATOM      7  C   UNL     1      34.987 -22.647 -16.617  0.00  0.00    +0.005 C 
ATOM      8  C   UNL     1      30.956 -23.344 -13.634  0.00  0.00    +0.096 C 
ATOM      9  C   UNL     1      35.529 -22.855 -15.348  0.00  0.00    +0.054 C 
ATOM     10  C   UNL     1      32.398 -23.347 -13.316  0.00  0.00    +0.203 C 
ATOM     11  C   UNL     1      34.692 -23.086 -14.257  0.00  0.00    +0.011 C 
ENDROOT
BRANCH   5  13
ATOM     12  O   UNL     1      26.758 -22.899 -16.561  0.00  0.00    -0.350 OA
ATOM     13  N   UNL     1      29.219 -23.120 -15.234  0.00  0.00    -0.274 N 
ATOM     14  C   UNL     1      28.515 -24.323 -15.683  0.00  0.00    +0.126 C 
ATOM     15  C   UNL     1      28.358 -21.961 -14.998  0.00  0.00    +0.126 C 
ATOM     16  C   UNL     1      27.642 -23.976 -16.883  0.00  0.00    +0.164 C 
ATOM     17  C   UNL     1      27.492 -21.719 -16.229  0.00  0.00    +0.164 C 
ENDBRANCH   5  13
BRANCH   9  20
ATOM     18  O   UNL     1      37.535 -21.735 -15.284  0.00  0.00    -0.270 OA
ATOM     19  N   UNL     1      37.639 -24.029 -14.849  0.00  0.00    -0.273 N 
ATOM     20  C   UNL     1      36.972 -22.831 -15.163  0.00  0.00    +0.249 C 
ATOM     21  C   UNL     1      36.931 -25.302 -14.717  0.00  0.00    +0.115 C 
ATOM     22  C   UNL     1      39.078 -24.083 -14.634  0.00  0.00    +0.115 C 
ENDBRANCH   9  20
BRANCH   3  23
ATOM     23  C   UNL     1      33.049 -22.441 -18.167  0.00  0.00    +0.095 C 
ATOM     24  C   UNL     1      32.168 -21.188 -18.280  0.00  0.00    +0.026 C 
BRANCH  23  25
ATOM     25  N   UNL     1      34.114 -22.333 -19.153  0.00  0.00    -0.330 N 
ATOM     26  H   UNL     1      34.641 -23.139 -19.361  0.00  0.00    +0.147 HD
BRANCH  25  29
ATOM     27  F   UNL     1      37.099 -18.704 -19.969  0.00  0.00    -0.204 F 
ATOM     28  F   UNL     1      32.980 -18.928 -22.295  0.00  0.00    -0.204 F 
ATOM     29  C   UNL     1      34.422 -21.161 -19.811  0.00  0.00    +0.049 C 
ATOM     30  C   UNL     1      33.527 -20.625 -20.737  0.00  0.00    +0.044 C 
ATOM     31  C   UNL     1      35.628 -20.511 -19.552  0.00  0.00    +0.044 C 
ATOM     32  C   UNL     1      35.941 -19.327 -20.218  0.00  0.00    +0.144 C 
ATOM     33  C   UNL     1      33.839 -19.442 -21.405  0.00  0.00    +0.144 C 
ATOM     34  C   UNL     1      35.046 -18.792 -21.144  0.00  0.00    +0.059 C 
ENDBRANCH  25  29
ENDBRANCH  23  25
ENDBRANCH   3  23
TORSDOF 5
ENDMDL
MODEL 4
REMARK VINA RESULT:     -10.5      1.983      6.497
REMARK  Name = 52913813
REMARK  5 active torsions:
REMARK  status: ('A' for Active; 'I' for Inactive)
REMARK    1  A    between atoms: C_3  and  C_23
REMARK    2  A    between atoms: C_5  and  N_13
REMARK    3  A    between atoms: C_9  and  C_20
REMARK    4  A    between atoms: C_23  and  N_25
REMARK    5  A    between atoms: N_25  and  C_29
REMARK                            x       y       z     vdW  Elec       q    Type
REMARK                         _______ _______ _______ _____ _____    ______ ____
ROOT
ATOM      1  O   UNL     1      33.234 -22.341 -15.120  0.00  0.00    -0.440 OA
ATOM      2  O   UNL     1      33.247 -25.008 -12.047  0.00  0.00    -0.286 OA
ATOM      3  C   UNL     1      35.593 -22.339 -15.231  0.00  0.00    +0.030 C 
ATOM      4  C   UNL     1      34.426 -22.813 -14.631  0.00  0.00    +0.147 C 
ATOM      5  C   UNL     1      32.047 -22.785 -14.551  0.00  0.00    +0.202 C 
ATOM      6  C   UNL     1      34.505 -23.726 -13.582  0.00  0.00    +0.074 C 
ATOM      7  C   UNL     1      36.836 -22.783 -14.778  0.00  0.00    +0.005 C 
ATOM      8  C   UNL     1      32.008 -23.665 -13.535  0.00  0.00    +0.096 C 
ATOM      9  C   UNL     1      36.912 -23.697 -13.726  0.00  0.00    +0.054 C 
ATOM     10  C   UNL     1      33.259 -24.207 -12.970  0.00  0.00    +0.203 C 
ATOM     11  C   UNL     1      35.747 -24.172 -13.124  0.00  0.00    +0.011 C 
ENDROOT
BRANCH   5  13
ATOM     12  O   UNL     1      28.342 -21.817 -16.123  0.00  0.00    -0.350 OA
ATOM     13  N   UNL     1      30.918 -22.258 -15.105  0.00  0.00    -0.274 N 
ATOM     14  C   UNL     1      29.934 -21.512 -14.318  0.00  0.00    +0.126 C 
ATOM     15  C   UNL     1      30.695 -22.227 -16.550  0.00  0.00    +0.126 C 
ATOM     16  C   UNL     1      28.531 -21.959 -14.713  0.00  0.00    +0.164 C 
ATOM     17  C   UNL     1      29.258 -22.643 -16.846  0.00  0.00    +0.164 C 
ENDBRANCH   5  13
BRANCH   9  20
ATOM     18  O   UNL     1      38.749 -23.492 -12.361  0.00  0.00    -0.270 OA
ATOM     19  N   UNL     1      38.769 -25.316 -13.822  0.00  0.00    -0.273 N 
ATOM     20  C   UNL     1      38.210 -24.156 -13.256  0.00  0.00    +0.249 C 
ATOM     21  C   UNL     1      38.095 -26.068 -14.879  0.00  0.00    +0.115 C 
ATOM     22  C   UNL     1      40.056 -25.846 -13.394  0.00  0.00    +0.115 C 
ENDBRANCH   9  20
BRANCH   3  23
ATOM     23  C   UNL     1      35.539 -21.361 -16.358  0.00  0.00    +0.095 C 
ATOM     24  C   UNL     1      36.904 -20.758 -16.722  0.00  0.00    +0.026 C 
BRANCH  23  25
ATOM     25  N   UNL     1      34.981 -21.971 -17.555  0.00  0.00    -0.330 N 
ATOM     26  H   UNL     1      34.874 -22.950 -17.575  0.00  0.00    +0.147 HD
BRANCH  25  29
ATOM     27  F   UNL     1      31.559 -20.396 -20.481  0.00  0.00    -0.204 F 
ATOM     28  F   UNL     1      36.069 -19.193 -21.277  0.00  0.00    -0.204 F 
ATOM     29  C   UNL     1      34.593 -21.248 -18.663  0.00  0.00    +0.049 C 
ATOM     30  C   UNL     1      35.546 -20.574 -19.426  0.00  0.00    +0.044 C 
ATOM     31  C   UNL     1      33.246 -21.187 -19.020  0.00  0.00    +0.044 C 
ATOM     32  C   UNL     1      32.852 -20.454 -20.139  0.00  0.00    +0.144 C 
ATOM     33  C   UNL     1      35.153 -19.840 -20.545  0.00  0.00    +0.144 C 
ATOM     34  C   UNL     1      33.806 -19.781 -20.901  0.00  0.00    +0.059 C 
ENDBRANCH  25  29
ENDBRANCH  23  25
ENDBRANCH   3  23
TORSDOF 5
ENDMDL
MODEL 5
REMARK VINA RESULT:     -10.5      3.279      6.451
REMARK  Name = 52913813
REMARK  5 active torsions:
REMARK  status: ('A' for Active; 'I' for Inactive)
REMARK    1  A    between atoms: C_3  and  C_23
REMARK    2  A    between atoms: C_5  and  N_13
REMARK    3  A    between atoms: C_9  and  C_20
REMARK    4  A    between atoms: C_23  and  N_25
REMARK    5  A    between atoms: N_25  and  C_29
REMARK                            x       y       z     vdW  Elec       q    Type
REMARK                         _______ _______ _______ _____ _____    ______ ____
ROOT
ATOM      1  O   UNL     1      34.865 -23.063 -15.658  0.00  0.00    -0.440 OA
ATOM      2  O   UNL     1      38.245 -20.858 -16.177  0.00  0.00    -0.286 OA
ATOM      3  C   UNL     1      33.948 -22.276 -17.687  0.00  0.00    +0.030 C 
ATOM      4  C   UNL     1      35.002 -22.275 -16.773  0.00  0.00    +0.147 C 
ATOM      5  C   UNL     1      35.890 -23.091 -14.720  0.00  0.00    +0.202 C 
ATOM      6  C   UNL     1      36.130 -21.495 -17.014  0.00  0.00    +0.074 C 
ATOM      7  C   UNL     1      34.029 -21.496 -18.841  0.00  0.00    +0.005 C 
ATOM      8  C   UNL     1      37.022 -22.378 -14.854  0.00  0.00    +0.096 C 
ATOM      9  C   UNL     1      35.160 -20.715 -19.080  0.00  0.00    +0.054 C 
ATOM     10  C   UNL     1      37.224 -21.514 -16.034  0.00  0.00    +0.203 C 
ATOM     11  C   UNL     1      36.215 -20.711 -18.168  0.00  0.00    +0.011 C 
ENDROOT
BRANCH   5  13
ATOM     12  O   UNL     1      35.681 -25.168 -11.147  0.00  0.00    -0.350 OA
ATOM     13  N   UNL     1      35.659 -23.901 -13.649  0.00  0.00    -0.274 N 
ATOM     14  C   UNL     1      34.593 -23.636 -12.681  0.00  0.00    +0.126 C 
ATOM     15  C   UNL     1      36.325 -25.193 -13.485  0.00  0.00    +0.126 C 
ATOM     16  C   UNL     1      35.128 -23.855 -11.271  0.00  0.00    +0.164 C 
ATOM     17  C   UNL     1      36.783 -25.344 -12.039  0.00  0.00    +0.164 C 
ENDBRANCH   5  13
BRANCH   9  20
ATOM     18  O   UNL     1      36.367 -19.547 -20.648  0.00  0.00    -0.270 OA
ATOM     19  N   UNL     1      34.052 -19.579 -20.967  0.00  0.00    -0.273 N 
ATOM     20  C   UNL     1      35.239 -19.902 -20.284  0.00  0.00    +0.249 C 
ATOM     21  C   UNL     1      32.740 -20.021 -20.499  0.00  0.00    +0.115 C 
ATOM     22  C   UNL     1      34.051 -18.783 -22.186  0.00  0.00    +0.115 C 
ENDBRANCH   9  20
BRANCH   3  23
ATOM     23  C   UNL     1      32.726 -23.103 -17.455  0.00  0.00    +0.095 C 
ATOM     24  C   UNL     1      32.964 -24.614 -17.592  0.00  0.00    +0.026 C 
BRANCH  23  25
ATOM     25  N   UNL     1      32.168 -22.852 -16.134  0.00  0.00    -0.330 N 
ATOM     26  H   UNL     1      32.770 -22.528 -15.425  0.00  0.00    +0.147 HD
BRANCH  25  29
ATOM     27  F   UNL     1      27.577 -21.686 -16.696  0.00  0.00    -0.204 F 
ATOM     28  F   UNL     1      28.769 -25.179 -13.728  0.00  0.00    -0.204 F 
ATOM     29  C   UNL     1      30.837 -23.044 -15.825  0.00  0.00    +0.049 C 
ATOM     30  C   UNL     1      30.468 -24.033 -14.913  0.00  0.00    +0.044 C 
ATOM     31  C   UNL     1      29.860 -22.252 -16.427  0.00  0.00    +0.044 C 
ATOM     32  C   UNL     1      28.515 -22.447 -16.117  0.00  0.00    +0.144 C 
ATOM     33  C   UNL     1      29.123 -24.229 -14.604  0.00  0.00    +0.144 C 
ATOM     34  C   UNL     1      28.146 -23.436 -15.205  0.00  0.00    +0.059 C 
ENDBRANCH  25  29
ENDBRANCH  23  25
ENDBRANCH   3  23
TORSDOF 5
ENDMDL
MODEL 6
REMARK VINA RESULT:     -10.4      3.425      7.245
REMARK  Name = 52913813
REMARK  5 active torsions:
REMARK  status: ('A' for Active; 'I' for Inactive)
REMARK    1  A    between atoms: C_3  and  C_23
REMARK    2  A    between atoms: C_5  and  N_13
REMARK    3  A    between atoms: C_9  and  C_20
REMARK    4  A    between atoms: C_23  and  N_25
REMARK    5  A    between atoms: N_25  and  C_29
REMARK                            x       y       z     vdW  Elec       q    Type
REMARK                         _______ _______ _______ _____ _____    ______ ____
ROOT
ATOM      1  O   UNL     1      34.772 -21.293 -18.172  0.00  0.00    -0.440 OA
ATOM      2  O   UNL     1      30.728 -21.748 -18.182  0.00  0.00    -0.286 OA
ATOM      3  C   UNL     1      34.965 -22.361 -16.075  0.00  0.00    +0.030 C 
ATOM      4  C   UNL     1      34.152 -21.912 -17.117  0.00  0.00    +0.147 C 
ATOM      5  C   UNL     1      34.000 -20.828 -19.231  0.00  0.00    +0.202 C 
ATOM      6  C   UNL     1      32.774 -22.101 -17.054  0.00  0.00    +0.074 C 
ATOM      7  C   UNL     1      34.392 -22.999 -14.974  0.00  0.00    +0.005 C 
ATOM      8  C   UNL     1      32.664 -20.959 -19.273  0.00  0.00    +0.096 C 
ATOM      9  C   UNL     1      33.011 -23.186 -14.913  0.00  0.00    +0.054 C 
ATOM     10  C   UNL     1      31.944 -21.618 -18.165  0.00  0.00    +0.203 C 
ATOM     11  C   UNL     1      32.196 -22.738 -15.953  0.00  0.00    +0.011 C 
ENDROOT
BRANCH   5  13
ATOM     12  O   UNL     1      36.001 -18.408 -21.927  0.00  0.00    -0.350 OA
ATOM     13  N   UNL     1      34.708 -20.228 -20.230  0.00  0.00    -0.274 N 
ATOM     14  C   UNL     1      36.164 -20.086 -20.183  0.00  0.00    +0.126 C 
ATOM     15  C   UNL     1      34.098 -19.852 -21.506  0.00  0.00    +0.126 C 
ATOM     16  C   UNL     1      36.547 -18.681 -20.635  0.00  0.00    +0.164 C 
ATOM     17  C   UNL     1      34.573 -18.457 -21.898  0.00  0.00    +0.164 C 
ENDBRANCH   5  13
BRANCH   9  20
ATOM     18  O   UNL     1      33.158 -24.051 -12.789  0.00  0.00    -0.270 OA
ATOM     19  N   UNL     1      31.061 -24.212 -13.808  0.00  0.00    -0.273 N 
ATOM     20  C   UNL     1      32.420 -23.851 -13.762  0.00  0.00    +0.249 C 
ATOM     21  C   UNL     1      30.227 -23.955 -14.980  0.00  0.00    +0.115 C 
ATOM     22  C   UNL     1      30.393 -24.865 -12.690  0.00  0.00    +0.115 C 
ENDBRANCH   9  20
BRANCH   3  23
ATOM     23  C   UNL     1      36.446 -22.172 -16.116  0.00  0.00    +0.095 C 
ATOM     24  C   UNL     1      36.882 -20.812 -16.680  0.00  0.00    +0.026 C 
BRANCH  23  25
ATOM     25  N   UNL     1      37.028 -22.320 -14.790  0.00  0.00    -0.330 N 
ATOM     26  H   UNL     1      36.924 -21.580 -14.149  0.00  0.00    +0.147 HD
BRANCH  25  29
ATOM     27  F   UNL     1      40.479 -25.536 -15.497  0.00  0.00    -0.204 F 
ATOM     28  F   UNL     1      37.724 -25.850 -11.659  0.00  0.00    -0.204 F 
ATOM     29  C   UNL     1      37.718 -23.444 -14.387  0.00  0.00    +0.049 C 
ATOM     30  C   UNL     1      37.364 -24.093 -13.204  0.00  0.00    +0.044 C 
ATOM     31  C   UNL     1      38.770 -23.932 -15.162  0.00  0.00    +0.044 C 
ATOM     32  C   UNL     1      39.468 -25.068 -14.754  0.00  0.00    +0.144 C 
ATOM     33  C   UNL     1      38.063 -25.228 -12.795  0.00  0.00    +0.144 C 
ATOM     34  C   UNL     1      39.115 -25.716 -13.571  0.00  0.00    +0.059 C 
ENDBRANCH  25  29
ENDBRANCH  23  25
ENDBRANCH   3  23
TORSDOF 5
ENDMDL
MODEL 7
REMARK VINA RESULT:      -9.9      3.254      7.755
REMARK  Name = 52913813
REMARK  5 active torsions:
REMARK  status: ('A' for Active; 'I' for Inactive)
REMARK    1  A    between atoms: C_3  and  C_23
REMARK    2  A    between atoms: C_5  and  N_13
REMARK    3  A    between atoms: C_9  and  C_20
REMARK    4  A    between atoms: C_23  and  N_25
REMARK    5  A    between atoms: N_25  and  C_29
REMARK                            x       y       z     vdW  Elec       q    Type
REMARK                         _______ _______ _______ _____ _____    ______ ____
ROOT
ATOM      1  O   UNL     1      34.042 -22.342 -17.034  0.00  0.00    -0.440 OA
ATOM      2  O   UNL     1      37.909 -21.440 -16.144  0.00  0.00    -0.286 OA
ATOM      3  C   UNL     1      33.772 -23.528 -15.011  0.00  0.00    +0.030 C 
ATOM      4  C   UNL     1      34.592 -22.780 -15.856  0.00  0.00    +0.147 C 
ATOM      5  C   UNL     1      34.824 -21.595 -17.908  0.00  0.00    +0.202 C 
ATOM      6  C   UNL     1      35.907 -22.509 -15.488  0.00  0.00    +0.074 C 
ATOM      7  C   UNL     1      34.273 -24.001 -13.797  0.00  0.00    +0.005 C 
ATOM      8  C   UNL     1      36.104 -21.275 -17.651  0.00  0.00    +0.096 C 
ATOM      9  C   UNL     1      35.592 -23.728 -13.431  0.00  0.00    +0.054 C 
ATOM     10  C   UNL     1      36.746 -21.719 -16.399  0.00  0.00    +0.203 C 
ATOM     11  C   UNL     1      36.414 -22.981 -14.275  0.00  0.00    +0.011 C 
ENDROOT
BRANCH   5  13
ATOM     12  O   UNL     1      32.792 -19.813 -21.043  0.00  0.00    -0.350 OA
ATOM     13  N   UNL     1      34.189 -21.208 -19.050  0.00  0.00    -0.274 N 
ATOM     14  C   UNL     1      34.908 -20.642 -20.193  0.00  0.00    +0.126 C 
ATOM     15  C   UNL     1      32.778 -21.501 -19.301  0.00  0.00    +0.126 C 
ATOM     16  C   UNL     1      34.136 -19.441 -20.728  0.00  0.00    +0.164 C 
ATOM     17  C   UNL     1      32.101 -20.262 -19.875  0.00  0.00    +0.164 C 
ENDBRANCH   5  13
BRANCH   9  20
ATOM     18  O   UNL     1      35.886 -23.540 -11.160  0.00  0.00    -0.270 OA
ATOM     19  N   UNL     1      36.814 -25.443 -12.149  0.00  0.00    -0.273 N 
ATOM     20  C   UNL     1      36.110 -24.225 -12.166  0.00  0.00    +0.249 C 
ATOM     21  C   UNL     1      37.055 -26.219 -13.364  0.00  0.00    +0.115 C 
ATOM     22  C   UNL     1      37.350 -26.013 -10.921  0.00  0.00    +0.115 C 
ENDBRANCH   9  20
BRANCH   3  23
ATOM     23  C   UNL     1      32.357 -23.833 -15.379  0.00  0.00    +0.095 C 
ATOM     24  C   UNL     1      31.621 -24.701 -14.348  0.00  0.00    +0.026 C 
BRANCH  23  25
ATOM     25  N   UNL     1      31.590 -22.611 -15.571  0.00  0.00    -0.330 N 
ATOM     26  H   UNL     1      32.081 -21.769 -15.711  0.00  0.00    +0.147 HD
BRANCH  25  29
ATOM     27  F   UNL     1      27.498 -20.984 -13.740  0.00  0.00    -0.204 F 
ATOM     28  F   UNL     1      27.405 -24.008 -17.383  0.00  0.00    -0.204 F 
ATOM     29  C   UNL     1      30.212 -22.574 -15.567  0.00  0.00    +0.049 C 
ATOM     30  C   UNL     1      29.491 -23.326 -16.494  0.00  0.00    +0.044 C 
ATOM     31  C   UNL     1      29.538 -21.784 -14.636  0.00  0.00    +0.044 C 
ATOM     32  C   UNL     1      28.144 -21.744 -14.633  0.00  0.00    +0.144 C 
ATOM     33  C   UNL     1      28.097 -23.286 -16.492  0.00  0.00    +0.144 C 
ATOM     34  C   UNL     1      27.424 -22.496 -15.561  0.00  0.00    +0.059 C 
ENDBRANCH  25  29
ENDBRANCH  23  25
ENDBRANCH   3  23
TORSDOF 5
ENDMDL
MODEL 8
REMARK VINA RESULT:      -9.7      3.291      6.748
REMARK  Name = 52913813
REMARK  5 active torsions:
REMARK  status: ('A' for Active; 'I' for Inactive)
REMARK    1  A    between atoms: C_3  and  C_23
REMARK    2  A    between atoms: C_5  and  N_13
REMARK    3  A    between atoms: C_9  and  C_20
REMARK    4  A    between atoms: C_23  and  N_25
REMARK    5  A    between atoms: N_25  and  C_29
REMARK                            x       y       z     vdW  Elec       q    Type
REMARK                         _______ _______ _______ _____ _____    ______ ____
ROOT
ATOM      1  O   UNL     1      35.162 -22.528 -16.619  0.00  0.00    -0.440 OA
ATOM      2  O   UNL     1      37.738 -19.463 -17.345  0.00  0.00    -0.286 OA
ATOM      3  C   UNL     1      33.898 -22.025 -18.548  0.00  0.00    +0.030 C 
ATOM      4  C   UNL     1      34.981 -21.731 -17.720  0.00  0.00    +0.147 C 
ATOM      5  C   UNL     1      36.229 -22.269 -15.765  0.00  0.00    +0.202 C 
ATOM      6  C   UNL     1      35.823 -20.665 -18.030  0.00  0.00    +0.074 C 
ATOM      7  C   UNL     1      33.662 -21.250 -19.685  0.00  0.00    +0.005 C 
ATOM      8  C   UNL     1      37.101 -21.268 -15.970  0.00  0.00    +0.096 C 
ATOM      9  C   UNL     1      34.507 -20.183 -19.992  0.00  0.00    +0.054 C 
ATOM     10  C   UNL     1      36.956 -20.380 -17.139  0.00  0.00    +0.203 C 
ATOM     11  C   UNL     1      35.591 -19.886 -19.166  0.00  0.00    +0.011 C 
ENDROOT
BRANCH   5  13
ATOM     12  O   UNL     1      36.000 -25.194 -12.845  0.00  0.00    -0.350 OA
ATOM     13  N   UNL     1      36.322 -23.115 -14.700  0.00  0.00    -0.274 N 
ATOM     14  C   UNL     1      37.285 -24.217 -14.656  0.00  0.00    +0.126 C 
ATOM     15  C   UNL     1      35.610 -22.876 -13.445  0.00  0.00    +0.126 C 
ATOM     16  C   UNL     1      36.597 -25.465 -14.117  0.00  0.00    +0.164 C 
ATOM     17  C   UNL     1      34.995 -24.184 -12.959  0.00  0.00    +0.164 C 
ENDBRANCH   5  13
BRANCH   9  20
ATOM     18  O   UNL     1      33.135 -19.473 -21.693  0.00  0.00    -0.270 OA
ATOM     19  N   UNL     1      35.275 -18.535 -21.658  0.00  0.00    -0.273 N 
ATOM     20  C   UNL     1      34.256 -19.377 -21.177  0.00  0.00    +0.249 C 
ATOM     21  C   UNL     1      36.585 -18.455 -21.014  0.00  0.00    +0.115 C 
ATOM     22  C   UNL     1      35.095 -17.688 -22.828  0.00  0.00    +0.115 C 
ENDBRANCH   9  20
BRANCH   3  23
ATOM     23  C   UNL     1      32.979 -23.161 -18.242  0.00  0.00    +0.095 C 
ATOM     24  C   UNL     1      33.366 -24.476 -18.935  0.00  0.00    +0.026 C 
BRANCH  23  25
ATOM     25  N   UNL     1      32.911 -23.408 -16.809  0.00  0.00    -0.330 N 
ATOM     26  H   UNL     1      33.674 -23.856 -16.375  0.00  0.00    +0.147 HD
BRANCH  25  29
ATOM     27  F   UNL     1      30.978 -22.656 -12.514  0.00  0.00    -0.204 F 
ATOM     28  F   UNL     1      28.379 -21.975 -16.414  0.00  0.00    -0.204 F 
ATOM     29  C   UNL     1      31.834 -23.046 -16.028  0.00  0.00    +0.049 C 
ATOM     30  C   UNL     1      30.626 -22.688 -16.628  0.00  0.00    +0.044 C 
ATOM     31  C   UNL     1      31.952 -23.035 -14.639  0.00  0.00    +0.044 C 
ATOM     32  C   UNL     1      30.864 -22.667 -13.848  0.00  0.00    +0.144 C 
ATOM     33  C   UNL     1      29.538 -22.319 -15.838  0.00  0.00    +0.144 C 
ATOM     34  C   UNL     1      29.657 -22.309 -14.448  0.00  0.00    +0.059 C 
ENDBRANCH  25  29
ENDBRANCH  23  25
ENDBRANCH   3  23
TORSDOF 5
ENDMDL
MODEL 9
REMARK VINA RESULT:      -9.6      3.356      6.621
REMARK  Name = 52913813
REMARK  5 active torsions:
REMARK  status: ('A' for Active; 'I' for Inactive)
REMARK    1  A    between atoms: C_3  and  C_23
REMARK    2  A    between atoms: C_5  and  N_13
REMARK    3  A    between atoms: C_9  and  C_20
REMARK    4  A    between atoms: C_23  and  N_25
REMARK    5  A    between atoms: N_25  and  C_29
REMARK                            x       y       z     vdW  Elec       q    Type
REMARK                         _______ _______ _______ _____ _____    ______ ____
ROOT
ATOM      1  O   UNL     1      34.981 -23.019 -15.035  0.00  0.00    -0.440 OA
ATOM      2  O   UNL     1      37.842 -20.755 -16.837  0.00  0.00    -0.286 OA
ATOM      3  C   UNL     1      33.439 -22.590 -16.770  0.00  0.00    +0.030 C 
ATOM      4  C   UNL     1      34.711 -22.401 -16.229  0.00  0.00    +0.147 C 
ATOM      5  C   UNL     1      36.236 -22.857 -14.459  0.00  0.00    +0.202 C 
ATOM      6  C   UNL     1      35.641 -21.612 -16.900  0.00  0.00    +0.074 C 
ATOM      7  C   UNL     1      33.104 -21.987 -17.983  0.00  0.00    +0.005 C 
ATOM      8  C   UNL     1      37.208 -22.119 -15.022  0.00  0.00    +0.096 C 
ATOM      9  C   UNL     1      34.037 -21.196 -18.653  0.00  0.00    +0.054 C 
ATOM     10  C   UNL     1      36.973 -21.432 -16.307  0.00  0.00    +0.203 C 
ATOM     11  C   UNL     1      35.310 -21.006 -18.115  0.00  0.00    +0.011 C 
ENDROOT
BRANCH   5  13
ATOM     12  O   UNL     1      36.247 -25.261 -11.090  0.00  0.00    -0.350 OA
ATOM     13  N   UNL     1      36.407 -23.509 -13.274  0.00  0.00    -0.274 N 
ATOM     14  C   UNL     1      37.419 -24.551 -13.092  0.00  0.00    +0.126 C 
ATOM     15  C   UNL     1      35.732 -23.092 -12.045  0.00  0.00    +0.126 C 
ATOM     16  C   UNL     1      36.807 -25.717 -12.324  0.00  0.00    +0.164 C 
ATOM     17  C   UNL     1      35.195 -24.322 -11.324  0.00  0.00    +0.164 C 
ENDBRANCH   5  13
BRANCH   9  20
ATOM     18  O   UNL     1      32.504 -20.667 -20.280  0.00  0.00    -0.270 OA
ATOM     19  N   UNL     1      34.676 -19.883 -20.640  0.00  0.00    -0.273 N 
ATOM     20  C   UNL     1      33.683 -20.569 -19.917  0.00  0.00    +0.249 C 
ATOM     21  C   UNL     1      36.057 -19.793 -20.171  0.00  0.00    +0.115 C 
ATOM     22  C   UNL     1      34.395 -19.217 -21.904  0.00  0.00    +0.115 C 
ENDBRANCH   9  20
BRANCH   3  23
ATOM     23  C   UNL     1      32.421 -23.431 -16.072  0.00  0.00    +0.095 C 
ATOM     24  C   UNL     1      32.131 -22.986 -14.631  0.00  0.00    +0.026 C 
BRANCH  23  25
ATOM     25  N   UNL     1      31.162 -23.443 -16.803  0.00  0.00    -0.330 N 
ATOM     26  H   UNL     1      31.193 -23.454 -17.787  0.00  0.00    +0.147 HD
BRANCH  25  29
ATOM     27  F   UNL     1      27.962 -25.514 -13.936  0.00  0.00    -0.204 F 
ATOM     28  F   UNL     1      26.959 -21.350 -15.956  0.00  0.00    -0.204 F 
ATOM     29  C   UNL     1      29.928 -23.440 -16.186  0.00  0.00    +0.049 C 
ATOM     30  C   UNL     1      29.049 -22.376 -16.388  0.00  0.00    +0.044 C 
ATOM     31  C   UNL     1      29.560 -24.500 -15.358  0.00  0.00    +0.044 C 
ATOM     32  C   UNL     1      28.315 -24.497 -14.732  0.00  0.00    +0.144 C 
ATOM     33  C   UNL     1      27.803 -22.372 -15.762  0.00  0.00    +0.144 C 
ATOM     34  C   UNL     1      27.436 -23.433 -14.934  0.00  0.00    +0.059 C 
ENDBRANCH  25  29
ENDBRANCH  23  25
ENDBRANCH   3  23
TORSDOF 5
ENDMDL
