MODEL 1
REMARK VINA RESULT:     -11.7      0.000      0.000
REMARK  Name = 447649
REMARK  5 active torsions:
REMARK  status: ('A' for Active; 'I' for Inactive)
REMARK    1  A    between atoms: N_5  and  C_14
REMARK    2  A    between atoms: C_6  and  O_22
REMARK    3  A    between atoms: C_19  and  O_20
REMARK    4  A    between atoms: O_22  and  C_23
REMARK    5  A    between atoms: C_23  and  C_24
REMARK                            x       y       z     vdW  Elec       q    Type
REMARK                         _______ _______ _______ _____ _____    ______ ____
ROOT
ATOM      1  N   UNL     1      34.448 -23.365 -16.261  0.00  0.00    -0.293 NA
ATOM      2  N   UNL     1      31.065 -22.251 -17.180  0.00  0.00    -0.266 NA
ATOM      3  N   UNL     1      32.776 -23.707 -14.517  0.00  0.00    -0.316 NA
ATOM      4  N   UNL     1      30.545 -22.967 -15.134  0.00  0.00    -0.296 N 
ATOM      5  N   UNL     1      35.010 -24.325 -14.200  0.00  0.00    -0.238 N 
ATOM      6  C   UNL     1      33.530 -22.826 -17.093  0.00  0.00    +0.288 C 
ATOM      7  C   UNL     1      32.229 -22.723 -16.645  0.00  0.00    +0.215 C 
ATOM      8  C   UNL     1      31.880 -23.162 -15.375  0.00  0.00    +0.196 C 
ATOM      9  C   UNL     1      34.020 -23.766 -15.040  0.00  0.00    +0.207 C 
ATOM     10  C   UNL     1      30.084 -22.418 -16.239  0.00  0.00    +0.164 C 
ATOM     11  H   UNL     1      30.951 -21.862 -18.078  0.00  0.00    +0.126 HD
ATOM     12  H   UNL     1      30.041 -23.189 -14.318  0.00  0.00    +0.150 HD
ATOM     13  H   UNL     1      34.670 -24.608 -13.320  0.00  0.00    +0.166 HD
ENDROOT
BRANCH   5  14
ATOM     14  C   UNL     1      36.386 -24.553 -14.376  0.00  0.00    +0.059 C 
ATOM     15  C   UNL     1      37.241 -23.489 -14.674  0.00  0.00    +0.018 C 
ATOM     16  C   UNL     1      36.906 -25.844 -14.255  0.00  0.00    +0.018 C 
ATOM     17  C   UNL     1      38.606 -23.715 -14.850  0.00  0.00    +0.038 C 
ATOM     18  C   UNL     1      38.271 -26.070 -14.431  0.00  0.00    +0.038 C 
ATOM     19  C   UNL     1      39.121 -25.006 -14.728  0.00  0.00    +0.134 C 
BRANCH  19  20
ATOM     20  O   UNL     1      40.453 -25.226 -14.898  0.00  0.00    -0.506 OA
ATOM     21  H   UNL     1      40.986 -24.578 -15.315  0.00  0.00    +0.292 HD
ENDBRANCH  19  20
ENDBRANCH   5  14
BRANCH   6  22
ATOM     22  O   UNL     1      33.931 -22.407 -18.339  0.00  0.00    -0.453 OA
BRANCH  22  23
ATOM     23  C   UNL     1      35.107 -21.623 -18.406  0.00  0.00    +0.208 C 
BRANCH  23  24
ATOM     24  C   UNL     1      35.096 -20.847 -19.722  0.00  0.00    +0.044 C 
ATOM     25  C   UNL     1      33.704 -20.263 -19.996  0.00  0.00    +0.004 C 
ATOM     26  C   UNL     1      36.160 -19.741 -19.708  0.00  0.00    +0.004 C 
ATOM     27  C   UNL     1      33.681 -19.437 -21.281  0.00  0.00    +0.000 C 
ATOM     28  C   UNL     1      36.133 -18.916 -20.992  0.00  0.00    +0.000 C 
ATOM     29  C   UNL     1      34.745 -18.345 -21.265  0.00  0.00    +0.000 C 
ENDBRANCH  23  24
ENDBRANCH  22  23
ENDBRANCH   6  22
TORSDOF 5
ENDMDL
MODEL 2
REMARK VINA RESULT:     -11.7      2.182      5.918
REMARK  Name = 447649
REMARK  5 active torsions:
REMARK  status: ('A' for Active; 'I' for Inactive)
REMARK    1  A    between atoms: N_5  and  C_14
REMARK    2  A    between atoms: C_6  and  O_22
REMARK    3  A    between atoms: C_19  and  O_20
REMARK    4  A    between atoms: O_22  and  C_23
REMARK    5  A    between atoms: C_23  and  C_24
REMARK                            x       y       z     vdW  Elec       q    Type
REMARK                         _______ _______ _______ _____ _____    ______ ____
ROOT
ATOM      1  N   UNL     1      33.328 -23.210 -15.327  0.00  0.00    -0.293 NA
ATOM      2  N   UNL     1      37.004 -23.307 -15.245  0.00  0.00    -0.266 NA
ATOM      3  N   UNL     1      34.256 -24.174 -13.287  0.00  0.00    -0.316 NA
ATOM      4  N   UNL     1      36.685 -24.234 -13.243  0.00  0.00    -0.296 N 
ATOM      5  N   UNL     1      31.945 -23.990 -13.604  0.00  0.00    -0.238 N 
ATOM      6  C   UNL     1      34.561 -22.994 -15.835  0.00  0.00    +0.288 C 
ATOM      7  C   UNL     1      35.650 -23.365 -15.075  0.00  0.00    +0.215 C 
ATOM      8  C   UNL     1      35.478 -23.944 -13.824  0.00  0.00    +0.196 C 
ATOM      9  C   UNL     1      33.253 -23.780 -14.101  0.00  0.00    +0.207 C 
ATOM     10  C   UNL     1      37.582 -23.838 -14.123  0.00  0.00    +0.164 C 
ATOM     11  H   UNL     1      37.478 -22.949 -16.031  0.00  0.00    +0.126 HD
ATOM     12  H   UNL     1      36.847 -24.645 -12.364  0.00  0.00    +0.150 HD
ATOM     13  H   UNL     1      31.922 -24.404 -12.712  0.00  0.00    +0.166 HD
ENDROOT
BRANCH   5  14
ATOM     14  C   UNL     1      30.673 -23.722 -14.139  0.00  0.00    +0.059 C 
ATOM     15  C   UNL     1      29.838 -24.775 -14.524  0.00  0.00    +0.018 C 
ATOM     16  C   UNL     1      30.236 -22.404 -14.289  0.00  0.00    +0.018 C 
ATOM     17  C   UNL     1      28.576 -24.510 -15.055  0.00  0.00    +0.038 C 
ATOM     18  C   UNL     1      28.974 -22.139 -14.820  0.00  0.00    +0.038 C 
ATOM     19  C   UNL     1      28.144 -23.192 -15.203  0.00  0.00    +0.134 C 
BRANCH  19  20
ATOM     20  O   UNL     1      26.912 -22.934 -15.720  0.00  0.00    -0.506 OA
ATOM     21  H   UNL     1      26.827 -22.637 -16.604  0.00  0.00    +0.292 HD
ENDBRANCH  19  20
ENDBRANCH   5  14
BRANCH   6  22
ATOM     22  O   UNL     1      34.673 -22.418 -17.078  0.00  0.00    -0.453 OA
BRANCH  22  23
ATOM     23  C   UNL     1      33.507 -22.389 -17.880  0.00  0.00    +0.208 C 
BRANCH  23  24
ATOM     24  C   UNL     1      33.835 -21.661 -19.183  0.00  0.00    +0.044 C 
ATOM     25  C   UNL     1      32.752 -20.626 -19.513  0.00  0.00    +0.004 C 
ATOM     26  C   UNL     1      35.217 -20.998 -19.100  0.00  0.00    +0.004 C 
ATOM     27  C   UNL     1      33.085 -19.848 -20.785  0.00  0.00    +0.000 C 
ATOM     28  C   UNL     1      35.546 -20.219 -20.371  0.00  0.00    +0.000 C 
ATOM     29  C   UNL     1      34.462 -19.198 -20.701  0.00  0.00    +0.000 C 
ENDBRANCH  23  24
ENDBRANCH  22  23
ENDBRANCH   6  22
TORSDOF 5
ENDMDL
MODEL 3
REMARK VINA RESULT:     -11.4      1.477      2.366
REMARK  Name = 447649
REMARK  5 active torsions:
REMARK  status: ('A' for Active; 'I' for Inactive)
REMARK    1  A    between atoms: N_5  and  C_14
REMARK    2  A    between atoms: C_6  and  O_22
REMARK    3  A    between atoms: C_19  and  O_20
REMARK    4  A    between atoms: O_22  and  C_23
REMARK    5  A    between atoms: C_23  and  C_24
REMARK                            x       y       z     vdW  Elec       q    Type
REMARK                         _______ _______ _______ _____ _____    ______ ____
ROOT
ATOM      1  N   UNL     1      32.449 -23.100 -15.685  0.00  0.00    -0.293 NA
ATOM      2  N   UNL     1      28.919 -22.613 -16.596  0.00  0.00    -0.266 NA
ATOM      3  N   UNL     1      30.866 -23.963 -14.042  0.00  0.00    -0.316 NA
ATOM      4  N   UNL     1      28.536 -23.636 -14.653  0.00  0.00    -0.296 N 
ATOM      5  N   UNL     1      33.176 -24.140 -13.716  0.00  0.00    -0.238 N 
ATOM      6  C   UNL     1      31.448 -22.675 -16.488  0.00  0.00    +0.288 C 
ATOM      7  C   UNL     1      30.150 -22.890 -16.074  0.00  0.00    +0.215 C 
ATOM      8  C   UNL     1      29.886 -23.525 -14.868  0.00  0.00    +0.196 C 
ATOM      9  C   UNL     1      32.100 -23.710 -14.527  0.00  0.00    +0.207 C 
ATOM     10  C   UNL     1      27.984 -23.078 -15.710  0.00  0.00    +0.164 C 
ATOM     11  H   UNL     1      28.737 -22.161 -17.452  0.00  0.00    +0.126 HD
ATOM     12  H   UNL     1      28.081 -24.043 -13.881  0.00  0.00    +0.150 HD
ATOM     13  H   UNL     1      32.893 -24.580 -12.883  0.00  0.00    +0.166 HD
ENDROOT
BRANCH   5  14
ATOM     14  C   UNL     1      34.571 -24.061 -13.870  0.00  0.00    +0.059 C 
ATOM     15  C   UNL     1      35.245 -25.001 -14.653  0.00  0.00    +0.018 C 
ATOM     16  C   UNL     1      35.290 -23.042 -13.240  0.00  0.00    +0.018 C 
ATOM     17  C   UNL     1      36.630 -24.923 -14.804  0.00  0.00    +0.038 C 
ATOM     18  C   UNL     1      36.674 -22.964 -13.391  0.00  0.00    +0.038 C 
ATOM     19  C   UNL     1      37.345 -23.904 -14.174  0.00  0.00    +0.134 C 
BRANCH  19  20
ATOM     20  O   UNL     1      38.695 -23.827 -14.323  0.00  0.00    -0.506 OA
ATOM     21  H   UNL     1      39.075 -23.120 -14.806  0.00  0.00    +0.292 HD
ENDBRANCH  19  20
ENDBRANCH   5  14
BRANCH   6  22
ATOM     22  O   UNL     1      31.768 -22.051 -17.670  0.00  0.00    -0.453 OA
BRANCH  22  23
ATOM     23  C   UNL     1      32.998 -22.405 -18.272  0.00  0.00    +0.208 C 
BRANCH  23  24
ATOM     24  C   UNL     1      33.633 -21.143 -18.854  0.00  0.00    +0.044 C 
ATOM     25  C   UNL     1      35.079 -21.415 -19.290  0.00  0.00    +0.004 C 
ATOM     26  C   UNL     1      32.799 -20.610 -20.027  0.00  0.00    +0.004 C 
ATOM     27  C   UNL     1      35.717 -20.180 -19.924  0.00  0.00    +0.000 C 
ATOM     28  C   UNL     1      33.441 -19.378 -20.660  0.00  0.00    +0.000 C 
ATOM     29  C   UNL     1      34.881 -19.649 -21.084  0.00  0.00    +0.000 C 
ENDBRANCH  23  24
ENDBRANCH  22  23
ENDBRANCH   6  22
TORSDOF 5
ENDMDL
MODEL 4
REMARK VINA RESULT:     -11.3      2.024      6.523
REMARK  Name = 447649
REMARK  5 active torsions:
REMARK  status: ('A' for Active; 'I' for Inactive)
REMARK    1  A    between atoms: N_5  and  C_14
REMARK    2  A    between atoms: C_6  and  O_22
REMARK    3  A    between atoms: C_19  and  O_20
REMARK    4  A    between atoms: O_22  and  C_23
REMARK    5  A    between atoms: C_23  and  C_24
REMARK                            x       y       z     vdW  Elec       q    Type
REMARK                         _______ _______ _______ _____ _____    ______ ____
ROOT
ATOM      1  N   UNL     1      33.271 -22.581 -16.036  0.00  0.00    -0.293 NA
ATOM      2  N   UNL     1      32.071 -24.366 -13.053  0.00  0.00    -0.266 NA
ATOM      3  N   UNL     1      30.929 -23.255 -16.151  0.00  0.00    -0.316 NA
ATOM      4  N   UNL     1      30.146 -24.434 -14.175  0.00  0.00    -0.296 N 
ATOM      5  N   UNL     1      31.952 -22.104 -17.912  0.00  0.00    -0.238 N 
ATOM      6  C   UNL     1      33.409 -23.121 -14.805  0.00  0.00    +0.288 C 
ATOM      7  C   UNL     1      32.310 -23.731 -14.238  0.00  0.00    +0.215 C 
ATOM      8  C   UNL     1      31.100 -23.786 -14.917  0.00  0.00    +0.196 C 
ATOM      9  C   UNL     1      32.056 -22.681 -16.626  0.00  0.00    +0.207 C 
ATOM     10  C   UNL     1      30.762 -24.770 -13.061  0.00  0.00    +0.164 C 
ATOM     11  H   UNL     1      32.720 -24.508 -12.326  0.00  0.00    +0.126 HD
ATOM     12  H   UNL     1      29.209 -24.609 -14.420  0.00  0.00    +0.150 HD
ATOM     13  H   UNL     1      31.058 -22.191 -18.315  0.00  0.00    +0.166 HD
ENDROOT
BRANCH   5  14
ATOM     14  C   UNL     1      32.879 -21.431 -18.728  0.00  0.00    +0.059 C 
ATOM     15  C   UNL     1      32.443 -20.448 -19.621  0.00  0.00    +0.018 C 
ATOM     16  C   UNL     1      34.238 -21.741 -18.651  0.00  0.00    +0.018 C 
ATOM     17  C   UNL     1      33.362 -19.782 -20.431  0.00  0.00    +0.038 C 
ATOM     18  C   UNL     1      35.157 -21.075 -19.462  0.00  0.00    +0.038 C 
ATOM     19  C   UNL     1      34.719 -20.094 -20.351  0.00  0.00    +0.134 C 
BRANCH  19  20
ATOM     20  O   UNL     1      35.615 -19.442 -21.141  0.00  0.00    -0.506 OA
ATOM     21  H   UNL     1      36.037 -19.895 -21.845  0.00  0.00    +0.292 HD
ENDBRANCH  19  20
ENDBRANCH   5  14
BRANCH   6  22
ATOM     22  O   UNL     1      34.630 -23.038 -14.180  0.00  0.00    -0.453 OA
BRANCH  22  23
ATOM     23  C   UNL     1      35.758 -22.801 -15.000  0.00  0.00    +0.208 C 
BRANCH  23  24
ATOM     24  C   UNL     1      36.768 -23.923 -14.769  0.00  0.00    +0.044 C 
ATOM     25  C   UNL     1      38.186 -23.461 -15.132  0.00  0.00    +0.004 C 
ATOM     26  C   UNL     1      36.709 -24.415 -13.316  0.00  0.00    +0.004 C 
ATOM     27  C   UNL     1      39.221 -24.550 -14.858  0.00  0.00    +0.000 C 
ATOM     28  C   UNL     1      37.747 -25.501 -13.045  0.00  0.00    +0.000 C 
ATOM     29  C   UNL     1      39.153 -25.041 -13.416  0.00  0.00    +0.000 C 
ENDBRANCH  23  24
ENDBRANCH  22  23
ENDBRANCH   6  22
TORSDOF 5
ENDMDL
MODEL 5
REMARK VINA RESULT:     -11.3      2.249      6.178
REMARK  Name = 447649
REMARK  5 active torsions:
REMARK  status: ('A' for Active; 'I' for Inactive)
REMARK    1  A    between atoms: N_5  and  C_14
REMARK    2  A    between atoms: C_6  and  O_22
REMARK    3  A    between atoms: C_19  and  O_20
REMARK    4  A    between atoms: O_22  and  C_23
REMARK    5  A    between atoms: C_23  and  C_24
REMARK                            x       y       z     vdW  Elec       q    Type
REMARK                         _______ _______ _______ _____ _____    ______ ____
ROOT
ATOM      1  N   UNL     1      32.795 -23.233 -15.112  0.00  0.00    -0.293 NA
ATOM      2  N   UNL     1      36.342 -23.434 -14.161  0.00  0.00    -0.266 NA
ATOM      3  N   UNL     1      33.171 -23.905 -12.797  0.00  0.00    -0.316 NA
ATOM      4  N   UNL     1      35.518 -24.036 -12.179  0.00  0.00    -0.296 N 
ATOM      5  N   UNL     1      31.010 -23.697 -13.668  0.00  0.00    -0.238 N 
ATOM      6  C   UNL     1      34.123 -23.136 -15.343  0.00  0.00    +0.288 C 
ATOM      7  C   UNL     1      34.984 -23.422 -14.305  0.00  0.00    +0.215 C 
ATOM      8  C   UNL     1      34.496 -23.799 -13.061  0.00  0.00    +0.196 C 
ATOM      9  C   UNL     1      32.407 -23.607 -13.869  0.00  0.00    +0.207 C 
ATOM     10  C   UNL     1      36.615 -23.807 -12.872  0.00  0.00    +0.164 C 
ATOM     11  H   UNL     1      37.004 -23.215 -14.856  0.00  0.00    +0.126 HD
ATOM     12  H   UNL     1      35.449 -24.313 -11.237  0.00  0.00    +0.150 HD
ATOM     13  H   UNL     1      30.757 -23.970 -12.757  0.00  0.00    +0.166 HD
ENDROOT
BRANCH   5  14
ATOM     14  C   UNL     1      29.912 -23.473 -14.517  0.00  0.00    +0.059 C 
ATOM     15  C   UNL     1      29.382 -22.187 -14.654  0.00  0.00    +0.018 C 
ATOM     16  C   UNL     1      29.345 -24.533 -15.228  0.00  0.00    +0.018 C 
ATOM     17  C   UNL     1      28.292 -21.965 -15.496  0.00  0.00    +0.038 C 
ATOM     18  C   UNL     1      28.255 -24.311 -16.069  0.00  0.00    +0.038 C 
ATOM     19  C   UNL     1      27.729 -23.027 -16.204  0.00  0.00    +0.134 C 
BRANCH  19  20
ATOM     20  O   UNL     1      26.667 -22.809 -17.026  0.00  0.00    -0.506 OA
ATOM     21  H   UNL     1      25.794 -22.879 -16.694  0.00  0.00    +0.292 HD
ENDBRANCH  19  20
ENDBRANCH   5  14
BRANCH   6  22
ATOM     22  O   UNL     1      34.551 -22.759 -16.593  0.00  0.00    -0.453 OA
BRANCH  22  23
ATOM     23  C   UNL     1      33.565 -22.642 -17.602  0.00  0.00    +0.208 C 
BRANCH  23  24
ATOM     24  C   UNL     1      33.838 -21.367 -18.398  0.00  0.00    +0.044 C 
ATOM     25  C   UNL     1      35.237 -21.408 -19.027  0.00  0.00    +0.004 C 
ATOM     26  C   UNL     1      32.762 -21.158 -19.473  0.00  0.00    +0.004 C 
ATOM     27  C   UNL     1      35.513 -20.166 -19.872  0.00  0.00    +0.000 C 
ATOM     28  C   UNL     1      33.042 -19.918 -20.318  0.00  0.00    +0.000 C 
ATOM     29  C   UNL     1      34.437 -19.959 -20.933  0.00  0.00    +0.000 C 
ENDBRANCH  23  24
ENDBRANCH  22  23
ENDBRANCH   6  22
TORSDOF 5
ENDMDL
MODEL 6
REMARK VINA RESULT:     -11.3      2.355      5.629
REMARK  Name = 447649
REMARK  5 active torsions:
REMARK  status: ('A' for Active; 'I' for Inactive)
REMARK    1  A    between atoms: N_5  and  C_14
REMARK    2  A    between atoms: C_6  and  O_22
REMARK    3  A    between atoms: C_19  and  O_20
REMARK    4  A    between atoms: O_22  and  C_23
REMARK    5  A    between atoms: C_23  and  C_24
REMARK                            x       y       z     vdW  Elec       q    Type
REMARK                         _______ _______ _______ _____ _____    ______ ____
ROOT
ATOM      1  N   UNL     1      34.631 -22.659 -16.674  0.00  0.00    -0.293 NA
ATOM      2  N   UNL     1      33.552 -20.948 -19.746  0.00  0.00    -0.266 NA
ATOM      3  N   UNL     1      36.349 -21.259 -17.692  0.00  0.00    -0.316 NA
ATOM      4  N   UNL     1      35.626 -20.133 -19.721  0.00  0.00    -0.296 N 
ATOM      5  N   UNL     1      36.765 -22.462 -15.730  0.00  0.00    -0.238 N 
ATOM      6  C   UNL     1      33.741 -22.343 -17.640  0.00  0.00    +0.288 C 
ATOM      7  C   UNL     1      34.147 -21.482 -18.639  0.00  0.00    +0.215 C 
ATOM      8  C   UNL     1      35.434 -20.961 -18.646  0.00  0.00    +0.196 C 
ATOM      9  C   UNL     1      35.864 -22.106 -16.759  0.00  0.00    +0.207 C 
ATOM     10  C   UNL     1      34.476 -20.147 -20.362  0.00  0.00    +0.164 C 
ATOM     11  H   UNL     1      32.628 -21.110 -20.046  0.00  0.00    +0.126 HD
ATOM     12  H   UNL     1      36.442 -19.636 -19.961  0.00  0.00    +0.150 HD
ATOM     13  H   UNL     1      37.652 -22.044 -15.817  0.00  0.00    +0.166 HD
ENDROOT
BRANCH   5  14
ATOM     14  C   UNL     1      36.640 -23.298 -14.606  0.00  0.00    +0.059 C 
ATOM     15  C   UNL     1      37.076 -24.624 -14.667  0.00  0.00    +0.018 C 
ATOM     16  C   UNL     1      36.079 -22.809 -13.424  0.00  0.00    +0.018 C 
ATOM     17  C   UNL     1      36.952 -25.454 -13.554  0.00  0.00    +0.038 C 
ATOM     18  C   UNL     1      35.955 -23.639 -12.311  0.00  0.00    +0.038 C 
ATOM     19  C   UNL     1      36.392 -24.962 -12.375  0.00  0.00    +0.134 C 
BRANCH  19  20
ATOM     20  O   UNL     1      36.272 -25.772 -11.288  0.00  0.00    -0.506 OA
ATOM     21  H   UNL     1      36.283 -26.703 -11.393  0.00  0.00    +0.292 HD
ENDBRANCH  19  20
ENDBRANCH   5  14
BRANCH   6  22
ATOM     22  O   UNL     1      32.481 -22.888 -17.585  0.00  0.00    -0.453 OA
BRANCH  22  23
ATOM     23  C   UNL     1      31.591 -22.356 -16.622  0.00  0.00    +0.208 C 
BRANCH  23  24
ATOM     24  C   UNL     1      31.219 -23.466 -15.641  0.00  0.00    +0.044 C 
ATOM     25  C   UNL     1      32.073 -23.374 -14.369  0.00  0.00    +0.004 C 
ATOM     26  C   UNL     1      29.723 -23.409 -15.300  0.00  0.00    +0.004 C 
ATOM     27  C   UNL     1      31.682 -24.443 -13.350  0.00  0.00    +0.000 C 
ATOM     28  C   UNL     1      29.336 -24.476 -14.279  0.00  0.00    +0.000 C 
ATOM     29  C   UNL     1      30.194 -24.388 -13.021  0.00  0.00    +0.000 C 
ENDBRANCH  23  24
ENDBRANCH  22  23
ENDBRANCH   6  22
TORSDOF 5
ENDMDL
MODEL 7
REMARK VINA RESULT:     -11.2      7.133     10.526
REMARK  Name = 447649
REMARK  5 active torsions:
REMARK  status: ('A' for Active; 'I' for Inactive)
REMARK    1  A    between atoms: N_5  and  C_14
REMARK    2  A    between atoms: C_6  and  O_22
REMARK    3  A    between atoms: C_19  and  O_20
REMARK    4  A    between atoms: O_22  and  C_23
REMARK    5  A    between atoms: C_23  and  C_24
REMARK                            x       y       z     vdW  Elec       q    Type
REMARK                         _______ _______ _______ _____ _____    ______ ____
ROOT
ATOM      1  N   UNL     1      34.016 -15.571 -22.350  0.00  0.00    -0.293 NA
ATOM      2  N   UNL     1      32.861 -12.629 -24.229  0.00  0.00    -0.266 NA
ATOM      3  N   UNL     1      33.662 -15.982 -24.728  0.00  0.00    -0.316 NA
ATOM      4  N   UNL     1      32.899 -14.031 -25.960  0.00  0.00    -0.296 N 
ATOM      5  N   UNL     1      34.397 -17.680 -23.296  0.00  0.00    -0.238 N 
ATOM      6  C   UNL     1      33.645 -14.278 -22.475  0.00  0.00    +0.288 C 
ATOM      7  C   UNL     1      33.280 -13.827 -23.726  0.00  0.00    +0.215 C 
ATOM      8  C   UNL     1      33.295 -14.681 -24.820  0.00  0.00    +0.196 C 
ATOM      9  C   UNL     1      34.001 -16.333 -23.469  0.00  0.00    +0.207 C 
ATOM     10  C   UNL     1      32.645 -12.799 -25.571  0.00  0.00    +0.164 C 
ATOM     11  H   UNL     1      32.736 -11.794 -23.720  0.00  0.00    +0.126 HD
ATOM     12  H   UNL     1      32.822 -14.402 -26.869  0.00  0.00    +0.150 HD
ATOM     13  H   UNL     1      34.377 -18.209 -24.126  0.00  0.00    +0.166 HD
ENDROOT
BRANCH   5  14
ATOM     14  C   UNL     1      34.811 -18.410 -22.168  0.00  0.00    +0.059 C 
ATOM     15  C   UNL     1      33.926 -19.289 -21.538  0.00  0.00    +0.018 C 
ATOM     16  C   UNL     1      36.107 -18.261 -21.671  0.00  0.00    +0.018 C 
ATOM     17  C   UNL     1      34.336 -20.013 -20.418  0.00  0.00    +0.038 C 
ATOM     18  C   UNL     1      36.517 -18.984 -20.552  0.00  0.00    +0.038 C 
ATOM     19  C   UNL     1      35.632 -19.861 -19.925  0.00  0.00    +0.134 C 
BRANCH  19  20
ATOM     20  O   UNL     1      36.032 -20.568 -18.834  0.00  0.00    -0.506 OA
ATOM     21  H   UNL     1      36.934 -20.798 -18.728  0.00  0.00    +0.292 HD
ENDBRANCH  19  20
ENDBRANCH   5  14
BRANCH   6  22
ATOM     22  O   UNL     1      33.647 -13.478 -21.358  0.00  0.00    -0.453 OA
BRANCH  22  23
ATOM     23  C   UNL     1      32.396 -13.217 -20.751  0.00  0.00    +0.208 C 
BRANCH  23  24
ATOM     24  C   UNL     1      32.137 -11.713 -20.804  0.00  0.00    +0.044 C 
ATOM     25  C   UNL     1      31.039 -11.387 -21.825  0.00  0.00    +0.004 C 
ATOM     26  C   UNL     1      31.766 -11.177 -19.414  0.00  0.00    +0.004 C 
ATOM     27  C   UNL     1      30.725  -9.892 -21.858  0.00  0.00    +0.000 C 
ATOM     28  C   UNL     1      31.451  -9.684 -19.450  0.00  0.00    +0.000 C 
ATOM     29  C   UNL     1      30.365  -9.363 -20.474  0.00  0.00    +0.000 C 
ENDBRANCH  23  24
ENDBRANCH  22  23
ENDBRANCH   6  22
TORSDOF 5
ENDMDL
MODEL 8
REMARK VINA RESULT:     -10.9      2.541      6.874
REMARK  Name = 447649
REMARK  5 active torsions:
REMARK  status: ('A' for Active; 'I' for Inactive)
REMARK    1  A    between atoms: N_5  and  C_14
REMARK    2  A    between atoms: C_6  and  O_22
REMARK    3  A    between atoms: C_19  and  O_20
REMARK    4  A    between atoms: O_22  and  C_23
REMARK    5  A    between atoms: C_23  and  C_24
REMARK                            x       y       z     vdW  Elec       q    Type
REMARK                         _______ _______ _______ _____ _____    ______ ____
ROOT
ATOM      1  N   UNL     1      33.233 -22.344 -16.839  0.00  0.00    -0.293 NA
ATOM      2  N   UNL     1      35.314 -20.964 -19.540  0.00  0.00    -0.266 NA
ATOM      3  N   UNL     1      31.964 -21.328 -18.657  0.00  0.00    -0.316 NA
ATOM      4  N   UNL     1      33.347 -20.419 -20.436  0.00  0.00    -0.296 N 
ATOM      5  N   UNL     1      30.892 -22.284 -16.810  0.00  0.00    -0.238 N 
ATOM      6  C   UNL     1      34.408 -22.058 -17.443  0.00  0.00    +0.288 C 
ATOM      7  C   UNL     1      34.369 -21.405 -18.658  0.00  0.00    +0.215 C 
ATOM      8  C   UNL     1      33.157 -21.056 -19.237  0.00  0.00    +0.196 C 
ATOM      9  C   UNL     1      32.099 -21.966 -17.475  0.00  0.00    +0.207 C 
ATOM     10  C   UNL     1      34.655 -20.380 -20.589  0.00  0.00    +0.164 C 
ATOM     11  H   UNL     1      36.290 -21.049 -19.440  0.00  0.00    +0.126 HD
ATOM     12  H   UNL     1      32.660 -20.069 -21.049  0.00  0.00    +0.150 HD
ATOM     13  H   UNL     1      30.085 -21.998 -17.295  0.00  0.00    +0.166 HD
ENDROOT
BRANCH   5  14
ATOM     14  C   UNL     1      30.622 -22.927 -15.590  0.00  0.00    +0.059 C 
ATOM     15  C   UNL     1      31.073 -22.373 -14.389  0.00  0.00    +0.018 C 
ATOM     16  C   UNL     1      29.902 -24.124 -15.571  0.00  0.00    +0.018 C 
ATOM     17  C   UNL     1      30.806 -23.011 -13.178  0.00  0.00    +0.038 C 
ATOM     18  C   UNL     1      29.635 -24.763 -14.360  0.00  0.00    +0.038 C 
ATOM     19  C   UNL     1      30.086 -24.206 -13.163  0.00  0.00    +0.134 C 
BRANCH  19  20
ATOM     20  O   UNL     1      29.824 -24.828 -11.982  0.00  0.00    -0.506 OA
ATOM     21  H   UNL     1      30.221 -25.654 -11.788  0.00  0.00    +0.292 HD
ENDBRANCH  19  20
ENDBRANCH   5  14
BRANCH   6  22
ATOM     22  O   UNL     1      35.578 -22.427 -16.825  0.00  0.00    -0.453 OA
BRANCH  22  23
ATOM     23  C   UNL     1      35.592 -22.403 -15.410  0.00  0.00    +0.208 C 
BRANCH  23  24
ATOM     24  C   UNL     1      36.446 -23.569 -14.915  0.00  0.00    +0.044 C 
ATOM     25  C   UNL     1      36.980 -23.290 -13.504  0.00  0.00    +0.004 C 
ATOM     26  C   UNL     1      35.645 -24.878 -14.948  0.00  0.00    +0.004 C 
ATOM     27  C   UNL     1      37.793 -24.466 -12.967  0.00  0.00    +0.000 C 
ATOM     28  C   UNL     1      36.459 -26.051 -14.408  0.00  0.00    +0.000 C 
ATOM     29  C   UNL     1      36.996 -25.766 -13.008  0.00  0.00    +0.000 C 
ENDBRANCH  23  24
ENDBRANCH  22  23
ENDBRANCH   6  22
TORSDOF 5
ENDMDL
MODEL 9
REMARK VINA RESULT:     -10.8      2.501      6.952
REMARK  Name = 447649
REMARK  5 active torsions:
REMARK  status: ('A' for Active; 'I' for Inactive)
REMARK    1  A    between atoms: N_5  and  C_14
REMARK    2  A    between atoms: C_6  and  O_22
REMARK    3  A    between atoms: C_19  and  O_20
REMARK    4  A    between atoms: O_22  and  C_23
REMARK    5  A    between atoms: C_23  and  C_24
REMARK                            x       y       z     vdW  Elec       q    Type
REMARK                         _______ _______ _______ _____ _____    ______ ____
ROOT
ATOM      1  N   UNL     1      34.895 -23.167 -15.529  0.00  0.00    -0.293 NA
ATOM      2  N   UNL     1      35.805 -24.986 -12.464  0.00  0.00    -0.266 NA
ATOM      3  N   UNL     1      37.277 -23.110 -15.004  0.00  0.00    -0.316 NA
ATOM      4  N   UNL     1      37.867 -24.315 -12.977  0.00  0.00    -0.296 N 
ATOM      5  N   UNL     1      36.422 -22.035 -16.898  0.00  0.00    -0.238 N 
ATOM      6  C   UNL     1      34.629 -23.914 -14.434  0.00  0.00    +0.288 C 
ATOM      7  C   UNL     1      35.684 -24.265 -13.617  0.00  0.00    +0.215 C 
ATOM      8  C   UNL     1      36.978 -23.859 -13.915  0.00  0.00    +0.196 C 
ATOM      9  C   UNL     1      36.186 -22.816 -15.742  0.00  0.00    +0.207 C 
ATOM     10  C   UNL     1      37.130 -24.988 -12.119  0.00  0.00    +0.164 C 
ATOM     11  H   UNL     1      35.073 -25.424 -11.970  0.00  0.00    +0.126 HD
ATOM     12  H   UNL     1      38.841 -24.171 -12.950  0.00  0.00    +0.150 HD
ATOM     13  H   UNL     1      37.368 -21.796 -17.028  0.00  0.00    +0.166 HD
ENDROOT
BRANCH   5  14
ATOM     14  C   UNL     1      35.568 -21.534 -17.895  0.00  0.00    +0.059 C 
ATOM     15  C   UNL     1      36.069 -20.685 -18.886  0.00  0.00    +0.018 C 
ATOM     16  C   UNL     1      34.215 -21.880 -17.902  0.00  0.00    +0.018 C 
ATOM     17  C   UNL     1      35.222 -20.187 -19.875  0.00  0.00    +0.038 C 
ATOM     18  C   UNL     1      33.368 -21.382 -18.891  0.00  0.00    +0.038 C 
ATOM     19  C   UNL     1      33.871 -20.536 -19.879  0.00  0.00    +0.134 C 
BRANCH  19  20
ATOM     20  O   UNL     1      33.045 -20.050 -20.845  0.00  0.00    -0.506 OA
ATOM     21  H   UNL     1      32.516 -20.637 -21.348  0.00  0.00    +0.292 HD
ENDBRANCH  19  20
ENDBRANCH   5  14
BRANCH   6  22
ATOM     22  O   UNL     1      33.330 -24.287 -14.187  0.00  0.00    -0.453 OA
BRANCH  22  23
ATOM     23  C   UNL     1      32.594 -23.490 -13.278  0.00  0.00    +0.208 C 
BRANCH  23  24
ATOM     24  C   UNL     1      31.159 -23.375 -13.789  0.00  0.00    +0.044 C 
ATOM     25  C   UNL     1      31.136 -22.841 -15.227  0.00  0.00    +0.004 C 
ATOM     26  C   UNL     1      30.441 -24.728 -13.697  0.00  0.00    +0.004 C 
ATOM     27  C   UNL     1      29.713 -22.767 -15.778  0.00  0.00    +0.000 C 
ATOM     28  C   UNL     1      29.020 -24.652 -14.251  0.00  0.00    +0.000 C 
ATOM     29  C   UNL     1      29.001 -24.112 -15.677  0.00  0.00    +0.000 C 
ENDBRANCH  23  24
ENDBRANCH  22  23
ENDBRANCH   6  22
TORSDOF 5
ENDMDL
