MODEL 1
REMARK VINA RESULT:     -13.1      0.000      0.000
REMARK  Name = 23650961
REMARK  5 active torsions:
REMARK  status: ('A' for Active; 'I' for Inactive)
REMARK    1  A    between atoms: N_1  and  C_23
REMARK    2  A    between atoms: C_5  and  C_12
REMARK    3  A    between atoms: C_23  and  C_24
REMARK    4  A    between atoms: C_24  and  C_25
REMARK    5  A    between atoms: C_25  and  C_27
REMARK                            x       y       z     vdW  Elec       q    Type
REMARK                         _______ _______ _______ _____ _____    ______ ____
ROOT
ATOM      1  N   UNL     1      34.718 -20.147 -20.442  0.00  0.00    -0.268 N 
ATOM      2  N   UNL     1      33.925 -21.577 -18.759  0.00  0.00    -0.342 NA
ATOM      3  N   UNL     1      36.094 -20.544 -18.584  0.00  0.00    -0.170 NA
ATOM      4  C   UNL     1      34.919 -20.775 -19.223  0.00  0.00    +0.144 C 
ATOM      5  C   UNL     1      35.312 -22.007 -16.839  0.00  0.00    +0.061 C 
ATOM      6  C   UNL     1      34.154 -22.174 -17.571  0.00  0.00    +0.123 C 
ATOM      7  C   UNL     1      36.258 -21.172 -17.401  0.00  0.00    +0.113 C 
ATOM      8  C   UNL     1      33.053 -23.053 -17.072  0.00  0.00    +0.067 C 
ATOM      9  H   UNL     1      33.869 -20.308 -20.912  0.00  0.00    +0.159 HD
ENDROOT
BRANCH   5  12
ATOM     10  N   UNL     1      34.897 -22.265 -14.432  0.00  0.00    -0.314 N 
ATOM     11  N   UNL     1      36.377 -23.646 -15.350  0.00  0.00    -0.315 N 
ATOM     12  C   UNL     1      35.547 -22.649 -15.574  0.00  0.00    +0.171 C 
ATOM     13  C   UNL     1      35.336 -23.065 -13.408  0.00  0.00    +0.059 C 
ATOM     14  C   UNL     1      36.259 -23.918 -14.006  0.00  0.00    +0.055 C 
ATOM     15  C   UNL     1      36.910 -24.884 -13.220  0.00  0.00    -0.008 C 
ATOM     16  C   UNL     1      35.015 -23.114 -12.050  0.00  0.00    +0.011 C 
ATOM     17  C   UNL     1      35.673 -24.080 -11.282  0.00  0.00    -0.021 C 
ATOM     18  C   UNL     1      36.603 -24.950 -11.854  0.00  0.00    -0.007 C 
ATOM     19  C   UNL     1      37.912 -25.836 -13.784  0.00  0.00    +0.032 C 
ATOM     20  C   UNL     1      35.371 -24.183  -9.823  0.00  0.00    +0.031 C 
ATOM     21  H   UNL     1      34.232 -21.544 -14.358  0.00  0.00    +0.149 HD
ATOM     22  H   UNL     1      36.958 -24.100 -16.003  0.00  0.00    +0.149 HD
ENDBRANCH   5  12
BRANCH   1  23
ATOM     23  C   UNL     1      35.682 -19.268 -21.059  0.00  0.00    +0.098 C 
BRANCH  23  24
ATOM     24  C   UNL     1      34.997 -18.305 -22.024  0.00  0.00    +0.022 C 
BRANCH  24  25
ATOM     25  C   UNL     1      34.780 -16.920 -21.412  0.00  0.00    +0.002 C 
BRANCH  25  27
ATOM     26  N   UNL     1      32.952 -14.160 -24.187  0.00  0.00    +0.385 N 
ATOM     27  C   UNL     1      34.645 -15.852 -22.495  0.00  0.00    -0.004 C 
ATOM     28  C   UNL     1      33.924 -14.612 -21.957  0.00  0.00    -0.023 C 
ATOM     29  C   UNL     1      33.898 -16.397 -23.716  0.00  0.00    -0.023 C 
ATOM     30  C   UNL     1      33.695 -13.578 -23.061  0.00  0.00    -0.077 C 
ATOM     31  C   UNL     1      33.671 -15.304 -24.762  0.00  0.00    -0.077 C 
ATOM     32  C   UNL     1      32.697 -13.148 -25.211  0.00  0.00    -0.101 C 
ATOM     33  H   UNL     1      32.057 -14.498 -23.831  0.00  0.00    -0.080 HD
ENDBRANCH  25  27
ENDBRANCH  24  25
ENDBRANCH  23  24
ENDBRANCH   1  23
TORSDOF 5
ENDMDL
MODEL 2
REMARK VINA RESULT:     -12.7      2.181      3.724
REMARK  Name = 23650961
REMARK  5 active torsions:
REMARK  status: ('A' for Active; 'I' for Inactive)
REMARK    1  A    between atoms: N_1  and  C_23
REMARK    2  A    between atoms: C_5  and  C_12
REMARK    3  A    between atoms: C_23  and  C_24
REMARK    4  A    between atoms: C_24  and  C_25
REMARK    5  A    between atoms: C_25  and  C_27
REMARK                            x       y       z     vdW  Elec       q    Type
REMARK                         _______ _______ _______ _____ _____    ______ ____
ROOT
ATOM      1  N   UNL     1      34.776 -18.930 -22.256  0.00  0.00    -0.268 N 
ATOM      2  N   UNL     1      35.294 -20.113 -20.297  0.00  0.00    -0.342 NA
ATOM      3  N   UNL     1      33.009 -19.839 -21.010  0.00  0.00    -0.170 NA
ATOM      4  C   UNL     1      34.346 -19.650 -21.153  0.00  0.00    +0.144 C 
ATOM      5  C   UNL     1      33.504 -21.057 -18.993  0.00  0.00    +0.061 C 
ATOM      6  C   UNL     1      34.841 -20.808 -19.234  0.00  0.00    +0.123 C 
ATOM      7  C   UNL     1      32.624 -20.543 -19.924  0.00  0.00    +0.113 C 
ATOM      8  C   UNL     1      35.893 -21.312 -18.300  0.00  0.00    +0.067 C 
ATOM      9  H   UNL     1      35.743 -18.788 -22.369  0.00  0.00    +0.159 HD
ENDROOT
BRANCH   5  12
ATOM     10  N   UNL     1      31.698 -22.018 -17.633  0.00  0.00    -0.314 N 
ATOM     11  N   UNL     1      33.777 -22.347 -16.920  0.00  0.00    -0.315 N 
ATOM     12  C   UNL     1      33.031 -21.800 -17.856  0.00  0.00    +0.171 C 
ATOM     13  C   UNL     1      31.578 -22.751 -16.480  0.00  0.00    +0.059 C 
ATOM     14  C   UNL     1      32.889 -22.944 -16.054  0.00  0.00    +0.055 C 
ATOM     15  C   UNL     1      33.128 -23.672 -14.876  0.00  0.00    -0.008 C 
ATOM     16  C   UNL     1      30.469 -23.247 -15.793  0.00  0.00    +0.011 C 
ATOM     17  C   UNL     1      30.723 -23.969 -14.623  0.00  0.00    -0.021 C 
ATOM     18  C   UNL     1      32.028 -24.179 -14.170  0.00  0.00    -0.007 C 
ATOM     19  C   UNL     1      34.503 -23.923 -14.351  0.00  0.00    +0.032 C 
ATOM     20  C   UNL     1      29.578 -24.527 -13.844  0.00  0.00    +0.031 C 
ATOM     21  H   UNL     1      30.957 -21.704 -18.199  0.00  0.00    +0.149 HD
ATOM     22  H   UNL     1      34.760 -22.333 -16.853  0.00  0.00    +0.149 HD
ENDBRANCH   5  12
BRANCH   1  23
ATOM     23  C   UNL     1      33.887 -18.377 -23.249  0.00  0.00    +0.098 C 
BRANCH  23  24
ATOM     24  C   UNL     1      34.196 -16.903 -23.494  0.00  0.00    +0.022 C 
BRANCH  24  25
ATOM     25  C   UNL     1      34.690 -16.193 -22.233  0.00  0.00    +0.002 C 
BRANCH  25  27
ATOM     26  N   UNL     1      32.066 -12.769 -22.013  0.00  0.00    +0.385 N 
ATOM     27  C   UNL     1      34.230 -14.737 -22.202  0.00  0.00    -0.004 C 
ATOM     28  C   UNL     1      33.529 -14.410 -20.879  0.00  0.00    -0.023 C 
ATOM     29  C   UNL     1      33.292 -14.431 -23.374  0.00  0.00    -0.023 C 
ATOM     30  C   UNL     1      32.976 -12.984 -20.880  0.00  0.00    -0.077 C 
ATOM     31  C   UNL     1      32.748 -13.004 -23.292  0.00  0.00    -0.077 C 
ATOM     32  C   UNL     1      31.506 -11.418 -21.971  0.00  0.00    -0.101 C 
ATOM     33  H   UNL     1      31.303 -13.442 -21.935  0.00  0.00    -0.080 HD
ENDBRANCH  25  27
ENDBRANCH  24  25
ENDBRANCH  23  24
ENDBRANCH   1  23
TORSDOF 5
ENDMDL
MODEL 3
REMARK VINA RESULT:     -12.6      3.694     13.373
REMARK  Name = 23650961
REMARK  5 active torsions:
REMARK  status: ('A' for Active; 'I' for Inactive)
REMARK    1  A    between atoms: N_1  and  C_23
REMARK    2  A    between atoms: C_5  and  C_12
REMARK    3  A    between atoms: C_23  and  C_24
REMARK    4  A    between atoms: C_24  and  C_25
REMARK    5  A    between atoms: C_25  and  C_27
REMARK                            x       y       z     vdW  Elec       q    Type
REMARK                         _______ _______ _______ _____ _____    ______ ____
ROOT
ATOM      1  N   UNL     1      34.376 -16.426 -22.584  0.00  0.00    -0.268 N 
ATOM      2  N   UNL     1      33.558 -14.643 -23.873  0.00  0.00    -0.342 NA
ATOM      3  N   UNL     1      34.153 -14.327 -21.559  0.00  0.00    -0.170 NA
ATOM      4  C   UNL     1      34.018 -15.090 -22.675  0.00  0.00    +0.144 C 
ATOM      5  C   UNL     1      33.315 -12.477 -22.852  0.00  0.00    +0.061 C 
ATOM      6  C   UNL     1      33.218 -13.339 -23.926  0.00  0.00    +0.123 C 
ATOM      7  C   UNL     1      33.794 -13.032 -21.682  0.00  0.00    +0.113 C 
ATOM      8  C   UNL     1      32.714 -12.860 -25.249  0.00  0.00    +0.067 C 
ATOM      9  H   UNL     1      34.283 -16.987 -23.387  0.00  0.00    +0.159 HD
ENDROOT
BRANCH   5  12
ATOM     10  N   UNL     1      31.712 -10.642 -22.536  0.00  0.00    -0.314 N 
ATOM     11  N   UNL     1      33.715 -10.101 -23.334  0.00  0.00    -0.315 N 
ATOM     12  C   UNL     1      32.949 -11.087 -22.919  0.00  0.00    +0.171 C 
ATOM     13  C   UNL     1      31.680  -9.283 -22.718  0.00  0.00    +0.059 C 
ATOM     14  C   UNL     1      32.941  -8.969 -23.216  0.00  0.00    +0.055 C 
ATOM     15  C   UNL     1      33.246  -7.631 -23.516  0.00  0.00    -0.008 C 
ATOM     16  C   UNL     1      30.684  -8.329 -22.495  0.00  0.00    +0.011 C 
ATOM     17  C   UNL     1      31.004  -7.002 -22.800  0.00  0.00    -0.021 C 
ATOM     18  C   UNL     1      32.261  -6.657 -23.301  0.00  0.00    -0.007 C 
ATOM     19  C   UNL     1      34.574  -7.211 -24.055  0.00  0.00    +0.032 C 
ATOM     20  C   UNL     1      29.982  -5.936 -22.582  0.00  0.00    +0.031 C 
ATOM     21  H   UNL     1      30.977 -11.198 -22.192  0.00  0.00    +0.149 HD
ATOM     22  H   UNL     1      34.643 -10.160 -23.660  0.00  0.00    +0.149 HD
ENDBRANCH   5  12
BRANCH   1  23
ATOM     23  C   UNL     1      34.879 -17.040 -21.379  0.00  0.00    +0.098 C 
BRANCH  23  24
ATOM     24  C   UNL     1      35.362 -18.461 -21.657  0.00  0.00    +0.022 C 
BRANCH  24  25
ATOM     25  C   UNL     1      34.223 -19.481 -21.627  0.00  0.00    +0.002 C 
BRANCH  25  27
ATOM     26  N   UNL     1      33.341 -22.191 -18.380  0.00  0.00    +0.385 N 
ATOM     27  C   UNL     1      33.973 -19.988 -20.208  0.00  0.00    -0.004 C 
ATOM     28  C   UNL     1      35.004 -21.050 -19.813  0.00  0.00    -0.023 C 
ATOM     29  C   UNL     1      32.559 -20.562 -20.070  0.00  0.00    -0.023 C 
ATOM     30  C   UNL     1      34.700 -21.635 -18.433  0.00  0.00    -0.077 C 
ATOM     31  C   UNL     1      32.336 -21.163 -18.681  0.00  0.00    -0.077 C 
ATOM     32  C   UNL     1      33.084 -22.791 -17.072  0.00  0.00    -0.101 C 
ATOM     33  H   UNL     1      33.271 -22.918 -19.093  0.00  0.00    -0.080 HD
ENDBRANCH  25  27
ENDBRANCH  24  25
ENDBRANCH  23  24
ENDBRANCH   1  23
TORSDOF 5
ENDMDL
MODEL 4
REMARK VINA RESULT:     -12.3      1.543      2.315
REMARK  Name = 23650961
REMARK  5 active torsions:
REMARK  status: ('A' for Active; 'I' for Inactive)
REMARK    1  A    between atoms: N_1  and  C_23
REMARK    2  A    between atoms: C_5  and  C_12
REMARK    3  A    between atoms: C_23  and  C_24
REMARK    4  A    between atoms: C_24  and  C_25
REMARK    5  A    between atoms: C_25  and  C_27
REMARK                            x       y       z     vdW  Elec       q    Type
REMARK                         _______ _______ _______ _____ _____    ______ ____
ROOT
ATOM      1  N   UNL     1      34.413 -19.205 -21.600  0.00  0.00    -0.268 N 
ATOM      2  N   UNL     1      33.598 -20.640 -19.932  0.00  0.00    -0.342 NA
ATOM      3  N   UNL     1      35.871 -19.845 -19.877  0.00  0.00    -0.170 NA
ATOM      4  C   UNL     1      34.635 -19.919 -20.433  0.00  0.00    +0.144 C 
ATOM      5  C   UNL     1      35.068 -21.318 -18.150  0.00  0.00    +0.061 C 
ATOM      6  C   UNL     1      33.848 -21.324 -18.796  0.00  0.00    +0.123 C 
ATOM      7  C   UNL     1      36.053 -20.553 -18.743  0.00  0.00    +0.113 C 
ATOM      8  C   UNL     1      32.700 -22.113 -18.256  0.00  0.00    +0.067 C 
ATOM      9  H   UNL     1      33.519 -19.252 -22.010  0.00  0.00    +0.159 HD
ENDROOT
BRANCH   5  12
ATOM     10  N   UNL     1      36.595 -22.341 -16.521  0.00  0.00    -0.314 N 
ATOM     11  N   UNL     1      34.419 -22.519 -16.108  0.00  0.00    -0.315 N 
ATOM     12  C   UNL     1      35.325 -22.051 -16.940  0.00  0.00    +0.171 C 
ATOM     13  C   UNL     1      36.501 -23.041 -15.345  0.00  0.00    +0.059 C 
ATOM     14  C   UNL     1      35.133 -23.139 -15.108  0.00  0.00    +0.055 C 
ATOM     15  C   UNL     1      34.683 -23.811 -13.960  0.00  0.00    -0.008 C 
ATOM     16  C   UNL     1      37.467 -23.581 -14.494  0.00  0.00    +0.011 C 
ATOM     17  C   UNL     1      37.002 -24.247 -13.356  0.00  0.00    -0.021 C 
ATOM     18  C   UNL     1      35.635 -24.361 -13.091  0.00  0.00    -0.007 C 
ATOM     19  C   UNL     1      33.233 -23.961 -13.633  0.00  0.00    +0.032 C 
ATOM     20  C   UNL     1      37.986 -24.845 -12.405  0.00  0.00    +0.031 C 
ATOM     21  H   UNL     1      37.428 -22.092 -16.981  0.00  0.00    +0.149 HD
ATOM     22  H   UNL     1      33.440 -22.442 -16.184  0.00  0.00    +0.149 HD
ENDBRANCH   5  12
BRANCH   1  23
ATOM     23  C   UNL     1      35.417 -18.396 -22.247  0.00  0.00    +0.098 C 
BRANCH  23  24
ATOM     24  C   UNL     1      34.900 -16.980 -22.488  0.00  0.00    +0.022 C 
BRANCH  24  25
ATOM     25  C   UNL     1      34.406 -16.313 -21.204  0.00  0.00    +0.002 C 
BRANCH  25  27
ATOM     26  N   UNL     1      32.383 -12.646 -22.262  0.00  0.00    +0.385 N 
ATOM     27  C   UNL     1      34.157 -14.822 -21.416  0.00  0.00    -0.004 C 
ATOM     28  C   UNL     1      32.988 -14.331 -20.555  0.00  0.00    -0.023 C 
ATOM     29  C   UNL     1      33.876 -14.515 -22.891  0.00  0.00    -0.023 C 
ATOM     30  C   UNL     1      32.667 -12.863 -20.836  0.00  0.00    -0.077 C 
ATOM     31  C   UNL     1      33.526 -13.040 -23.095  0.00  0.00    -0.077 C 
ATOM     32  C   UNL     1      32.028 -11.248 -22.507  0.00  0.00    -0.101 C 
ATOM     33  H   UNL     1      31.590 -13.235 -22.517  0.00  0.00    -0.080 HD
ENDBRANCH  25  27
ENDBRANCH  24  25
ENDBRANCH  23  24
ENDBRANCH   1  23
TORSDOF 5
ENDMDL
MODEL 5
REMARK VINA RESULT:     -12.2      2.851     12.570
REMARK  Name = 23650961
REMARK  5 active torsions:
REMARK  status: ('A' for Active; 'I' for Inactive)
REMARK    1  A    between atoms: N_1  and  C_23
REMARK    2  A    between atoms: C_5  and  C_12
REMARK    3  A    between atoms: C_23  and  C_24
REMARK    4  A    between atoms: C_24  and  C_25
REMARK    5  A    between atoms: C_25  and  C_27
REMARK                            x       y       z     vdW  Elec       q    Type
REMARK                         _______ _______ _______ _____ _____    ______ ____
ROOT
ATOM      1  N   UNL     1      35.067 -18.153 -22.223  0.00  0.00    -0.268 N 
ATOM      2  N   UNL     1      34.192 -16.406 -23.523  0.00  0.00    -0.342 NA
ATOM      3  N   UNL     1      34.590 -16.114 -21.165  0.00  0.00    -0.170 NA
ATOM      4  C   UNL     1      34.602 -16.849 -22.306  0.00  0.00    +0.144 C 
ATOM      5  C   UNL     1      33.690 -14.301 -22.469  0.00  0.00    +0.061 C 
ATOM      6  C   UNL     1      33.744 -15.134 -23.568  0.00  0.00    +0.123 C 
ATOM      7  C   UNL     1      34.130 -14.850 -21.281  0.00  0.00    +0.113 C 
ATOM      8  C   UNL     1      33.296 -14.658 -24.912  0.00  0.00    +0.067 C 
ATOM      9  H   UNL     1      35.080 -18.694 -23.045  0.00  0.00    +0.159 HD
ENDROOT
BRANCH   5  12
ATOM     10  N   UNL     1      33.864 -11.972 -23.233  0.00  0.00    -0.314 N 
ATOM     11  N   UNL     1      32.128 -12.479 -21.941  0.00  0.00    -0.315 N 
ATOM     12  C   UNL     1      33.210 -12.946 -22.527  0.00  0.00    +0.171 C 
ATOM     13  C   UNL     1      33.159 -10.805 -23.091  0.00  0.00    +0.059 C 
ATOM     14  C   UNL     1      32.081 -11.147 -22.281  0.00  0.00    +0.055 C 
ATOM     15  C   UNL     1      31.143 -10.159 -21.935  0.00  0.00    -0.008 C 
ATOM     16  C   UNL     1      33.367  -9.516 -23.588  0.00  0.00    +0.011 C 
ATOM     17  C   UNL     1      32.425  -8.546 -23.233  0.00  0.00    -0.021 C 
ATOM     18  C   UNL     1      31.332  -8.858 -22.422  0.00  0.00    -0.007 C 
ATOM     19  C   UNL     1      29.959 -10.444 -21.070  0.00  0.00    +0.032 C 
ATOM     20  C   UNL     1      32.591  -7.148 -23.734  0.00  0.00    +0.031 C 
ATOM     21  H   UNL     1      34.693 -12.089 -23.750  0.00  0.00    +0.149 HD
ATOM     22  H   UNL     1      31.490 -12.976 -21.379  0.00  0.00    +0.149 HD
ENDBRANCH   5  12
BRANCH   1  23
ATOM     23  C   UNL     1      35.535 -18.760 -21.001  0.00  0.00    +0.098 C 
BRANCH  23  24
ATOM     24  C   UNL     1      34.604 -19.888 -20.566  0.00  0.00    +0.022 C 
BRANCH  24  25
ATOM     25  C   UNL     1      35.350 -21.022 -19.862  0.00  0.00    +0.002 C 
BRANCH  25  27
ATOM     26  N   UNL     1      34.293 -23.051 -16.198  0.00  0.00    +0.385 N 
ATOM     27  C   UNL     1      34.806 -21.251 -18.453  0.00  0.00    -0.004 C 
ATOM     28  C   UNL     1      35.915 -21.717 -17.505  0.00  0.00    -0.023 C 
ATOM     29  C   UNL     1      33.667 -22.276 -18.462  0.00  0.00    -0.023 C 
ATOM     30  C   UNL     1      35.360 -22.045 -16.118  0.00  0.00    -0.077 C 
ATOM     31  C   UNL     1      33.186 -22.584 -17.043  0.00  0.00    -0.077 C 
ATOM     32  C   UNL     1      33.807 -23.392 -14.861  0.00  0.00    -0.101 C 
ATOM     33  H   UNL     1      34.684 -23.891 -16.627  0.00  0.00    -0.080 HD
ENDBRANCH  25  27
ENDBRANCH  24  25
ENDBRANCH  23  24
ENDBRANCH   1  23
TORSDOF 5
ENDMDL
MODEL 6
REMARK VINA RESULT:     -12.1      3.738     13.607
REMARK  Name = 23650961
REMARK  5 active torsions:
REMARK  status: ('A' for Active; 'I' for Inactive)
REMARK    1  A    between atoms: N_1  and  C_23
REMARK    2  A    between atoms: C_5  and  C_12
REMARK    3  A    between atoms: C_23  and  C_24
REMARK    4  A    between atoms: C_24  and  C_25
REMARK    5  A    between atoms: C_25  and  C_27
REMARK                            x       y       z     vdW  Elec       q    Type
REMARK                         _______ _______ _______ _____ _____    ______ ____
ROOT
ATOM      1  N   UNL     1      34.185 -16.305 -22.577  0.00  0.00    -0.268 N 
ATOM      2  N   UNL     1      33.463 -14.524 -23.924  0.00  0.00    -0.342 NA
ATOM      3  N   UNL     1      34.147 -14.153 -21.643  0.00  0.00    -0.170 NA
ATOM      4  C   UNL     1      33.924 -14.951 -22.719  0.00  0.00    +0.144 C 
ATOM      5  C   UNL     1      33.411 -12.303 -22.997  0.00  0.00    +0.061 C 
ATOM      6  C   UNL     1      33.219 -13.202 -24.027  0.00  0.00    +0.123 C 
ATOM      7  C   UNL     1      33.881 -12.841 -21.816  0.00  0.00    +0.113 C 
ATOM      8  C   UNL     1      32.713 -12.744 -25.357  0.00  0.00    +0.067 C 
ATOM      9  H   UNL     1      34.027 -16.892 -23.351  0.00  0.00    +0.159 HD
ENDROOT
BRANCH   5  12
ATOM     10  N   UNL     1      34.133  -9.990 -23.404  0.00  0.00    -0.314 N 
ATOM     11  N   UNL     1      31.975 -10.309 -22.977  0.00  0.00    -0.315 N 
ATOM     12  C   UNL     1      33.146 -10.894 -23.117  0.00  0.00    +0.171 C 
ATOM     13  C   UNL     1      33.562  -8.744 -23.451  0.00  0.00    +0.059 C 
ATOM     14  C   UNL     1      32.215  -8.969 -23.181  0.00  0.00    +0.055 C 
ATOM     15  C   UNL     1      31.330  -7.879 -23.153  0.00  0.00    -0.008 C 
ATOM     16  C   UNL     1      34.092  -7.477 -23.698  0.00  0.00    +0.011 C 
ATOM     17  C   UNL     1      33.198  -6.402 -23.666  0.00  0.00    -0.021 C 
ATOM     18  C   UNL     1      31.841  -6.597 -23.398  0.00  0.00    -0.007 C 
ATOM     19  C   UNL     1      29.872  -8.035 -22.871  0.00  0.00    +0.032 C 
ATOM     20  C   UNL     1      33.705  -5.021 -23.924  0.00  0.00    +0.031 C 
ATOM     21  H   UNL     1      35.083 -10.197 -23.551  0.00  0.00    +0.149 HD
ATOM     22  H   UNL     1      31.113 -10.738 -22.770  0.00  0.00    +0.149 HD
ENDBRANCH   5  12
BRANCH   1  23
ATOM     23  C   UNL     1      34.677 -16.903 -21.359  0.00  0.00    +0.098 C 
BRANCH  23  24
ATOM     24  C   UNL     1      35.308 -18.264 -21.640  0.00  0.00    +0.022 C 
BRANCH  24  25
ATOM     25  C   UNL     1      34.278 -19.393 -21.657  0.00  0.00    +0.002 C 
BRANCH  25  27
ATOM     26  N   UNL     1      33.374 -22.151 -18.458  0.00  0.00    +0.385 N 
ATOM     27  C   UNL     1      34.012 -19.920 -20.249  0.00  0.00    -0.004 C 
ATOM     28  C   UNL     1      35.046 -20.980 -19.854  0.00  0.00    -0.023 C 
ATOM     29  C   UNL     1      32.602 -20.507 -20.137  0.00  0.00    -0.023 C 
ATOM     30  C   UNL     1      34.729 -21.585 -18.486  0.00  0.00    -0.077 C 
ATOM     31  C   UNL     1      32.365 -21.127 -18.759  0.00  0.00    -0.077 C 
ATOM     32  C   UNL     1      33.103 -22.771 -17.161  0.00  0.00    -0.101 C 
ATOM     33  H   UNL     1      33.318 -22.869 -19.181  0.00  0.00    -0.080 HD
ENDBRANCH  25  27
ENDBRANCH  24  25
ENDBRANCH  23  24
ENDBRANCH   1  23
TORSDOF 5
ENDMDL
MODEL 7
REMARK VINA RESULT:     -11.8      3.130     12.849
REMARK  Name = 23650961
REMARK  5 active torsions:
REMARK  status: ('A' for Active; 'I' for Inactive)
REMARK    1  A    between atoms: N_1  and  C_23
REMARK    2  A    between atoms: C_5  and  C_12
REMARK    3  A    between atoms: C_23  and  C_24
REMARK    4  A    between atoms: C_24  and  C_25
REMARK    5  A    between atoms: C_25  and  C_27
REMARK                            x       y       z     vdW  Elec       q    Type
REMARK                         _______ _______ _______ _____ _____    ______ ____
ROOT
ATOM      1  N   UNL     1      34.639 -17.606 -22.348  0.00  0.00    -0.268 N 
ATOM      2  N   UNL     1      33.876 -15.837 -23.688  0.00  0.00    -0.342 NA
ATOM      3  N   UNL     1      34.341 -15.505 -21.348  0.00  0.00    -0.170 NA
ATOM      4  C   UNL     1      34.274 -16.274 -22.465  0.00  0.00    +0.144 C 
ATOM      5  C   UNL     1      33.559 -13.668 -22.694  0.00  0.00    +0.061 C 
ATOM      6  C   UNL     1      33.528 -14.536 -23.766  0.00  0.00    +0.123 C 
ATOM      7  C   UNL     1      33.977 -14.213 -21.497  0.00  0.00    +0.113 C 
ATOM      8  C   UNL     1      33.092 -14.068 -25.117  0.00  0.00    +0.067 C 
ATOM      9  H   UNL     1      34.595 -18.171 -23.152  0.00  0.00    +0.159 HD
ENDROOT
BRANCH   5  12
ATOM     10  N   UNL     1      31.943 -11.838 -22.416  0.00  0.00    -0.314 N 
ATOM     11  N   UNL     1      33.944 -11.299 -23.219  0.00  0.00    -0.315 N 
ATOM     12  C   UNL     1      33.184 -12.283 -22.787  0.00  0.00    +0.171 C 
ATOM     13  C   UNL     1      31.903 -10.483 -22.623  0.00  0.00    +0.059 C 
ATOM     14  C   UNL     1      33.163 -10.170 -23.124  0.00  0.00    +0.055 C 
ATOM     15  C   UNL     1      33.460  -8.836 -23.449  0.00  0.00    -0.008 C 
ATOM     16  C   UNL     1      30.901  -9.531 -22.421  0.00  0.00    +0.011 C 
ATOM     17  C   UNL     1      31.213  -8.208 -22.749  0.00  0.00    -0.021 C 
ATOM     18  C   UNL     1      32.469  -7.864 -23.254  0.00  0.00    -0.007 C 
ATOM     19  C   UNL     1      34.787  -8.418 -23.992  0.00  0.00    +0.032 C 
ATOM     20  C   UNL     1      30.184  -7.144 -22.554  0.00  0.00    +0.031 C 
ATOM     21  H   UNL     1      31.211 -12.392 -22.063  0.00  0.00    +0.149 HD
ATOM     22  H   UNL     1      34.873 -11.358 -23.542  0.00  0.00    +0.149 HD
ENDBRANCH   5  12
BRANCH   1  23
ATOM     23  C   UNL     1      35.082 -18.210 -21.114  0.00  0.00    +0.098 C 
BRANCH  23  24
ATOM     24  C   UNL     1      34.767 -19.703 -21.099  0.00  0.00    +0.022 C 
BRANCH  24  25
ATOM     25  C   UNL     1      33.520 -20.029 -20.276  0.00  0.00    +0.002 C 
BRANCH  25  27
ATOM     26  N   UNL     1      33.967 -22.364 -16.669  0.00  0.00    +0.385 N 
ATOM     27  C   UNL     1      33.759 -21.231 -19.364  0.00  0.00    -0.004 C 
ATOM     28  C   UNL     1      32.530 -21.513 -18.494  0.00  0.00    -0.023 C 
ATOM     29  C   UNL     1      34.985 -21.012 -18.473  0.00  0.00    -0.023 C 
ATOM     30  C   UNL     1      32.796 -22.652 -17.508  0.00  0.00    -0.077 C 
ATOM     31  C   UNL     1      35.170 -22.168 -17.488  0.00  0.00    -0.077 C 
ATOM     32  C   UNL     1      34.178 -23.437 -15.698  0.00  0.00    -0.101 C 
ATOM     33  H   UNL     1      33.786 -21.496 -16.163  0.00  0.00    -0.080 HD
ENDBRANCH  25  27
ENDBRANCH  24  25
ENDBRANCH  23  24
ENDBRANCH   1  23
TORSDOF 5
ENDMDL
MODEL 8
REMARK VINA RESULT:     -11.2      6.453     11.340
REMARK  Name = 23650961
REMARK  5 active torsions:
REMARK  status: ('A' for Active; 'I' for Inactive)
REMARK    1  A    between atoms: N_1  and  C_23
REMARK    2  A    between atoms: C_5  and  C_12
REMARK    3  A    between atoms: C_23  and  C_24
REMARK    4  A    between atoms: C_24  and  C_25
REMARK    5  A    between atoms: C_25  and  C_27
REMARK                            x       y       z     vdW  Elec       q    Type
REMARK                         _______ _______ _______ _____ _____    ______ ____
ROOT
ATOM      1  N   UNL     1      31.808  -9.261 -22.665  0.00  0.00    -0.268 N 
ATOM      2  N   UNL     1      31.855 -11.297 -21.500  0.00  0.00    -0.342 NA
ATOM      3  N   UNL     1      33.024 -11.041 -23.591  0.00  0.00    -0.170 NA
ATOM      4  C   UNL     1      32.243 -10.574 -22.583  0.00  0.00    +0.144 C 
ATOM      5  C   UNL     1      33.091 -13.145 -22.422  0.00  0.00    +0.061 C 
ATOM      6  C   UNL     1      32.294 -12.571 -21.451  0.00  0.00    +0.123 C 
ATOM      7  C   UNL     1      33.428 -12.324 -23.479  0.00  0.00    +0.113 C 
ATOM      8  C   UNL     1      31.860 -13.355 -20.256  0.00  0.00    +0.067 C 
ATOM      9  H   UNL     1      31.242  -8.913 -21.939  0.00  0.00    +0.159 HD
ENDROOT
BRANCH   5  12
ATOM     10  N   UNL     1      34.226 -14.998 -21.275  0.00  0.00    -0.314 N 
ATOM     11  N   UNL     1      33.401 -15.420 -23.295  0.00  0.00    -0.315 N 
ATOM     12  C   UNL     1      33.554 -14.505 -22.362  0.00  0.00    +0.171 C 
ATOM     13  C   UNL     1      34.526 -16.312 -21.526  0.00  0.00    +0.059 C 
ATOM     14  C   UNL     1      34.000 -16.553 -22.792  0.00  0.00    +0.055 C 
ATOM     15  C   UNL     1      34.137 -17.831 -23.360  0.00  0.00    -0.008 C 
ATOM     16  C   UNL     1      35.191 -17.284 -20.776  0.00  0.00    +0.011 C 
ATOM     17  C   UNL     1      35.319 -18.550 -21.356  0.00  0.00    -0.021 C 
ATOM     18  C   UNL     1      34.802 -18.821 -22.625  0.00  0.00    -0.007 C 
ATOM     19  C   UNL     1      33.602 -18.170 -24.713  0.00  0.00    +0.032 C 
ATOM     20  C   UNL     1      36.020 -19.632 -20.603  0.00  0.00    +0.031 C 
ATOM     21  H   UNL     1      34.454 -14.498 -20.460  0.00  0.00    +0.149 HD
ATOM     22  H   UNL     1      32.954 -15.317 -24.167  0.00  0.00    +0.149 HD
ENDBRANCH   5  12
BRANCH   1  23
ATOM     23  C   UNL     1      32.140  -8.374 -23.754  0.00  0.00    +0.098 C 
BRANCH  23  24
ATOM     24  C   UNL     1      33.256  -7.415 -23.351  0.00  0.00    +0.022 C 
BRANCH  24  25
ATOM     25  C   UNL     1      32.928  -6.640 -22.074  0.00  0.00    +0.002 C 
BRANCH  25  27
ATOM     26  N   UNL     1      30.793  -2.886 -21.961  0.00  0.00    +0.385 N 
ATOM     27  C   UNL     1      31.836  -5.602 -22.323  0.00  0.00    -0.004 C 
ATOM     28  C   UNL     1      32.387  -4.399 -23.097  0.00  0.00    -0.023 C 
ATOM     29  C   UNL     1      31.215  -5.129 -21.005  0.00  0.00    -0.023 C 
ATOM     30  C   UNL     1      31.326  -3.311 -23.263  0.00  0.00    -0.077 C 
ATOM     31  C   UNL     1      30.191  -4.016 -21.241  0.00  0.00    -0.077 C 
ATOM     32  C   UNL     1      29.817  -1.810 -22.132  0.00  0.00    -0.101 C 
ATOM     33  H   UNL     1      31.572  -2.536 -21.402  0.00  0.00    -0.080 HD
ENDBRANCH  25  27
ENDBRANCH  24  25
ENDBRANCH  23  24
ENDBRANCH   1  23
TORSDOF 5
ENDMDL
MODEL 9
REMARK VINA RESULT:     -11.2      1.553     11.666
REMARK  Name = 23650961
REMARK  5 active torsions:
REMARK  status: ('A' for Active; 'I' for Inactive)
REMARK    1  A    between atoms: N_1  and  C_23
REMARK    2  A    between atoms: C_5  and  C_12
REMARK    3  A    between atoms: C_23  and  C_24
REMARK    4  A    between atoms: C_24  and  C_25
REMARK    5  A    between atoms: C_25  and  C_27
REMARK                            x       y       z     vdW  Elec       q    Type
REMARK                         _______ _______ _______ _____ _____    ______ ____
ROOT
ATOM      1  N   UNL     1      35.089 -21.744 -19.200  0.00  0.00    -0.268 N 
ATOM      2  N   UNL     1      35.950 -19.937 -20.425  0.00  0.00    -0.342 NA
ATOM      3  N   UNL     1      33.586 -20.133 -20.006  0.00  0.00    -0.170 NA
ATOM      4  C   UNL     1      34.868 -20.567 -19.899  0.00  0.00    +0.144 C 
ATOM      5  C   UNL     1      34.435 -18.267 -21.268  0.00  0.00    +0.061 C 
ATOM      6  C   UNL     1      35.699 -18.796 -21.099  0.00  0.00    +0.123 C 
ATOM      7  C   UNL     1      33.406 -18.986 -20.694  0.00  0.00    +0.113 C 
ATOM      8  C   UNL     1      36.898 -18.112 -21.673  0.00  0.00    +0.067 C 
ATOM      9  H   UNL     1      36.015 -22.066 -19.116  0.00  0.00    +0.159 HD
ENDROOT
BRANCH   5  12
ATOM     10  N   UNL     1      33.899 -17.044 -23.330  0.00  0.00    -0.314 N 
ATOM     11  N   UNL     1      34.174 -15.834 -21.486  0.00  0.00    -0.315 N 
ATOM     12  C   UNL     1      34.178 -17.050 -21.990  0.00  0.00    +0.171 C 
ATOM     13  C   UNL     1      33.704 -15.742 -23.714  0.00  0.00    +0.059 C 
ATOM     14  C   UNL     1      33.880 -15.006 -22.546  0.00  0.00    +0.055 C 
ATOM     15  C   UNL     1      33.746 -13.608 -22.590  0.00  0.00    -0.008 C 
ATOM     16  C   UNL     1      33.397 -15.162 -24.946  0.00  0.00    +0.011 C 
ATOM     17  C   UNL     1      33.268 -13.769 -24.972  0.00  0.00    -0.021 C 
ATOM     18  C   UNL     1      33.439 -13.004 -23.817  0.00  0.00    -0.007 C 
ATOM     19  C   UNL     1      33.920 -12.746 -21.382  0.00  0.00    +0.032 C 
ATOM     20  C   UNL     1      32.939 -13.090 -26.261  0.00  0.00    +0.031 C 
ATOM     21  H   UNL     1      33.849 -17.833 -23.915  0.00  0.00    +0.149 HD
ATOM     22  H   UNL     1      34.344 -15.572 -20.552  0.00  0.00    +0.149 HD
ENDBRANCH   5  12
BRANCH   1  23
ATOM     23  C   UNL     1      34.039 -22.521 -18.587  0.00  0.00    +0.098 C 
BRANCH  23  24
ATOM     24  C   UNL     1      34.094 -22.402 -17.067  0.00  0.00    +0.022 C 
BRANCH  24  25
ATOM     25  C   UNL     1      35.490 -22.040 -16.559  0.00  0.00    +0.002 C 
BRANCH  25  27
ATOM     26  N   UNL     1      36.585 -24.912 -13.525  0.00  0.00    +0.385 N 
ATOM     27  C   UNL     1      35.750 -22.642 -15.180  0.00  0.00    -0.004 C 
ATOM     28  C   UNL     1      37.219 -23.053 -15.028  0.00  0.00    -0.023 C 
ATOM     29  C   UNL     1      34.845 -23.851 -14.927  0.00  0.00    -0.023 C 
ATOM     30  C   UNL     1      37.466 -23.749 -13.689  0.00  0.00    -0.077 C 
ATOM     31  C   UNL     1      35.171 -24.520 -13.591  0.00  0.00    -0.077 C 
ATOM     32  C   UNL     1      36.868 -25.597 -12.264  0.00  0.00    -0.101 C 
ATOM     33  H   UNL     1      36.768 -25.557 -14.295  0.00  0.00    -0.080 HD
ENDBRANCH  25  27
ENDBRANCH  24  25
ENDBRANCH  23  24
ENDBRANCH   1  23
TORSDOF 5
ENDMDL
