MODEL 1
REMARK VINA RESULT:     -13.6      0.000      0.000
REMARK  Name = 446805
REMARK  6 active torsions:
REMARK  status: ('A' for Active; 'I' for Inactive)
REMARK    1  A    between atoms: C_4  and  C_22
REMARK    2  A    between atoms: C_7  and  N_11
REMARK    3  A    between atoms: N_11  and  S_13
REMARK    4  A    between atoms: S_13  and  C_16
REMARK    5  A    between atoms: C_22  and  C_23
REMARK    6  A    between atoms: C_28  and  C_31
REMARK                            x       y       z     vdW  Elec       q    Type
REMARK                         _______ _______ _______ _____ _____    ______ ____
ROOT
ATOM      1  N   UNL     1      32.873 -22.077 -17.383  0.00  0.00    -0.262 N 
ATOM      2  N   UNL     1      35.085 -22.065 -17.590  0.00  0.00    -0.394 NA
ATOM      3  C   UNL     1      33.128 -21.382 -18.537  0.00  0.00    +0.079 C 
ATOM      4  C   UNL     1      34.072 -22.464 -16.855  0.00  0.00    +0.168 C 
ATOM      5  C   UNL     1      34.516 -21.389 -18.645  0.00  0.00    +0.129 C 
ATOM      6  C   UNL     1      35.122 -20.748 -19.739  0.00  0.00    +0.103 C 
ATOM      7  C   UNL     1      34.300 -20.124 -20.686  0.00  0.00    +0.050 C 
ATOM      8  C   UNL     1      32.290 -20.768 -19.469  0.00  0.00    +0.018 C 
ATOM      9  C   UNL     1      31.566 -22.349 -16.828  0.00  0.00    +0.119 C 
ATOM     10  C   UNL     1      32.910 -20.135 -20.552  0.00  0.00    +0.013 C 
ENDROOT
BRANCH   7  11
ATOM     11  N   UNL     1      34.894 -19.466 -21.806  0.00  0.00    -0.219 N 
ATOM     12  H   UNL     1      34.904 -19.877 -22.702  0.00  0.00    +0.173 HD
BRANCH  11  13
ATOM     13  S   UNL     1      35.598 -17.905 -21.513  0.00  0.00    +0.073 S 
ATOM     14  O   UNL     1      36.988 -17.921 -21.926  0.00  0.00    -0.150 OA
ATOM     15  O   UNL     1      35.231 -17.459 -20.182  0.00  0.00    -0.150 OA
BRANCH  13  16
ATOM     16  C   UNL     1      34.709 -16.890 -22.657  0.00  0.00    +0.125 C 
ATOM     17  C   UNL     1      34.545 -15.545 -22.376  0.00  0.00    +0.020 C 
ATOM     18  C   UNL     1      34.198 -17.460 -23.808  0.00  0.00    +0.020 C 
ATOM     19  C   UNL     1      33.845 -14.744 -23.279  0.00  0.00    +0.001 C 
ATOM     20  C   UNL     1      33.498 -16.659 -24.711  0.00  0.00    +0.001 C 
ATOM     21  C   UNL     1      33.321 -15.301 -24.446  0.00  0.00    +0.000 C 
ENDBRANCH  13  16
ENDBRANCH  11  13
ENDBRANCH   7  11
BRANCH   4  22
ATOM     22  C   UNL     1      34.165 -23.239 -15.600  0.00  0.00    +0.101 C 
BRANCH  22  23
ATOM     23  C   UNL     1      35.580 -23.682 -15.252  0.00  0.00    -0.014 C 
ATOM     24  C   UNL     1      35.800 -24.999 -14.906  0.00  0.00    -0.004 C 
ATOM     25  C   UNL     1      36.598 -22.751 -15.293  0.00  0.00    -0.004 C 
ATOM     26  C   UNL     1      37.097 -25.405 -14.587  0.00  0.00    +0.002 C 
ATOM     27  C   UNL     1      37.894 -23.156 -14.974  0.00  0.00    +0.002 C 
ATOM     28  C   UNL     1      38.143 -24.483 -14.621  0.00  0.00    +0.031 C 
BRANCH  28  31
ATOM     29  N   UNL     1      39.765 -26.208 -13.872  0.00  0.00    -0.343 N 
ATOM     30  N   UNL     1      40.493 -24.045 -14.376  0.00  0.00    -0.285 NA
ATOM     31  C   UNL     1      39.494 -24.906 -14.288  0.00  0.00    +0.117 C 
ATOM     32  H   UNL     1      40.688 -26.472 -13.651  0.00  0.00    +0.144 HD
ATOM     33  H   UNL     1      39.034 -26.863 -13.797  0.00  0.00    +0.144 HD
ATOM     34  H   UNL     1      41.409 -24.328 -14.151  0.00  0.00    +0.188 HD
ENDBRANCH  28  31
ENDBRANCH  22  23
ENDBRANCH   4  22
TORSDOF 6
ENDMDL
MODEL 2
REMARK VINA RESULT:     -13.3      4.971      8.418
REMARK  Name = 446805
REMARK  6 active torsions:
REMARK  status: ('A' for Active; 'I' for Inactive)
REMARK    1  A    between atoms: C_4  and  C_22
REMARK    2  A    between atoms: C_7  and  N_11
REMARK    3  A    between atoms: N_11  and  S_13
REMARK    4  A    between atoms: S_13  and  C_16
REMARK    5  A    between atoms: C_22  and  C_23
REMARK    6  A    between atoms: C_28  and  C_31
REMARK                            x       y       z     vdW  Elec       q    Type
REMARK                         _______ _______ _______ _____ _____    ______ ____
ROOT
ATOM      1  N   UNL     1      34.255 -16.169 -23.085  0.00  0.00    -0.262 N 
ATOM      2  N   UNL     1      34.608 -15.830 -20.917  0.00  0.00    -0.394 NA
ATOM      3  C   UNL     1      33.661 -14.967 -22.801  0.00  0.00    +0.079 C 
ATOM      4  C   UNL     1      34.807 -16.645 -21.929  0.00  0.00    +0.168 C 
ATOM      5  C   UNL     1      33.895 -14.777 -21.443  0.00  0.00    +0.129 C 
ATOM      6  C   UNL     1      33.409 -13.615 -20.819  0.00  0.00    +0.103 C 
ATOM      7  C   UNL     1      32.702 -12.687 -21.594  0.00  0.00    +0.050 C 
ATOM      8  C   UNL     1      32.961 -14.055 -23.593  0.00  0.00    +0.018 C 
ATOM      9  C   UNL     1      34.288 -16.815 -24.378  0.00  0.00    +0.119 C 
ATOM     10  C   UNL     1      32.484 -12.905 -22.956  0.00  0.00    +0.013 C 
ENDROOT
BRANCH   7  11
ATOM     11  N   UNL     1      32.198 -11.499 -20.980  0.00  0.00    -0.219 N 
ATOM     12  H   UNL     1      32.315 -11.325 -20.018  0.00  0.00    +0.173 HD
BRANCH  11  13
ATOM     13  S   UNL     1      31.371 -10.376 -22.015  0.00  0.00    +0.073 S 
ATOM     14  O   UNL     1      29.943 -10.614 -21.936  0.00  0.00    -0.150 OA
ATOM     15  O   UNL     1      32.039 -10.332 -23.302  0.00  0.00    -0.150 OA
BRANCH  13  16
ATOM     16  C   UNL     1      31.703  -8.836 -21.212  0.00  0.00    +0.125 C 
ATOM     17  C   UNL     1      32.347  -7.834 -21.917  0.00  0.00    +0.020 C 
ATOM     18  C   UNL     1      31.312  -8.662 -19.897  0.00  0.00    +0.020 C 
ATOM     19  C   UNL     1      32.609  -6.618 -21.284  0.00  0.00    +0.001 C 
ATOM     20  C   UNL     1      31.574  -7.447 -19.264  0.00  0.00    +0.001 C 
ATOM     21  C   UNL     1      32.222  -6.425 -19.957  0.00  0.00    +0.000 C 
ENDBRANCH  13  16
ENDBRANCH  11  13
ENDBRANCH   7  11
BRANCH   4  22
ATOM     22  C   UNL     1      35.531 -17.932 -21.875  0.00  0.00    +0.101 C 
BRANCH  22  23
ATOM     23  C   UNL     1      34.832 -18.999 -21.041  0.00  0.00    -0.014 C 
ATOM     24  C   UNL     1      33.461 -19.118 -21.125  0.00  0.00    -0.004 C 
ATOM     25  C   UNL     1      35.594 -19.812 -20.227  0.00  0.00    -0.004 C 
ATOM     26  C   UNL     1      32.821 -20.095 -20.361  0.00  0.00    +0.002 C 
ATOM     27  C   UNL     1      34.955 -20.788 -19.463  0.00  0.00    +0.002 C 
ATOM     28  C   UNL     1      33.568 -20.930 -19.531  0.00  0.00    +0.031 C 
BRANCH  28  31
ATOM     29  N   UNL     1      31.698 -21.685 -18.082  0.00  0.00    -0.343 N 
ATOM     30  N   UNL     1      33.441 -23.148 -18.616  0.00  0.00    -0.285 NA
ATOM     31  C   UNL     1      32.902 -21.947 -18.734  0.00  0.00    +0.117 C 
ATOM     32  H   UNL     1      31.265 -22.389 -17.547  0.00  0.00    +0.144 HD
ATOM     33  H   UNL     1      31.282 -20.796 -18.155  0.00  0.00    +0.144 HD
ATOM     34  H   UNL     1      32.992 -23.839 -18.077  0.00  0.00    +0.188 HD
ENDBRANCH  28  31
ENDBRANCH  22  23
ENDBRANCH   4  22
TORSDOF 6
ENDMDL
MODEL 3
REMARK VINA RESULT:     -13.2      4.089      7.300
REMARK  Name = 446805
REMARK  6 active torsions:
REMARK  status: ('A' for Active; 'I' for Inactive)
REMARK    1  A    between atoms: C_4  and  C_22
REMARK    2  A    between atoms: C_7  and  N_11
REMARK    3  A    between atoms: N_11  and  S_13
REMARK    4  A    between atoms: S_13  and  C_16
REMARK    5  A    between atoms: C_22  and  C_23
REMARK    6  A    between atoms: C_28  and  C_31
REMARK                            x       y       z     vdW  Elec       q    Type
REMARK                         _______ _______ _______ _____ _____    ______ ____
ROOT
ATOM      1  N   UNL     1      34.800 -17.721 -22.756  0.00  0.00    -0.262 N 
ATOM      2  N   UNL     1      35.103 -16.945 -20.695  0.00  0.00    -0.394 NA
ATOM      3  C   UNL     1      34.336 -16.431 -22.779  0.00  0.00    +0.079 C 
ATOM      4  C   UNL     1      35.248 -17.981 -21.491  0.00  0.00    +0.168 C 
ATOM      5  C   UNL     1      34.537 -15.968 -21.482  0.00  0.00    +0.129 C 
ATOM      6  C   UNL     1      34.162 -14.653 -21.157  0.00  0.00    +0.103 C 
ATOM      7  C   UNL     1      33.597 -13.853 -22.159  0.00  0.00    +0.050 C 
ATOM      8  C   UNL     1      33.776 -15.652 -23.792  0.00  0.00    +0.018 C 
ATOM      9  C   UNL     1      34.811 -18.638 -23.873  0.00  0.00    +0.119 C 
ATOM     10  C   UNL     1      33.409 -14.346 -23.452  0.00  0.00    +0.013 C 
ENDROOT
BRANCH   7  11
ATOM     11  N   UNL     1      33.207 -12.514 -21.851  0.00  0.00    -0.219 N 
ATOM     12  H   UNL     1      33.854 -11.771 -21.865  0.00  0.00    +0.173 HD
BRANCH  11  13
ATOM     13  S   UNL     1      31.536 -12.258 -21.453  0.00  0.00    +0.073 S 
ATOM     14  O   UNL     1      31.178 -13.096 -20.325  0.00  0.00    -0.150 OA
ATOM     15  O   UNL     1      30.746 -12.285 -22.670  0.00  0.00    -0.150 OA
BRANCH  13  16
ATOM     16  C   UNL     1      31.553 -10.581 -20.891  0.00  0.00    +0.125 C 
ATOM     17  C   UNL     1      31.556  -9.558 -21.823  0.00  0.00    +0.020 C 
ATOM     18  C   UNL     1      31.562 -10.325 -19.532  0.00  0.00    +0.020 C 
ATOM     19  C   UNL     1      31.568  -8.235 -21.380  0.00  0.00    +0.001 C 
ATOM     20  C   UNL     1      31.575  -9.002 -19.088  0.00  0.00    +0.001 C 
ATOM     21  C   UNL     1      31.578  -7.957 -20.012  0.00  0.00    +0.000 C 
ENDBRANCH  13  16
ENDBRANCH  11  13
ENDBRANCH   7  11
BRANCH   4  22
ATOM     22  C   UNL     1      35.818 -19.290 -21.113  0.00  0.00    +0.101 C 
BRANCH  22  23
ATOM     23  C   UNL     1      34.925 -20.108 -20.188  0.00  0.00    -0.014 C 
ATOM     24  C   UNL     1      35.512 -20.950 -19.268  0.00  0.00    -0.004 C 
ATOM     25  C   UNL     1      33.556 -19.981 -20.302  0.00  0.00    -0.004 C 
ATOM     26  C   UNL     1      34.694 -21.699 -18.421  0.00  0.00    +0.002 C 
ATOM     27  C   UNL     1      32.738 -20.730 -19.456  0.00  0.00    +0.002 C 
ATOM     28  C   UNL     1      33.307 -21.589 -18.515  0.00  0.00    +0.031 C 
BRANCH  28  31
ATOM     29  N   UNL     1      31.113 -22.042 -17.445  0.00  0.00    -0.343 N 
ATOM     30  N   UNL     1      32.951 -23.412 -16.991  0.00  0.00    -0.285 NA
ATOM     31  C   UNL     1      32.454 -22.370 -17.634  0.00  0.00    +0.117 C 
ATOM     32  H   UNL     1      30.554 -22.585 -16.843  0.00  0.00    +0.144 HD
ATOM     33  H   UNL     1      30.725 -21.268 -17.913  0.00  0.00    +0.144 HD
ATOM     34  H   UNL     1      32.376 -23.942 -16.393  0.00  0.00    +0.188 HD
ENDBRANCH  28  31
ENDBRANCH  22  23
ENDBRANCH   4  22
TORSDOF 6
ENDMDL
MODEL 4
REMARK VINA RESULT:     -13.1      0.856      1.528
REMARK  Name = 446805
REMARK  6 active torsions:
REMARK  status: ('A' for Active; 'I' for Inactive)
REMARK    1  A    between atoms: C_4  and  C_22
REMARK    2  A    between atoms: C_7  and  N_11
REMARK    3  A    between atoms: N_11  and  S_13
REMARK    4  A    between atoms: S_13  and  C_16
REMARK    5  A    between atoms: C_22  and  C_23
REMARK    6  A    between atoms: C_28  and  C_31
REMARK                            x       y       z     vdW  Elec       q    Type
REMARK                         _______ _______ _______ _____ _____    ______ ____
ROOT
ATOM      1  N   UNL     1      32.360 -21.942 -17.600  0.00  0.00    -0.262 N 
ATOM      2  N   UNL     1      34.541 -22.350 -17.724  0.00  0.00    -0.394 NA
ATOM      3  C   UNL     1      32.799 -21.255 -18.702  0.00  0.00    +0.079 C 
ATOM      4  C   UNL     1      33.436 -22.580 -17.050  0.00  0.00    +0.168 C 
ATOM      5  C   UNL     1      34.163 -21.526 -18.759  0.00  0.00    +0.129 C 
ATOM      6  C   UNL     1      34.932 -20.964 -19.792  0.00  0.00    +0.103 C 
ATOM      7  C   UNL     1      34.291 -20.147 -20.732  0.00  0.00    +0.050 C 
ATOM      8  C   UNL     1      32.140 -20.445 -19.628  0.00  0.00    +0.018 C 
ATOM      9  C   UNL     1      31.000 -21.980 -17.110  0.00  0.00    +0.119 C 
ATOM     10  C   UNL     1      32.920 -19.893 -20.650  0.00  0.00    +0.013 C 
ENDROOT
BRANCH   7  11
ATOM     11  N   UNL     1      35.053 -19.564 -21.791  0.00  0.00    -0.219 N 
ATOM     12  H   UNL     1      35.201 -20.037 -22.642  0.00  0.00    +0.173 HD
BRANCH  11  13
ATOM     13  S   UNL     1      35.706 -17.980 -21.503  0.00  0.00    +0.073 S 
ATOM     14  O   UNL     1      37.095 -17.951 -21.921  0.00  0.00    -0.150 OA
ATOM     15  O   UNL     1      35.329 -17.544 -20.172  0.00  0.00    -0.150 OA
BRANCH  13  16
ATOM     16  C   UNL     1      34.782 -16.997 -22.646  0.00  0.00    +0.125 C 
ATOM     17  C   UNL     1      34.219 -17.604 -23.755  0.00  0.00    +0.020 C 
ATOM     18  C   UNL     1      34.639 -15.642 -22.408  0.00  0.00    +0.020 C 
ATOM     19  C   UNL     1      33.488 -16.828 -24.656  0.00  0.00    +0.001 C 
ATOM     20  C   UNL     1      33.908 -14.867 -23.309  0.00  0.00    +0.001 C 
ATOM     21  C   UNL     1      33.333 -15.460 -24.433  0.00  0.00    +0.000 C 
ENDBRANCH  13  16
ENDBRANCH  11  13
ENDBRANCH   7  11
BRANCH   4  22
ATOM     22  C   UNL     1      33.318 -23.417 -15.839  0.00  0.00    +0.101 C 
BRANCH  22  23
ATOM     23  C   UNL     1      34.642 -23.659 -15.125  0.00  0.00    -0.014 C 
ATOM     24  C   UNL     1      35.373 -22.573 -14.690  0.00  0.00    -0.004 C 
ATOM     25  C   UNL     1      35.069 -24.957 -14.936  0.00  0.00    -0.004 C 
ATOM     26  C   UNL     1      36.585 -22.794 -14.036  0.00  0.00    +0.002 C 
ATOM     27  C   UNL     1      36.282 -25.179 -14.283  0.00  0.00    +0.002 C 
ATOM     28  C   UNL     1      37.039 -24.097 -13.833  0.00  0.00    +0.031 C 
BRANCH  28  31
ATOM     29  N   UNL     1      39.116 -25.412 -13.479  0.00  0.00    -0.343 N 
ATOM     30  N   UNL     1      38.700 -23.501 -12.200  0.00  0.00    -0.285 NA
ATOM     31  C   UNL     1      38.304 -24.328 -13.152  0.00  0.00    +0.117 C 
ATOM     32  H   UNL     1      39.968 -25.549 -13.005  0.00  0.00    +0.144 HD
ATOM     33  H   UNL     1      38.838 -26.041 -14.184  0.00  0.00    +0.144 HD
ATOM     34  H   UNL     1      39.555 -23.655 -11.738  0.00  0.00    +0.188 HD
ENDBRANCH  28  31
ENDBRANCH  22  23
ENDBRANCH   4  22
TORSDOF 6
ENDMDL
MODEL 5
REMARK VINA RESULT:     -13.0      2.649      6.209
REMARK  Name = 446805
REMARK  6 active torsions:
REMARK  status: ('A' for Active; 'I' for Inactive)
REMARK    1  A    between atoms: C_4  and  C_22
REMARK    2  A    between atoms: C_7  and  N_11
REMARK    3  A    between atoms: N_11  and  S_13
REMARK    4  A    between atoms: S_13  and  C_16
REMARK    5  A    between atoms: C_22  and  C_23
REMARK    6  A    between atoms: C_28  and  C_31
REMARK                            x       y       z     vdW  Elec       q    Type
REMARK                         _______ _______ _______ _____ _____    ______ ____
ROOT
ATOM      1  N   UNL     1      33.934 -22.387 -16.978  0.00  0.00    -0.262 N 
ATOM      2  N   UNL     1      32.053 -21.833 -18.024  0.00  0.00    -0.394 NA
ATOM      3  C   UNL     1      34.326 -21.670 -18.079  0.00  0.00    +0.079 C 
ATOM      4  C   UNL     1      32.569 -22.457 -16.989  0.00  0.00    +0.168 C 
ATOM      5  C   UNL     1      33.134 -21.335 -18.715  0.00  0.00    +0.129 C 
ATOM      6  C   UNL     1      33.179 -20.583 -19.902  0.00  0.00    +0.103 C 
ATOM      7  C   UNL     1      34.429 -20.198 -20.402  0.00  0.00    +0.050 C 
ATOM      8  C   UNL     1      35.582 -21.296 -18.558  0.00  0.00    +0.018 C 
ATOM      9  C   UNL     1      34.812 -22.965 -15.985  0.00  0.00    +0.119 C 
ATOM     10  C   UNL     1      35.608 -20.548 -19.740  0.00  0.00    +0.013 C 
ENDROOT
BRANCH   7  11
ATOM     11  N   UNL     1      34.498 -19.434 -21.607  0.00  0.00    -0.219 N 
ATOM     12  H   UNL     1      34.021 -19.712 -22.423  0.00  0.00    +0.173 HD
BRANCH  11  13
ATOM     13  S   UNL     1      35.461 -17.989 -21.562  0.00  0.00    +0.073 S 
ATOM     14  O   UNL     1      36.787 -18.282 -22.071  0.00  0.00    -0.150 OA
ATOM     15  O   UNL     1      35.294 -17.343 -20.274  0.00  0.00    -0.150 OA
BRANCH  13  16
ATOM     16  C   UNL     1      34.641 -16.973 -22.755  0.00  0.00    +0.125 C 
ATOM     17  C   UNL     1      34.075 -17.566 -23.870  0.00  0.00    +0.020 C 
ATOM     18  C   UNL     1      34.581 -15.607 -22.550  0.00  0.00    +0.020 C 
ATOM     19  C   UNL     1      33.428 -16.764 -24.811  0.00  0.00    +0.001 C 
ATOM     20  C   UNL     1      33.934 -14.805 -23.490  0.00  0.00    +0.001 C 
ATOM     21  C   UNL     1      33.357 -15.383 -24.620  0.00  0.00    +0.000 C 
ENDBRANCH  13  16
ENDBRANCH  11  13
ENDBRANCH   7  11
BRANCH   4  22
ATOM     22  C   UNL     1      31.810 -23.164 -15.937  0.00  0.00    +0.101 C 
BRANCH  22  23
ATOM     23  C   UNL     1      30.340 -22.769 -15.867  0.00  0.00    -0.014 C 
ATOM     24  C   UNL     1      29.889 -22.071 -14.766  0.00  0.00    -0.004 C 
ATOM     25  C   UNL     1      29.505 -23.123 -16.907  0.00  0.00    -0.004 C 
ATOM     26  C   UNL     1      28.543 -21.709 -14.702  0.00  0.00    +0.002 C 
ATOM     27  C   UNL     1      28.159 -22.763 -16.843  0.00  0.00    +0.002 C 
ATOM     28  C   UNL     1      27.679 -22.056 -15.741  0.00  0.00    +0.031 C 
BRANCH  28  31
ATOM     29  N   UNL     1      25.586 -21.246 -16.805  0.00  0.00    -0.343 N 
ATOM     30  N   UNL     1      25.631 -21.745 -14.522  0.00  0.00    -0.285 NA
ATOM     31  C   UNL     1      26.275 -21.680 -15.674  0.00  0.00    +0.117 C 
ATOM     32  H   UNL     1      24.636 -20.996 -16.736  0.00  0.00    +0.144 HD
ATOM     33  H   UNL     1      26.049 -21.188 -17.672  0.00  0.00    +0.144 HD
ATOM     34  H   UNL     1      24.681 -21.491 -14.474  0.00  0.00    +0.188 HD
ENDBRANCH  28  31
ENDBRANCH  22  23
ENDBRANCH   4  22
TORSDOF 6
ENDMDL
MODEL 6
REMARK VINA RESULT:     -13.0      4.215     10.491
REMARK  Name = 446805
REMARK  6 active torsions:
REMARK  status: ('A' for Active; 'I' for Inactive)
REMARK    1  A    between atoms: C_4  and  C_22
REMARK    2  A    between atoms: C_7  and  N_11
REMARK    3  A    between atoms: N_11  and  S_13
REMARK    4  A    between atoms: S_13  and  C_16
REMARK    5  A    between atoms: C_22  and  C_23
REMARK    6  A    between atoms: C_28  and  C_31
REMARK                            x       y       z     vdW  Elec       q    Type
REMARK                         _______ _______ _______ _____ _____    ______ ____
ROOT
ATOM      1  N   UNL     1      35.370 -18.716 -21.849  0.00  0.00    -0.262 N 
ATOM      2  N   UNL     1      33.183 -18.750 -22.243  0.00  0.00    -0.394 NA
ATOM      3  C   UNL     1      34.837 -19.529 -20.883  0.00  0.00    +0.079 C 
ATOM      4  C   UNL     1      34.343 -18.275 -22.636  0.00  0.00    +0.168 C 
ATOM      5  C   UNL     1      33.471 -19.536 -21.150  0.00  0.00    +0.129 C 
ATOM      6  C   UNL     1      32.615 -20.289 -20.329  0.00  0.00    +0.103 C 
ATOM      7  C   UNL     1      33.173 -21.010 -19.266  0.00  0.00    +0.050 C 
ATOM      8  C   UNL     1      35.414 -20.241 -19.830  0.00  0.00    +0.018 C 
ATOM      9  C   UNL     1      36.769 -18.385 -22.003  0.00  0.00    +0.119 C 
ATOM     10  C   UNL     1      34.548 -20.986 -19.023  0.00  0.00    +0.013 C 
ENDROOT
BRANCH   7  11
ATOM     11  N   UNL     1      32.321 -21.782 -18.418  0.00  0.00    -0.219 N 
ATOM     12  H   UNL     1      31.341 -21.687 -18.445  0.00  0.00    +0.173 HD
BRANCH  11  13
ATOM     13  S   UNL     1      33.098 -22.899 -17.338  0.00  0.00    +0.073 S 
ATOM     14  O   UNL     1      34.361 -22.339 -16.897  0.00  0.00    -0.150 OA
ATOM     15  O   UNL     1      33.043 -24.232 -17.910  0.00  0.00    -0.150 OA
BRANCH  13  16
ATOM     16  C   UNL     1      31.995 -22.889 -15.956  0.00  0.00    +0.125 C 
ATOM     17  C   UNL     1      30.636 -22.750 -16.179  0.00  0.00    +0.020 C 
ATOM     18  C   UNL     1      32.512 -23.022 -14.680  0.00  0.00    +0.020 C 
ATOM     19  C   UNL     1      29.766 -22.743 -15.089  0.00  0.00    +0.001 C 
ATOM     20  C   UNL     1      31.642 -23.016 -13.589  0.00  0.00    +0.001 C 
ATOM     21  C   UNL     1      30.269 -22.876 -13.794  0.00  0.00    +0.000 C 
ENDBRANCH  13  16
ENDBRANCH  11  13
ENDBRANCH   7  11
BRANCH   4  22
ATOM     22  C   UNL     1      34.565 -17.371 -23.784  0.00  0.00    +0.101 C 
BRANCH  22  23
ATOM     23  C   UNL     1      34.114 -15.937 -23.535  0.00  0.00    -0.014 C 
ATOM     24  C   UNL     1      33.476 -15.254 -24.549  0.00  0.00    -0.004 C 
ATOM     25  C   UNL     1      34.359 -15.367 -22.302  0.00  0.00    -0.004 C 
ATOM     26  C   UNL     1      33.063 -13.940 -24.321  0.00  0.00    +0.002 C 
ATOM     27  C   UNL     1      33.947 -14.054 -22.074  0.00  0.00    +0.002 C 
ATOM     28  C   UNL     1      33.299 -13.341 -23.084  0.00  0.00    +0.031 C 
BRANCH  28  31
ATOM     29  N   UNL     1      31.805 -11.684 -21.994  0.00  0.00    -0.343 N 
ATOM     30  N   UNL     1      33.491 -10.973 -23.447  0.00  0.00    -0.285 NA
ATOM     31  C   UNL     1      32.870 -11.972 -22.846  0.00  0.00    +0.117 C 
ATOM     32  H   UNL     1      31.531 -10.749 -21.848  0.00  0.00    +0.144 HD
ATOM     33  H   UNL     1      31.327 -12.414 -21.538  0.00  0.00    +0.144 HD
ATOM     34  H   UNL     1      33.203 -10.046 -23.288  0.00  0.00    +0.188 HD
ENDBRANCH  28  31
ENDBRANCH  22  23
ENDBRANCH   4  22
TORSDOF 6
ENDMDL
MODEL 7
REMARK VINA RESULT:     -12.8      5.296     12.250
REMARK  Name = 446805
REMARK  6 active torsions:
REMARK  status: ('A' for Active; 'I' for Inactive)
REMARK    1  A    between atoms: C_4  and  C_22
REMARK    2  A    between atoms: C_7  and  N_11
REMARK    3  A    between atoms: N_11  and  S_13
REMARK    4  A    between atoms: S_13  and  C_16
REMARK    5  A    between atoms: C_22  and  C_23
REMARK    6  A    between atoms: C_28  and  C_31
REMARK                            x       y       z     vdW  Elec       q    Type
REMARK                         _______ _______ _______ _____ _____    ______ ____
ROOT
ATOM      1  N   UNL     1      33.050 -13.234 -24.588  0.00  0.00    -0.262 N 
ATOM      2  N   UNL     1      33.324 -12.456 -22.525  0.00  0.00    -0.394 NA
ATOM      3  C   UNL     1      33.485 -14.304 -23.849  0.00  0.00    +0.079 C 
ATOM      4  C   UNL     1      32.969 -12.155 -23.754  0.00  0.00    +0.168 C 
ATOM      5  C   UNL     1      33.648 -13.793 -22.564  0.00  0.00    +0.129 C 
ATOM      6  C   UNL     1      34.093 -14.645 -21.539  0.00  0.00    +0.103 C 
ATOM      7  C   UNL     1      34.357 -15.984 -21.851  0.00  0.00    +0.050 C 
ATOM      8  C   UNL     1      33.740 -15.634 -24.182  0.00  0.00    +0.018 C 
ATOM      9  C   UNL     1      32.735 -13.250 -25.999  0.00  0.00    +0.119 C 
ATOM     10  C   UNL     1      34.183 -16.468 -23.150  0.00  0.00    +0.013 C 
ENDROOT
BRANCH   7  11
ATOM     11  N   UNL     1      34.811 -16.868 -20.825  0.00  0.00    -0.219 N 
ATOM     12  H   UNL     1      34.637 -16.686 -19.872  0.00  0.00    +0.173 HD
BRANCH  11  13
ATOM     13  S   UNL     1      35.683 -18.279 -21.338  0.00  0.00    +0.073 S 
ATOM     14  O   UNL     1      37.041 -18.214 -20.833  0.00  0.00    -0.150 OA
ATOM     15  O   UNL     1      35.433 -18.507 -22.749  0.00  0.00    -0.150 OA
BRANCH  13  16
ATOM     16  C   UNL     1      34.844 -19.562 -20.455  0.00  0.00    +0.125 C 
ATOM     17  C   UNL     1      35.583 -20.458 -19.704  0.00  0.00    +0.020 C 
ATOM     18  C   UNL     1      33.465 -19.642 -20.533  0.00  0.00    +0.020 C 
ATOM     19  C   UNL     1      34.921 -21.469 -19.008  0.00  0.00    +0.001 C 
ATOM     20  C   UNL     1      32.803 -20.653 -19.836  0.00  0.00    +0.001 C 
ATOM     21  C   UNL     1      33.530 -21.567 -19.073  0.00  0.00    +0.000 C 
ENDBRANCH  13  16
ENDBRANCH  11  13
ENDBRANCH   7  11
BRANCH   4  22
ATOM     22  C   UNL     1      32.530 -10.826 -24.228  0.00  0.00    +0.101 C 
BRANCH  22  23
ATOM     23  C   UNL     1      32.239  -9.837 -23.107  0.00  0.00    -0.014 C 
ATOM     24  C   UNL     1      31.353 -10.197 -22.113  0.00  0.00    -0.004 C 
ATOM     25  C   UNL     1      32.870  -8.610 -23.121  0.00  0.00    -0.004 C 
ATOM     26  C   UNL     1      31.087  -9.291 -21.086  0.00  0.00    +0.002 C 
ATOM     27  C   UNL     1      32.604  -7.703 -22.095  0.00  0.00    +0.002 C 
ATOM     28  C   UNL     1      31.712  -8.044 -21.078  0.00  0.00    +0.031 C 
BRANCH  28  31
ATOM     29  N   UNL     1      31.252  -5.742 -20.269  0.00  0.00    -0.343 N 
ATOM     30  N   UNL     1      31.352  -7.523 -18.759  0.00  0.00    -0.285 NA
ATOM     31  C   UNL     1      31.434  -7.099 -20.008  0.00  0.00    +0.117 C 
ATOM     32  H   UNL     1      31.065  -5.119 -19.529  0.00  0.00    +0.144 HD
ATOM     33  H   UNL     1      31.311  -5.405 -21.192  0.00  0.00    +0.144 HD
ATOM     34  H   UNL     1      31.164  -6.885 -18.034  0.00  0.00    +0.188 HD
ENDBRANCH  28  31
ENDBRANCH  22  23
ENDBRANCH   4  22
TORSDOF 6
ENDMDL
MODEL 8
REMARK VINA RESULT:     -12.8      4.154      9.148
REMARK  Name = 446805
REMARK  6 active torsions:
REMARK  status: ('A' for Active; 'I' for Inactive)
REMARK    1  A    between atoms: C_4  and  C_22
REMARK    2  A    between atoms: C_7  and  N_11
REMARK    3  A    between atoms: N_11  and  S_13
REMARK    4  A    between atoms: S_13  and  C_16
REMARK    5  A    between atoms: C_22  and  C_23
REMARK    6  A    between atoms: C_28  and  C_31
REMARK                            x       y       z     vdW  Elec       q    Type
REMARK                         _______ _______ _______ _____ _____    ______ ____
ROOT
ATOM      1  N   UNL     1      31.736 -22.684 -16.137  0.00  0.00    -0.262 N 
ATOM      2  N   UNL     1      33.767 -23.191 -16.883  0.00  0.00    -0.394 NA
ATOM      3  C   UNL     1      32.419 -23.156 -15.046  0.00  0.00    +0.079 C 
ATOM      4  C   UNL     1      32.582 -22.724 -17.209  0.00  0.00    +0.168 C 
ATOM      5  C   UNL     1      33.684 -23.465 -15.537  0.00  0.00    +0.129 C 
ATOM      6  C   UNL     1      34.653 -23.983 -14.661  0.00  0.00    +0.103 C 
ATOM      7  C   UNL     1      34.305 -24.170 -13.317  0.00  0.00    +0.050 C 
ATOM      8  C   UNL     1      32.051 -23.333 -13.712  0.00  0.00    +0.018 C 
ATOM      9  C   UNL     1      30.364 -22.227 -16.146  0.00  0.00    +0.119 C 
ATOM     10  C   UNL     1      33.027 -23.850 -12.853  0.00  0.00    +0.013 C 
ENDROOT
BRANCH   7  11
ATOM     11  N   UNL     1      35.273 -24.697 -12.408  0.00  0.00    -0.219 N 
ATOM     12  H   UNL     1      35.190 -25.603 -12.032  0.00  0.00    +0.173 HD
BRANCH  11  13
ATOM     13  S   UNL     1      36.607 -23.660 -12.001  0.00  0.00    +0.073 S 
ATOM     14  O   UNL     1      37.096 -24.007 -10.681  0.00  0.00    -0.150 OA
ATOM     15  O   UNL     1      36.259 -22.288 -12.320  0.00  0.00    -0.150 OA
BRANCH  13  16
ATOM     16  C   UNL     1      37.828 -24.167 -13.176  0.00  0.00    +0.125 C 
ATOM     17  C   UNL     1      37.941 -23.476 -14.370  0.00  0.00    +0.020 C 
ATOM     18  C   UNL     1      38.645 -25.241 -12.878  0.00  0.00    +0.020 C 
ATOM     19  C   UNL     1      38.905 -23.875 -15.296  0.00  0.00    +0.001 C 
ATOM     20  C   UNL     1      39.609 -25.640 -13.804  0.00  0.00    +0.001 C 
ATOM     21  C   UNL     1      39.739 -24.957 -15.013  0.00  0.00    +0.000 C 
ENDBRANCH  13  16
ENDBRANCH  11  13
ENDBRANCH   7  11
BRANCH   4  22
ATOM     22  C   UNL     1      32.165 -22.283 -18.556  0.00  0.00    +0.101 C 
BRANCH  22  23
ATOM     23  C   UNL     1      33.158 -21.346 -19.234  0.00  0.00    -0.014 C 
ATOM     24  C   UNL     1      32.677 -20.314 -20.011  0.00  0.00    -0.004 C 
ATOM     25  C   UNL     1      34.508 -21.561 -19.048  0.00  0.00    -0.004 C 
ATOM     26  C   UNL     1      33.586 -19.456 -20.631  0.00  0.00    +0.002 C 
ATOM     27  C   UNL     1      35.418 -20.705 -19.669  0.00  0.00    +0.002 C 
ATOM     28  C   UNL     1      34.956 -19.652 -20.460  0.00  0.00    +0.031 C 
BRANCH  28  31
ATOM     29  N   UNL     1      35.718 -18.332 -22.420  0.00  0.00    -0.343 N 
ATOM     30  N   UNL     1      36.970 -18.340 -20.446  0.00  0.00    -0.285 NA
ATOM     31  C   UNL     1      35.904 -18.759 -21.107  0.00  0.00    +0.117 C 
ATOM     32  H   UNL     1      36.373 -17.727 -22.838  0.00  0.00    +0.144 HD
ATOM     33  H   UNL     1      34.932 -18.635 -22.930  0.00  0.00    +0.144 HD
ATOM     34  H   UNL     1      37.613 -17.736 -20.882  0.00  0.00    +0.188 HD
ENDBRANCH  28  31
ENDBRANCH  22  23
ENDBRANCH   4  22
TORSDOF 6
ENDMDL
MODEL 9
REMARK VINA RESULT:     -12.2      3.526     10.227
REMARK  Name = 446805
REMARK  6 active torsions:
REMARK  status: ('A' for Active; 'I' for Inactive)
REMARK    1  A    between atoms: C_4  and  C_22
REMARK    2  A    between atoms: C_7  and  N_11
REMARK    3  A    between atoms: N_11  and  S_13
REMARK    4  A    between atoms: S_13  and  C_16
REMARK    5  A    between atoms: C_22  and  C_23
REMARK    6  A    between atoms: C_28  and  C_31
REMARK                            x       y       z     vdW  Elec       q    Type
REMARK                         _______ _______ _______ _____ _____    ______ ____
ROOT
ATOM      1  N   UNL     1      34.099 -19.828 -20.825  0.00  0.00    -0.262 N 
ATOM      2  N   UNL     1      36.246 -19.475 -20.371  0.00  0.00    -0.394 NA
ATOM      3  C   UNL     1      34.349 -20.527 -19.672  0.00  0.00    +0.079 C 
ATOM      4  C   UNL     1      35.262 -19.217 -21.202  0.00  0.00    +0.168 C 
ATOM      5  C   UNL     1      35.695 -20.290 -19.408  0.00  0.00    +0.129 C 
ATOM      6  C   UNL     1      36.284 -20.873 -18.273  0.00  0.00    +0.103 C 
ATOM      7  C   UNL     1      35.489 -21.675 -17.445  0.00  0.00    +0.050 C 
ATOM      8  C   UNL     1      33.537 -21.320 -18.860  0.00  0.00    +0.018 C 
ATOM      9  C   UNL     1      32.831 -19.754 -21.514  0.00  0.00    +0.119 C 
ATOM     10  C   UNL     1      34.139 -21.893 -17.735  0.00  0.00    +0.013 C 
ENDROOT
BRANCH   7  11
ATOM     11  N   UNL     1      36.067 -22.278 -16.286  0.00  0.00    -0.219 N 
ATOM     12  H   UNL     1      37.033 -22.224 -16.103  0.00  0.00    +0.173 HD
BRANCH  11  13
ATOM     13  S   UNL     1      34.982 -23.109 -15.215  0.00  0.00    +0.073 S 
ATOM     14  O   UNL     1      34.642 -24.399 -15.782  0.00  0.00    -0.150 OA
ATOM     15  O   UNL     1      33.939 -22.195 -14.789  0.00  0.00    -0.150 OA
BRANCH  13  16
ATOM     16  C   UNL     1      36.016 -23.397 -13.809  0.00  0.00    +0.125 C 
ATOM     17  C   UNL     1      35.611 -22.935 -12.569  0.00  0.00    +0.020 C 
ATOM     18  C   UNL     1      37.207 -24.079 -13.977  0.00  0.00    +0.020 C 
ATOM     19  C   UNL     1      36.427 -23.163 -11.460  0.00  0.00    +0.001 C 
ATOM     20  C   UNL     1      38.023 -24.307 -12.868  0.00  0.00    +0.001 C 
ATOM     21  C   UNL     1      37.632 -23.849 -11.609  0.00  0.00    +0.000 C 
ENDBRANCH  13  16
ENDBRANCH  11  13
ENDBRANCH   7  11
BRANCH   4  22
ATOM     22  C   UNL     1      35.350 -18.375 -22.414  0.00  0.00    +0.101 C 
BRANCH  22  23
ATOM     23  C   UNL     1      34.792 -16.970 -22.230  0.00  0.00    -0.014 C 
ATOM     24  C   UNL     1      34.512 -16.213 -23.349  0.00  0.00    -0.004 C 
ATOM     25  C   UNL     1      34.585 -16.498 -20.950  0.00  0.00    -0.004 C 
ATOM     26  C   UNL     1      34.001 -14.925 -23.180  0.00  0.00    +0.002 C 
ATOM     27  C   UNL     1      34.075 -15.211 -20.782  0.00  0.00    +0.002 C 
ATOM     28  C   UNL     1      33.783 -14.425 -21.897  0.00  0.00    +0.031 C 
BRANCH  28  31
ATOM     29  N   UNL     1      32.333 -12.793 -20.713  0.00  0.00    -0.343 N 
ATOM     30  N   UNL     1      33.636 -12.111 -22.529  0.00  0.00    -0.285 NA
ATOM     31  C   UNL     1      33.251 -13.082 -21.721  0.00  0.00    +0.117 C 
ATOM     32  H   UNL     1      31.985 -11.877 -20.613  0.00  0.00    +0.144 HD
ATOM     33  H   UNL     1      32.031 -13.503 -20.103  0.00  0.00    +0.144 HD
ATOM     34  H   UNL     1      33.277 -11.201 -22.413  0.00  0.00    +0.188 HD
ENDBRANCH  28  31
ENDBRANCH  22  23
ENDBRANCH   4  22
TORSDOF 6
ENDMDL
