MODEL 1
REMARK VINA RESULT:     -12.0      0.000      0.000
REMARK  Name = 25273230
REMARK  3 active torsions:
REMARK  status: ('A' for Active; 'I' for Inactive)
REMARK    1  A    between atoms: N_3  and  C_22
REMARK    2  A    between atoms: C_4  and  N_13
REMARK    3  A    between atoms: C_12  and  C_30
REMARK                            x       y       z     vdW  Elec       q    Type
REMARK                         _______ _______ _______ _____ _____    ______ ____
ROOT
ATOM      1  F   UNL     1      33.768 -24.611 -11.945  0.00  0.00    -0.203 F 
ATOM      2  O   UNL     1      29.315 -23.453 -13.959  0.00  0.00    -0.286 OA
ATOM      3  N   UNL     1      32.074 -22.358 -16.794  0.00  0.00    -0.264 N 
ATOM      4  C   UNL     1      34.309 -23.732 -14.082  0.00  0.00    +0.077 C 
ATOM      5  C   UNL     1      33.892 -23.173 -15.294  0.00  0.00    +0.032 C 
ATOM      6  C   UNL     1      32.531 -22.931 -15.556  0.00  0.00    +0.060 C 
ATOM      7  C   UNL     1      33.375 -24.075 -13.110  0.00  0.00    +0.153 C 
ATOM      8  C   UNL     1      31.600 -23.316 -14.566  0.00  0.00    +0.055 C 
ATOM      9  C   UNL     1      32.019 -23.874 -13.351  0.00  0.00    +0.035 C 
ATOM     10  C   UNL     1      30.146 -23.157 -14.809  0.00  0.00    +0.204 C 
ATOM     11  C   UNL     1      30.697 -22.282 -16.996  0.00  0.00    +0.079 C 
ATOM     12  C   UNL     1      29.741 -22.631 -16.132  0.00  0.00    +0.134 C 
ENDROOT
BRANCH   4  13
ATOM     13  N   UNL     1      35.672 -23.945 -13.849  0.00  0.00    -0.310 N 
ATOM     14  N   UNL     1      38.457 -24.287 -13.558  0.00  0.00    +0.386 N 
ATOM     15  C   UNL     1      36.409 -24.766 -14.823  0.00  0.00    +0.068 C 
ATOM     16  C   UNL     1      36.455 -22.926 -13.142  0.00  0.00    +0.068 C 
ATOM     17  C   UNL     1      37.649 -25.373 -14.184  0.00  0.00    -0.060 C 
ATOM     18  C   UNL     1      37.698 -23.541 -12.514  0.00  0.00    -0.060 C 
ATOM     19  H   UNL     1      38.743 -23.632 -14.285  0.00  0.00    -0.084 HD
ATOM     20  H   UNL     1      39.262 -24.721 -13.106  0.00  0.00    -0.084 HD
ENDBRANCH   4  13
BRANCH   3  22
ATOM     21  F   UNL     1      35.428 -20.275 -20.711  0.00  0.00    -0.204 F 
ATOM     22  C   UNL     1      32.939 -21.822 -17.803  0.00  0.00    +0.056 C 
ATOM     23  C   UNL     1      32.401 -21.103 -18.870  0.00  0.00    +0.017 C 
ATOM     24  C   UNL     1      34.317 -22.018 -17.717  0.00  0.00    +0.017 C 
ATOM     25  C   UNL     1      33.242 -20.580 -19.853  0.00  0.00    +0.031 C 
ATOM     26  C   UNL     1      35.158 -21.495 -18.700  0.00  0.00    +0.031 C 
ATOM     27  C   UNL     1      34.620 -20.776 -19.768  0.00  0.00    +0.140 C 
ENDBRANCH   3  22
BRANCH  12  30
ATOM     28  O   UNL     1      27.832 -23.347 -17.294  0.00  0.00    -0.240 OA
ATOM     29  O   UNL     1      27.728 -21.426 -16.054  0.00  0.00    -0.240 OA
ATOM     30  C   UNL     1      28.294 -22.451 -16.531  0.00  0.00    +0.392 C 
ENDBRANCH  12  30
TORSDOF 3
ENDMDL
MODEL 2
REMARK VINA RESULT:     -11.7      3.189      6.128
REMARK  Name = 25273230
REMARK  3 active torsions:
REMARK  status: ('A' for Active; 'I' for Inactive)
REMARK    1  A    between atoms: N_3  and  C_22
REMARK    2  A    between atoms: C_4  and  N_13
REMARK    3  A    between atoms: C_12  and  C_30
REMARK                            x       y       z     vdW  Elec       q    Type
REMARK                         _______ _______ _______ _____ _____    ______ ____
ROOT
ATOM      1  F   UNL     1      30.444 -24.663 -12.830  0.00  0.00    -0.203 F 
ATOM      2  O   UNL     1      35.439 -24.703 -12.309  0.00  0.00    -0.286 OA
ATOM      3  N   UNL     1      34.760 -22.703 -15.827  0.00  0.00    -0.264 N 
ATOM      4  C   UNL     1      31.235 -23.483 -14.730  0.00  0.00    +0.077 C 
ATOM      5  C   UNL     1      32.307 -22.989 -15.480  0.00  0.00    +0.032 C 
ATOM      6  C   UNL     1      33.638 -23.200 -15.076  0.00  0.00    +0.060 C 
ATOM      7  C   UNL     1      31.468 -24.187 -13.553  0.00  0.00    +0.153 C 
ATOM      8  C   UNL     1      33.848 -23.891 -13.863  0.00  0.00    +0.055 C 
ATOM      9  C   UNL     1      32.772 -24.388 -13.113  0.00  0.00    +0.035 C 
ATOM     10  C   UNL     1      35.223 -24.083 -13.342  0.00  0.00    +0.204 C 
ATOM     11  C   UNL     1      36.027 -22.860 -15.269  0.00  0.00    +0.079 C 
ATOM     12  C   UNL     1      36.325 -23.483 -14.126  0.00  0.00    +0.134 C 
ENDROOT
BRANCH   4  13
ATOM     13  N   UNL     1      29.924 -23.266 -15.169  0.00  0.00    -0.310 N 
ATOM     14  N   UNL     1      27.219 -22.952 -15.907  0.00  0.00    +0.386 N 
ATOM     15  C   UNL     1      29.147 -24.439 -15.601  0.00  0.00    +0.068 C 
ATOM     16  C   UNL     1      29.150 -22.148 -14.618  0.00  0.00    +0.068 C 
ATOM     17  C   UNL     1      28.032 -24.026 -16.548  0.00  0.00    -0.060 C 
ATOM     18  C   UNL     1      28.031 -21.747 -15.569  0.00  0.00    -0.060 C 
ATOM     19  H   UNL     1      26.809 -23.319 -15.049  0.00  0.00    -0.084 HD
ATOM     20  H   UNL     1      26.503 -22.665 -16.573  0.00  0.00    -0.084 HD
ENDBRANCH   4  13
BRANCH   3  22
ATOM     21  F   UNL     1      34.377 -20.380 -20.867  0.00  0.00    -0.204 F 
ATOM     22  C   UNL     1      34.660 -22.104 -17.126  0.00  0.00    +0.056 C 
ATOM     23  C   UNL     1      35.765 -21.462 -17.682  0.00  0.00    +0.017 C 
ATOM     24  C   UNL     1      33.459 -22.166 -17.833  0.00  0.00    +0.017 C 
ATOM     25  C   UNL     1      35.670 -20.879 -18.946  0.00  0.00    +0.031 C 
ATOM     26  C   UNL     1      33.364 -21.583 -19.097  0.00  0.00    +0.031 C 
ATOM     27  C   UNL     1      34.469 -20.939 -19.653  0.00  0.00    +0.140 C 
ENDBRANCH   3  22
BRANCH  12  30
ATOM     28  O   UNL     1      38.572 -23.986 -14.583  0.00  0.00    -0.240 OA
ATOM     29  O   UNL     1      38.003 -23.211 -12.507  0.00  0.00    -0.240 OA
ATOM     30  C   UNL     1      37.773 -23.568 -13.697  0.00  0.00    +0.392 C 
ENDBRANCH  12  30
TORSDOF 3
ENDMDL
MODEL 3
REMARK VINA RESULT:     -10.2      3.689      7.044
REMARK  Name = 25273230
REMARK  3 active torsions:
REMARK  status: ('A' for Active; 'I' for Inactive)
REMARK    1  A    between atoms: N_3  and  C_22
REMARK    2  A    between atoms: C_4  and  N_13
REMARK    3  A    between atoms: C_12  and  C_30
REMARK                            x       y       z     vdW  Elec       q    Type
REMARK                         _______ _______ _______ _____ _____    ______ ____
ROOT
ATOM      1  F   UNL     1      37.006 -21.027 -17.746  0.00  0.00    -0.203 F 
ATOM      2  O   UNL     1      37.574 -23.333 -13.320  0.00  0.00    -0.286 OA
ATOM      3  N   UNL     1      33.587 -23.724 -14.211  0.00  0.00    -0.264 N 
ATOM      4  C   UNL     1      34.835 -21.831 -17.227  0.00  0.00    +0.077 C 
ATOM      5  C   UNL     1      33.978 -22.506 -16.351  0.00  0.00    +0.032 C 
ATOM      6  C   UNL     1      34.445 -23.026 -15.130  0.00  0.00    +0.060 C 
ATOM      7  C   UNL     1      36.180 -21.673 -16.910  0.00  0.00    +0.153 C 
ATOM      8  C   UNL     1      35.820 -22.879 -14.845  0.00  0.00    +0.055 C 
ATOM      9  C   UNL     1      36.678 -22.201 -15.723  0.00  0.00    +0.035 C 
ATOM     10  C   UNL     1      36.392 -23.468 -13.610  0.00  0.00    +0.204 C 
ATOM     11  C   UNL     1      34.182 -24.307 -13.094  0.00  0.00    +0.079 C 
ATOM     12  C   UNL     1      35.470 -24.237 -12.746  0.00  0.00    +0.134 C 
ENDROOT
BRANCH   4  13
ATOM     13  N   UNL     1      34.332 -21.314 -18.427  0.00  0.00    -0.310 N 
ATOM     14  N   UNL     1      33.239 -20.122 -20.739  0.00  0.00    +0.386 N 
ATOM     15  C   UNL     1      32.874 -21.162 -18.546  0.00  0.00    +0.068 C 
ATOM     16  C   UNL     1      35.144 -20.374 -19.207  0.00  0.00    +0.068 C 
ATOM     17  C   UNL     1      32.451 -21.156 -20.007  0.00  0.00    -0.060 C 
ATOM     18  C   UNL     1      34.708 -20.368 -20.666  0.00  0.00    -0.060 C 
ATOM     19  H   UNL     1      33.041 -19.209 -20.330  0.00  0.00    -0.084 HD
ATOM     20  H   UNL     1      32.967 -20.162 -21.720  0.00  0.00    -0.084 HD
ENDBRANCH   4  13
BRANCH   3  22
ATOM     21  F   UNL     1      28.062 -24.083 -14.735  0.00  0.00    -0.204 F 
ATOM     22  C   UNL     1      32.164 -23.816 -14.347  0.00  0.00    +0.056 C 
ATOM     23  C   UNL     1      31.438 -24.663 -13.509  0.00  0.00    +0.017 C 
ATOM     24  C   UNL     1      31.504 -23.059 -15.315  0.00  0.00    +0.017 C 
ATOM     25  C   UNL     1      30.052 -24.753 -13.640  0.00  0.00    +0.031 C 
ATOM     26  C   UNL     1      30.118 -23.150 -15.445  0.00  0.00    +0.031 C 
ATOM     27  C   UNL     1      29.392 -23.997 -14.608  0.00  0.00    +0.140 C 
ENDBRANCH   3  22
BRANCH  12  30
ATOM     28  O   UNL     1      35.452 -24.437 -10.407  0.00  0.00    -0.240 OA
ATOM     29  O   UNL     1      36.711 -25.895 -11.641  0.00  0.00    -0.240 OA
ATOM     30  C   UNL     1      35.921 -24.922 -11.476  0.00  0.00    +0.392 C 
ENDBRANCH  12  30
TORSDOF 3
ENDMDL
MODEL 4
REMARK VINA RESULT:      -9.3      2.628      5.975
REMARK  Name = 25273230
REMARK  3 active torsions:
REMARK  status: ('A' for Active; 'I' for Inactive)
REMARK    1  A    between atoms: N_3  and  C_22
REMARK    2  A    between atoms: C_4  and  N_13
REMARK    3  A    between atoms: C_12  and  C_30
REMARK                            x       y       z     vdW  Elec       q    Type
REMARK                         _______ _______ _______ _____ _____    ______ ____
ROOT
ATOM      1  F   UNL     1      31.618 -20.356 -19.980  0.00  0.00    -0.203 F 
ATOM      2  O   UNL     1      29.861 -23.006 -16.092  0.00  0.00    -0.286 OA
ATOM      3  N   UNL     1      33.941 -23.067 -15.655  0.00  0.00    -0.264 N 
ATOM      4  C   UNL     1      33.566 -20.992 -18.785  0.00  0.00    +0.077 C 
ATOM      5  C   UNL     1      34.151 -21.664 -17.706  0.00  0.00    +0.032 C 
ATOM      6  C   UNL     1      33.367 -22.368 -16.773  0.00  0.00    +0.060 C 
ATOM      7  C   UNL     1      32.185 -20.998 -18.948  0.00  0.00    +0.153 C 
ATOM      8  C   UNL     1      31.966 -22.334 -16.945  0.00  0.00    +0.055 C 
ATOM      9  C   UNL     1      31.381 -21.662 -18.027  0.00  0.00    +0.035 C 
ATOM     10  C   UNL     1      31.078 -22.993 -15.956  0.00  0.00    +0.204 C 
ATOM     11  C   UNL     1      33.064 -23.622 -14.725  0.00  0.00    +0.079 C 
ATOM     12  C   UNL     1      31.730 -23.629 -14.791  0.00  0.00    +0.134 C 
ENDROOT
BRANCH   4  13
ATOM     13  N   UNL     1      34.378 -20.314 -19.701  0.00  0.00    -0.310 N 
ATOM     14  N   UNL     1      36.086 -19.124 -21.605  0.00  0.00    +0.386 N 
ATOM     15  C   UNL     1      35.834 -20.477 -19.572  0.00  0.00    +0.068 C 
ATOM     16  C   UNL     1      33.876 -20.044 -21.053  0.00  0.00    +0.068 C 
ATOM     17  C   UNL     1      36.564 -19.302 -20.203  0.00  0.00    -0.060 C 
ATOM     18  C   UNL     1      34.618 -18.872 -21.679  0.00  0.00    -0.060 C 
ATOM     19  H   UNL     1      36.298 -19.971 -22.132  0.00  0.00    -0.084 HD
ATOM     20  H   UNL     1      36.561 -18.311 -21.994  0.00  0.00    -0.084 HD
ENDBRANCH   4  13
BRANCH   3  22
ATOM     21  F   UNL     1      39.398 -23.846 -14.914  0.00  0.00    -0.204 F 
ATOM     22  C   UNL     1      35.348 -23.266 -15.464  0.00  0.00    +0.056 C 
ATOM     23  C   UNL     1      35.807 -24.427 -14.843  0.00  0.00    +0.017 C 
ATOM     24  C   UNL     1      36.255 -22.301 -15.900  0.00  0.00    +0.017 C 
ATOM     25  C   UNL     1      37.176 -24.624 -14.657  0.00  0.00    +0.031 C 
ATOM     26  C   UNL     1      37.624 -22.498 -15.713  0.00  0.00    +0.031 C 
ATOM     27  C   UNL     1      38.085 -23.658 -15.092  0.00  0.00    +0.140 C 
ENDBRANCH   3  22
BRANCH  12  30
ATOM     28  O   UNL     1      30.403 -25.401 -14.008  0.00  0.00    -0.240 OA
ATOM     29  O   UNL     1      30.939 -23.694 -12.581  0.00  0.00    -0.240 OA
ATOM     30  C   UNL     1      30.949 -24.307 -13.687  0.00  0.00    +0.392 C 
ENDBRANCH  12  30
TORSDOF 3
ENDMDL
