MODEL 1
REMARK VINA RESULT:     -11.9      0.000      0.000
REMARK  Name = 16122567
REMARK  6 active torsions:
REMARK  status: ('A' for Active; 'I' for Inactive)
REMARK    1  A    between atoms: C_1  and  C_4
REMARK    2  A    between atoms: C_1  and  C_14
REMARK    3  A    between atoms: C_1  and  P_26
REMARK    4  A    between atoms: N_13  and  C_16
REMARK    5  A    between atoms: P_26  and  O_28
REMARK    6  A    between atoms: P_26  and  O_30
REMARK                            x       y       z     vdW  Elec       q    Type
REMARK                         _______ _______ _______ _____ _____    ______ ____
ROOT
ATOM      1  C   UNL     1      35.775 -23.408 -15.408  0.00  0.00    +0.203 C 
ENDROOT
BRANCH   1   4
ATOM      2 CL   UNL     1      30.338 -22.221 -16.849  0.00  0.00    -0.082 Cl
ATOM      3  S   UNL     1      33.816 -23.769 -11.929  0.00  0.00    -0.087 S 
ATOM      4  C   UNL     1      34.793 -23.467 -14.276  0.00  0.00    +0.005 C 
ATOM      5  C   UNL     1      33.388 -23.207 -14.416  0.00  0.00    +0.004 C 
ATOM      6  C   UNL     1      32.724 -23.338 -13.193  0.00  0.00    +0.029 C 
ATOM      7  C   UNL     1      35.152 -23.781 -12.986  0.00  0.00    +0.032 C 
ATOM      8  C   UNL     1      32.627 -22.856 -15.557  0.00  0.00    +0.012 C 
ATOM      9  C   UNL     1      31.335 -23.130 -13.082  0.00  0.00    +0.007 C 
ATOM     10  C   UNL     1      31.248 -22.649 -15.451  0.00  0.00    +0.058 C 
ATOM     11  C   UNL     1      30.612 -22.785 -14.226  0.00  0.00    +0.012 C 
ENDBRANCH   1   4
BRANCH   1  14
ATOM     12  O   UNL     1      35.912 -21.048 -15.791  0.00  0.00    -0.274 OA
ATOM     13  N   UNL     1      35.043 -22.414 -17.499  0.00  0.00    -0.283 N 
ATOM     14  C   UNL     1      35.592 -22.145 -16.237  0.00  0.00    +0.242 C 
ATOM     15  H   UNL     1      34.850 -23.360 -17.691  0.00  0.00    +0.155 HD
BRANCH  13  16
ATOM     16  C   UNL     1      34.738 -21.510 -18.518  0.00  0.00    +0.050 C 
ATOM     17  C   UNL     1      35.464 -19.838 -20.130  0.00  0.00    +0.001 C 
ATOM     18  C   UNL     1      35.753 -20.752 -19.104  0.00  0.00    +0.015 C 
ATOM     19  C   UNL     1      34.126 -19.690 -20.568  0.00  0.00    +0.000 C 
ATOM     20  C   UNL     1      33.423 -21.365 -18.949  0.00  0.00    +0.015 C 
ATOM     21  C   UNL     1      33.118 -20.462 -19.967  0.00  0.00    +0.001 C 
ATOM     22  C   UNL     1      36.472 -19.067 -20.731  0.00  0.00    +0.000 C 
ATOM     23  C   UNL     1      33.836 -18.776 -21.594  0.00  0.00    +0.000 C 
ATOM     24  C   UNL     1      36.166 -18.164 -21.748  0.00  0.00    +0.000 C 
ATOM     25  C   UNL     1      34.850 -18.018 -22.179  0.00  0.00    +0.000 C 
ENDBRANCH  13  16
ENDBRANCH   1  14
BRANCH   1  26
ATOM     26  P   UNL     1      37.435 -23.562 -14.694  0.00  0.00    +0.349 P 
ATOM     27  O   UNL     1      37.767 -24.946 -14.266  0.00  0.00    -0.257 OA
BRANCH  26  28
ATOM     28  O   UNL     1      37.415 -22.442 -13.540  0.00  0.00    -0.323 OA
ATOM     29  H   UNL     1      38.237 -22.490 -13.027  0.00  0.00    +0.220 HD
ENDBRANCH  26  28
BRANCH  26  30
ATOM     30  O   UNL     1      38.361 -22.926 -15.843  0.00  0.00    -0.323 OA
ATOM     31  H   UNL     1      39.291 -22.966 -15.570  0.00  0.00    +0.220 HD
ENDBRANCH  26  30
ENDBRANCH   1  26
TORSDOF 6
ENDMDL
MODEL 2
REMARK VINA RESULT:     -11.5      7.881     11.545
REMARK  Name = 16122567
REMARK  6 active torsions:
REMARK  status: ('A' for Active; 'I' for Inactive)
REMARK    1  A    between atoms: C_1  and  C_4
REMARK    2  A    between atoms: C_1  and  C_14
REMARK    3  A    between atoms: C_1  and  P_26
REMARK    4  A    between atoms: N_13  and  C_16
REMARK    5  A    between atoms: P_26  and  O_28
REMARK    6  A    between atoms: P_26  and  O_30
REMARK                            x       y       z     vdW  Elec       q    Type
REMARK                         _______ _______ _______ _____ _____    ______ ____
ROOT
ATOM      1  C   UNL     1      33.997 -13.942 -23.099  0.00  0.00    +0.203 C 
ENDROOT
BRANCH   1   4
ATOM      2 CL   UNL     1      35.291  -8.543 -24.587  0.00  0.00    -0.082 Cl
ATOM      3  S   UNL     1      30.886 -11.844 -21.689  0.00  0.00    -0.087 S 
ATOM      4  C   UNL     1      32.985 -12.914 -22.689  0.00  0.00    +0.005 C 
ATOM      5  C   UNL     1      33.112 -11.510 -22.961  0.00  0.00    +0.004 C 
ATOM      6  C   UNL     1      32.018 -10.796 -22.462  0.00  0.00    +0.029 C 
ATOM      7  C   UNL     1      31.831 -13.224 -22.010  0.00  0.00    +0.032 C 
ATOM      8  C   UNL     1      34.133 -10.789 -23.627  0.00  0.00    +0.012 C 
ATOM      9  C   UNL     1      31.920  -9.399 -22.610  0.00  0.00    +0.007 C 
ATOM     10  C   UNL     1      34.039  -9.403 -23.775  0.00  0.00    +0.058 C 
ATOM     11  C   UNL     1      32.943  -8.717 -23.271  0.00  0.00    +0.012 C 
ENDBRANCH   1   4
BRANCH   1  14
ATOM     12  O   UNL     1      34.098 -14.658 -20.815  0.00  0.00    -0.274 OA
ATOM     13  N   UNL     1      34.582 -16.222 -22.505  0.00  0.00    -0.283 N 
ATOM     14  C   UNL     1      34.228 -14.964 -21.996  0.00  0.00    +0.242 C 
ATOM     15  H   UNL     1      34.637 -16.290 -23.486  0.00  0.00    +0.155 HD
BRANCH  13  16
ATOM     16  C   UNL     1      34.867 -17.390 -21.797  0.00  0.00    +0.050 C 
ATOM     17  C   UNL     1      34.095 -19.367 -20.606  0.00  0.00    +0.001 C 
ATOM     18  C   UNL     1      33.826 -18.188 -21.320  0.00  0.00    +0.015 C 
ATOM     19  C   UNL     1      35.439 -19.742 -20.371  0.00  0.00    +0.000 C 
ATOM     20  C   UNL     1      36.189 -17.760 -21.566  0.00  0.00    +0.015 C 
ATOM     21  C   UNL     1      36.475 -18.927 -20.859  0.00  0.00    +0.001 C 
ATOM     22  C   UNL     1      33.060 -20.181 -20.119  0.00  0.00    +0.000 C 
ATOM     23  C   UNL     1      35.709 -20.921 -19.657  0.00  0.00    +0.000 C 
ATOM     24  C   UNL     1      33.346 -21.348 -19.411  0.00  0.00    +0.000 C 
ATOM     25  C   UNL     1      34.668 -21.717 -19.180  0.00  0.00    +0.000 C 
ENDBRANCH  13  16
ENDBRANCH   1  14
BRANCH   1  26
ATOM     26  P   UNL     1      33.420 -14.681 -24.652  0.00  0.00    +0.349 P 
ATOM     27  O   UNL     1      32.749 -13.709 -25.554  0.00  0.00    -0.257 OA
BRANCH  26  28
ATOM     28  O   UNL     1      32.524 -15.911 -24.133  0.00  0.00    -0.323 OA
ATOM     29  H   UNL     1      31.585 -15.688 -24.223  0.00  0.00    +0.220 HD
ENDBRANCH  26  28
BRANCH  26  30
ATOM     30  O   UNL     1      34.756 -15.376 -25.215  0.00  0.00    -0.323 OA
ATOM     31  H   UNL     1      34.517 -16.067 -25.853  0.00  0.00    +0.220 HD
ENDBRANCH  26  30
ENDBRANCH   1  26
TORSDOF 6
ENDMDL
MODEL 3
REMARK VINA RESULT:     -10.6      7.237      9.943
REMARK  Name = 16122567
REMARK  6 active torsions:
REMARK  status: ('A' for Active; 'I' for Inactive)
REMARK    1  A    between atoms: C_1  and  C_4
REMARK    2  A    between atoms: C_1  and  C_14
REMARK    3  A    between atoms: C_1  and  P_26
REMARK    4  A    between atoms: N_13  and  C_16
REMARK    5  A    between atoms: P_26  and  O_28
REMARK    6  A    between atoms: P_26  and  O_30
REMARK                            x       y       z     vdW  Elec       q    Type
REMARK                         _______ _______ _______ _____ _____    ______ ____
ROOT
ATOM      1  C   UNL     1      33.591 -16.691 -22.723  0.00  0.00    +0.203 C 
ENDROOT
BRANCH   1   4
ATOM      2 CL   UNL     1      31.963 -20.966 -19.243  0.00  0.00    -0.082 Cl
ATOM      3  S   UNL     1      37.075 -18.352 -21.637  0.00  0.00    -0.087 S 
ATOM      4  C   UNL     1      34.715 -17.505 -22.152  0.00  0.00    +0.005 C 
ATOM      5  C   UNL     1      34.530 -18.616 -21.263  0.00  0.00    +0.004 C 
ATOM      6  C   UNL     1      35.756 -19.181 -20.897  0.00  0.00    +0.029 C 
ATOM      7  C   UNL     1      36.038 -17.258 -22.432  0.00  0.00    +0.032 C 
ATOM      8  C   UNL     1      33.346 -19.187 -20.736  0.00  0.00    +0.012 C 
ATOM      9  C   UNL     1      35.827 -20.288 -20.028  0.00  0.00    +0.007 C 
ATOM     10  C   UNL     1      33.413 -20.286 -19.874  0.00  0.00    +0.058 C 
ATOM     11  C   UNL     1      34.642 -20.828 -19.526  0.00  0.00    +0.012 C 
ENDBRANCH   1   4
BRANCH   1  14
ATOM     12  O   UNL     1      34.283 -14.952 -21.228  0.00  0.00    -0.274 OA
ATOM     13  N   UNL     1      32.890 -14.388 -23.039  0.00  0.00    -0.283 N 
ATOM     14  C   UNL     1      33.639 -15.254 -22.228  0.00  0.00    +0.242 C 
ATOM     15  H   UNL     1      32.437 -14.804 -23.808  0.00  0.00    +0.155 HD
BRANCH  13  16
ATOM     16  C   UNL     1      32.705 -13.013 -22.893  0.00  0.00    +0.050 C 
ATOM     17  C   UNL     1      31.781 -11.137 -21.648  0.00  0.00    +0.001 C 
ATOM     18  C   UNL     1      31.976 -12.518 -21.811  0.00  0.00    +0.015 C 
ATOM     19  C   UNL     1      32.333 -10.244 -22.597  0.00  0.00    +0.000 C 
ATOM     20  C   UNL     1      33.249 -12.135 -23.826  0.00  0.00    +0.015 C 
ATOM     21  C   UNL     1      33.065 -10.760 -23.680  0.00  0.00    +0.001 C 
ATOM     22  C   UNL     1      31.050 -10.623 -20.566  0.00  0.00    +0.000 C 
ATOM     23  C   UNL     1      32.138  -8.863 -22.436  0.00  0.00    +0.000 C 
ATOM     24  C   UNL     1      30.865  -9.248 -20.421  0.00  0.00    +0.000 C 
ATOM     25  C   UNL     1      31.408  -8.370 -21.354  0.00  0.00    +0.000 C 
ENDBRANCH  13  16
ENDBRANCH   1  14
BRANCH   1  26
ATOM     26  P   UNL     1      33.684 -16.831 -24.529  0.00  0.00    +0.349 P 
ATOM     27  O   UNL     1      34.590 -15.832 -25.153  0.00  0.00    -0.257 OA
BRANCH  26  28
ATOM     28  O   UNL     1      32.136 -16.758 -24.957  0.00  0.00    -0.323 OA
ATOM     29  H   UNL     1      31.644 -17.468 -24.515  0.00  0.00    +0.220 HD
ENDBRANCH  26  28
BRANCH  26  30
ATOM     30  O   UNL     1      34.076 -18.377 -24.731  0.00  0.00    -0.323 OA
ATOM     31  H   UNL     1      34.805 -18.447 -25.368  0.00  0.00    +0.220 HD
ENDBRANCH  26  30
ENDBRANCH   1  26
TORSDOF 6
ENDMDL
MODEL 4
REMARK VINA RESULT:     -10.3     10.690     13.949
REMARK  Name = 16122567
REMARK  6 active torsions:
REMARK  status: ('A' for Active; 'I' for Inactive)
REMARK    1  A    between atoms: C_1  and  C_4
REMARK    2  A    between atoms: C_1  and  C_14
REMARK    3  A    between atoms: C_1  and  P_26
REMARK    4  A    between atoms: N_13  and  C_16
REMARK    5  A    between atoms: P_26  and  O_28
REMARK    6  A    between atoms: P_26  and  O_30
REMARK                            x       y       z     vdW  Elec       q    Type
REMARK                         _______ _______ _______ _____ _____    ______ ____
ROOT
ATOM      1  C   UNL     1      33.121 -11.850 -22.236  0.00  0.00    +0.203 C 
ENDROOT
BRANCH   1   4
ATOM      2 CL   UNL     1      35.140 -17.074 -20.945  0.00  0.00    -0.082 Cl
ATOM      3  S   UNL     1      32.722 -13.853 -25.685  0.00  0.00    -0.087 S 
ATOM      4  C   UNL     1      33.094 -12.835 -23.366  0.00  0.00    +0.005 C 
ATOM      5  C   UNL     1      33.550 -14.192 -23.260  0.00  0.00    +0.004 C 
ATOM      6  C   UNL     1      33.403 -14.873 -24.472  0.00  0.00    +0.029 C 
ATOM      7  C   UNL     1      32.624 -12.526 -24.621  0.00  0.00    +0.032 C 
ATOM      8  C   UNL     1      34.097 -14.895 -22.159  0.00  0.00    +0.012 C 
ATOM      9  C   UNL     1      33.783 -16.222 -24.611  0.00  0.00    +0.007 C 
ATOM     10  C   UNL     1      34.476 -16.234 -22.293  0.00  0.00    +0.058 C 
ATOM     11  C   UNL     1      34.320 -16.888 -23.507  0.00  0.00    +0.012 C 
ENDBRANCH   1   4
BRANCH   1  14
ATOM     12  O   UNL     1      34.016  -9.963 -23.408  0.00  0.00    -0.274 OA
ATOM     13  N   UNL     1      31.913  -9.748 -22.374  0.00  0.00    -0.283 N 
ATOM     14  C   UNL     1      33.088 -10.417 -22.747  0.00  0.00    +0.242 C 
ATOM     15  H   UNL     1      31.270 -10.271 -21.843  0.00  0.00    +0.155 HD
BRANCH  13  16
ATOM     16  C   UNL     1      31.540  -8.434 -22.661  0.00  0.00    +0.050 C 
ATOM     17  C   UNL     1      31.023  -6.182 -21.897  0.00  0.00    +0.001 C 
ATOM     18  C   UNL     1      31.396  -7.509 -21.626  0.00  0.00    +0.015 C 
ATOM     19  C   UNL     1      30.791  -5.789 -23.237  0.00  0.00    +0.000 C 
ATOM     20  C   UNL     1      31.313  -8.047 -23.978  0.00  0.00    +0.015 C 
ATOM     21  C   UNL     1      30.941  -6.734 -24.265  0.00  0.00    +0.001 C 
ATOM     22  C   UNL     1      30.874  -5.238 -20.869  0.00  0.00    +0.000 C 
ATOM     23  C   UNL     1      30.417  -4.463 -23.508  0.00  0.00    +0.000 C 
ATOM     24  C   UNL     1      30.500  -3.925 -21.156  0.00  0.00    +0.000 C 
ATOM     25  C   UNL     1      30.272  -3.538 -22.474  0.00  0.00    +0.000 C 
ENDBRANCH  13  16
ENDBRANCH   1  14
BRANCH   1  26
ATOM     26  P   UNL     1      31.735 -12.250 -21.136  0.00  0.00    +0.349 P 
ATOM     27  O   UNL     1      31.761 -13.651 -20.640  0.00  0.00    -0.257 OA
BRANCH  26  28
ATOM     28  O   UNL     1      30.462 -11.829 -22.023  0.00  0.00    -0.323 OA
ATOM     29  H   UNL     1      29.648 -12.104 -21.573  0.00  0.00    +0.220 HD
ENDBRANCH  26  28
BRANCH  26  30
ATOM     30  O   UNL     1      31.839 -11.095 -20.022  0.00  0.00    -0.323 OA
ATOM     31  H   UNL     1      30.985 -11.000 -19.572  0.00  0.00    +0.220 HD
ENDBRANCH  26  30
ENDBRANCH   1  26
TORSDOF 6
ENDMDL
MODEL 5
REMARK VINA RESULT:      -9.9     10.804     14.093
REMARK  Name = 16122567
REMARK  6 active torsions:
REMARK  status: ('A' for Active; 'I' for Inactive)
REMARK    1  A    between atoms: C_1  and  C_4
REMARK    2  A    between atoms: C_1  and  C_14
REMARK    3  A    between atoms: C_1  and  P_26
REMARK    4  A    between atoms: N_13  and  C_16
REMARK    5  A    between atoms: P_26  and  O_28
REMARK    6  A    between atoms: P_26  and  O_30
REMARK                            x       y       z     vdW  Elec       q    Type
REMARK                         _______ _______ _______ _____ _____    ______ ____
ROOT
ATOM      1  C   UNL     1      33.066 -11.674 -22.251  0.00  0.00    +0.203 C 
ENDROOT
BRANCH   1   4
ATOM      2 CL   UNL     1      35.046 -16.925 -21.007  0.00  0.00    -0.082 Cl
ATOM      3  S   UNL     1      32.716 -13.623 -25.737  0.00  0.00    -0.087 S 
ATOM      4  C   UNL     1      33.054 -12.642 -23.396  0.00  0.00    +0.005 C 
ATOM      5  C   UNL     1      33.504 -14.002 -23.303  0.00  0.00    +0.004 C 
ATOM      6  C   UNL     1      33.373 -14.664 -24.528  0.00  0.00    +0.029 C 
ATOM      7  C   UNL     1      32.605 -12.313 -24.654  0.00  0.00    +0.032 C 
ATOM      8  C   UNL     1      34.030 -14.724 -22.205  0.00  0.00    +0.012 C 
ATOM      9  C   UNL     1      33.751 -16.012 -24.681  0.00  0.00    +0.007 C 
ATOM     10  C   UNL     1      34.406 -16.063 -22.354  0.00  0.00    +0.058 C 
ATOM     11  C   UNL     1      34.268 -16.697 -23.580  0.00  0.00    +0.012 C 
ENDBRANCH   1   4
BRANCH   1  14
ATOM     12  O   UNL     1      34.051  -9.814 -23.393  0.00  0.00    -0.274 OA
ATOM     13  N   UNL     1      31.957  -9.517 -22.360  0.00  0.00    -0.283 N 
ATOM     14  C   UNL     1      33.101 -10.234 -22.740  0.00  0.00    +0.242 C 
ATOM     15  H   UNL     1      31.290 -10.017 -21.838  0.00  0.00    +0.155 HD
BRANCH  13  16
ATOM     16  C   UNL     1      31.647  -8.183 -22.628  0.00  0.00    +0.050 C 
ATOM     17  C   UNL     1      31.614  -6.303 -24.172  0.00  0.00    +0.001 C 
ATOM     18  C   UNL     1      31.920  -7.643 -23.885  0.00  0.00    +0.015 C 
ATOM     19  C   UNL     1      31.023  -5.498 -23.169  0.00  0.00    +0.000 C 
ATOM     20  C   UNL     1      31.066  -7.391 -21.641  0.00  0.00    +0.015 C 
ATOM     21  C   UNL     1      30.755  -6.059 -21.909  0.00  0.00    +0.001 C 
ATOM     22  C   UNL     1      31.881  -5.743 -25.432  0.00  0.00    +0.000 C 
ATOM     23  C   UNL     1      30.717  -4.158 -23.455  0.00  0.00    +0.000 C 
ATOM     24  C   UNL     1      31.572  -4.410 -25.699  0.00  0.00    +0.000 C 
ATOM     25  C   UNL     1      30.991  -3.618 -24.712  0.00  0.00    +0.000 C 
ENDBRANCH  13  16
ENDBRANCH   1  14
BRANCH   1  26
ATOM     26  P   UNL     1      31.624 -12.044 -21.215  0.00  0.00    +0.349 P 
ATOM     27  O   UNL     1      31.597 -13.444 -20.718  0.00  0.00    -0.257 OA
BRANCH  26  28
ATOM     28  O   UNL     1      30.401 -11.597 -22.159  0.00  0.00    -0.323 OA
ATOM     29  H   UNL     1      29.813 -11.002 -21.668  0.00  0.00    +0.220 HD
ENDBRANCH  26  28
BRANCH  26  30
ATOM     30  O   UNL     1      31.701 -10.890 -20.098  0.00  0.00    -0.323 OA
ATOM     31  H   UNL     1      32.537 -10.405 -20.190  0.00  0.00    +0.220 HD
ENDBRANCH  26  30
ENDBRANCH   1  26
TORSDOF 6
ENDMDL
MODEL 6
REMARK VINA RESULT:      -9.7     11.195     14.777
REMARK  Name = 16122567
REMARK  6 active torsions:
REMARK  status: ('A' for Active; 'I' for Inactive)
REMARK    1  A    between atoms: C_1  and  C_4
REMARK    2  A    between atoms: C_1  and  C_14
REMARK    3  A    between atoms: C_1  and  P_26
REMARK    4  A    between atoms: N_13  and  C_16
REMARK    5  A    between atoms: P_26  and  O_28
REMARK    6  A    between atoms: P_26  and  O_30
REMARK                            x       y       z     vdW  Elec       q    Type
REMARK                         _______ _______ _______ _____ _____    ______ ____
ROOT
ATOM      1  C   UNL     1      31.092  -9.003 -21.480  0.00  0.00    +0.203 C 
ENDROOT
BRANCH   1   4
ATOM      2 CL   UNL     1      29.750  -3.416 -21.666  0.00  0.00    -0.082 Cl
ATOM      3  S   UNL     1      34.042  -7.436 -23.697  0.00  0.00    -0.087 S 
ATOM      4  C   UNL     1      32.045  -8.149 -22.263  0.00  0.00    +0.005 C 
ATOM      5  C   UNL     1      31.898  -6.732 -22.435  0.00  0.00    +0.004 C 
ATOM      6  C   UNL     1      32.935  -6.205 -23.211  0.00  0.00    +0.029 C 
ATOM      7  C   UNL     1      33.159  -8.651 -22.893  0.00  0.00    +0.032 C 
ATOM      8  C   UNL     1      30.904  -5.844 -21.956  0.00  0.00    +0.012 C 
ATOM      9  C   UNL     1      33.004  -4.831 -23.515  0.00  0.00    +0.007 C 
ATOM     10  C   UNL     1      30.968  -4.480 -22.256  0.00  0.00    +0.058 C 
ATOM     11  C   UNL     1      32.008  -3.982 -23.028  0.00  0.00    +0.012 C 
ENDBRANCH   1   4
BRANCH   1  14
ATOM     12  O   UNL     1      30.067 -11.079 -22.090  0.00  0.00    -0.274 OA
ATOM     13  N   UNL     1      32.409 -10.898 -22.232  0.00  0.00    -0.283 N 
ATOM     14  C   UNL     1      31.109 -10.444 -21.965  0.00  0.00    +0.242 C 
ATOM     15  H   UNL     1      33.132 -10.248 -22.078  0.00  0.00    +0.155 HD
BRANCH  13  16
ATOM     16  C   UNL     1      32.807 -12.156 -22.689  0.00  0.00    +0.050 C 
ATOM     17  C   UNL     1      33.730 -14.361 -22.234  0.00  0.00    +0.001 C 
ATOM     18  C   UNL     1      33.326 -13.091 -21.792  0.00  0.00    +0.015 C 
ATOM     19  C   UNL     1      33.607 -14.688 -23.605  0.00  0.00    +0.000 C 
ATOM     20  C   UNL     1      32.685 -12.477 -24.037  0.00  0.00    +0.015 C 
ATOM     21  C   UNL     1      33.082 -13.734 -24.493  0.00  0.00    +0.001 C 
ATOM     22  C   UNL     1      34.255 -15.313 -21.346  0.00  0.00    +0.000 C 
ATOM     23  C   UNL     1      34.012 -15.957 -24.048  0.00  0.00    +0.000 C 
ATOM     24  C   UNL     1      34.653 -16.569 -21.803  0.00  0.00    +0.000 C 
ATOM     25  C   UNL     1      34.531 -16.891 -23.152  0.00  0.00    +0.000 C 
ENDBRANCH  13  16
ENDBRANCH   1  14
BRANCH   1  26
ATOM     26  P   UNL     1      31.527  -8.831 -19.727  0.00  0.00    +0.349 P 
ATOM     27  O   UNL     1      32.351  -7.629 -19.438  0.00  0.00    -0.257 OA
BRANCH  26  28
ATOM     28  O   UNL     1      32.201 -10.255 -19.402  0.00  0.00    -0.323 OA
ATOM     29  H   UNL     1      31.534 -10.851 -19.026  0.00  0.00    +0.220 HD
ENDBRANCH  26  28
BRANCH  26  30
ATOM     30  O   UNL     1      30.090  -8.903 -19.011  0.00  0.00    -0.323 OA
ATOM     31  H   UNL     1      29.922  -9.810 -18.709  0.00  0.00    +0.220 HD
ENDBRANCH  26  30
ENDBRANCH   1  26
TORSDOF 6
ENDMDL
MODEL 7
REMARK VINA RESULT:      -9.7     12.673     16.282
REMARK  Name = 16122567
REMARK  6 active torsions:
REMARK  status: ('A' for Active; 'I' for Inactive)
REMARK    1  A    between atoms: C_1  and  C_4
REMARK    2  A    between atoms: C_1  and  C_14
REMARK    3  A    between atoms: C_1  and  P_26
REMARK    4  A    between atoms: N_13  and  C_16
REMARK    5  A    between atoms: P_26  and  O_28
REMARK    6  A    between atoms: P_26  and  O_30
REMARK                            x       y       z     vdW  Elec       q    Type
REMARK                         _______ _______ _______ _____ _____    ______ ____
ROOT
ATOM      1  C   UNL     1      30.940  -7.493 -21.960  0.00  0.00    +0.203 C 
ENDROOT
BRANCH   1   4
ATOM      2 CL   UNL     1      29.759  -1.873 -21.717  0.00  0.00    -0.082 Cl
ATOM      3  S   UNL     1      31.826  -6.220 -25.657  0.00  0.00    -0.087 S 
ATOM      4  C   UNL     1      31.183  -6.740 -23.234  0.00  0.00    +0.005 C 
ATOM      5  C   UNL     1      30.954  -5.332 -23.391  0.00  0.00    +0.004 C 
ATOM      6  C   UNL     1      31.268  -4.908 -24.686  0.00  0.00    +0.029 C 
ATOM      7  C   UNL     1      31.653  -7.336 -24.381  0.00  0.00    +0.032 C 
ATOM      8  C   UNL     1      30.481  -4.368 -22.468  0.00  0.00    +0.012 C 
ATOM      9  C   UNL     1      31.124  -3.562 -25.076  0.00  0.00    +0.007 C 
ATOM     10  C   UNL     1      30.336  -3.031 -22.852  0.00  0.00    +0.058 C 
ATOM     11  C   UNL     1      30.655  -2.636 -24.143  0.00  0.00    +0.012 C 
ENDBRANCH   1   4
BRANCH   1  14
ATOM     12  O   UNL     1      29.933  -9.658 -22.140  0.00  0.00    -0.274 OA
ATOM     13  N   UNL     1      32.258  -9.472 -22.452  0.00  0.00    -0.283 N 
ATOM     14  C   UNL     1      30.965  -8.997 -22.189  0.00  0.00    +0.242 C 
ATOM     15  H   UNL     1      32.973  -8.795 -22.456  0.00  0.00    +0.155 HD
BRANCH  13  16
ATOM     16  C   UNL     1      32.660 -10.784 -22.707  0.00  0.00    +0.050 C 
ATOM     17  C   UNL     1      33.380 -12.958 -21.887  0.00  0.00    +0.001 C 
ATOM     18  C   UNL     1      32.975 -11.635 -21.647  0.00  0.00    +0.015 C 
ATOM     19  C   UNL     1      33.468 -13.425 -23.220  0.00  0.00    +0.000 C 
ATOM     20  C   UNL     1      32.745 -11.243 -24.018  0.00  0.00    +0.015 C 
ATOM     21  C   UNL     1      33.146 -12.554 -24.274  0.00  0.00    +0.001 C 
ATOM     22  C   UNL     1      33.701 -13.829 -20.832  0.00  0.00    +0.000 C 
ATOM     23  C   UNL     1      33.873 -14.748 -23.460  0.00  0.00    +0.000 C 
ATOM     24  C   UNL     1      34.103 -15.139 -21.088  0.00  0.00    +0.000 C 
ATOM     25  C   UNL     1      34.189 -15.598 -22.400  0.00  0.00    +0.000 C 
ENDBRANCH  13  16
ENDBRANCH   1  14
BRANCH   1  26
ATOM     26  P   UNL     1      32.175  -6.932 -20.756  0.00  0.00    +0.349 P 
ATOM     27  O   UNL     1      33.483  -6.582 -21.370  0.00  0.00    -0.257 OA
BRANCH  26  28
ATOM     28  O   UNL     1      32.185  -8.136 -19.690  0.00  0.00    -0.323 OA
ATOM     29  H   UNL     1      32.158  -7.774 -18.791  0.00  0.00    +0.220 HD
ENDBRANCH  26  28
BRANCH  26  30
ATOM     30  O   UNL     1      31.399  -5.744 -20.000  0.00  0.00    -0.323 OA
ATOM     31  H   UNL     1      31.021  -6.079 -19.171  0.00  0.00    +0.220 HD
ENDBRANCH  26  30
ENDBRANCH   1  26
TORSDOF 6
ENDMDL
MODEL 8
REMARK VINA RESULT:      -9.6      5.862      9.697
REMARK  Name = 16122567
REMARK  6 active torsions:
REMARK  status: ('A' for Active; 'I' for Inactive)
REMARK    1  A    between atoms: C_1  and  C_4
REMARK    2  A    between atoms: C_1  and  C_14
REMARK    3  A    between atoms: C_1  and  P_26
REMARK    4  A    between atoms: N_13  and  C_16
REMARK    5  A    between atoms: P_26  and  O_28
REMARK    6  A    between atoms: P_26  and  O_30
REMARK                            x       y       z     vdW  Elec       q    Type
REMARK                         _______ _______ _______ _____ _____    ______ ____
ROOT
ATOM      1  C   UNL     1      35.016 -17.334 -22.901  0.00  0.00    +0.203 C 
ENDROOT
BRANCH   1   4
ATOM      2 CL   UNL     1      33.166 -13.476 -26.738  0.00  0.00    -0.082 Cl
ATOM      3  S   UNL     1      33.545 -14.401 -20.599  0.00  0.00    -0.087 S 
ATOM      4  C   UNL     1      34.403 -16.100 -22.311  0.00  0.00    +0.005 C 
ATOM      5  C   UNL     1      33.878 -15.013 -23.088  0.00  0.00    +0.004 C 
ATOM      6  C   UNL     1      33.370 -14.002 -22.267  0.00  0.00    +0.029 C 
ATOM      7  C   UNL     1      34.285 -15.893 -20.956  0.00  0.00    +0.032 C 
ATOM      8  C   UNL     1      33.807 -14.835 -24.491  0.00  0.00    +0.012 C 
ATOM      9  C   UNL     1      32.800 -12.831 -22.807  0.00  0.00    +0.007 C 
ATOM     10  C   UNL     1      33.243 -13.675 -25.030  0.00  0.00    +0.058 C 
ATOM     11  C   UNL     1      32.746 -12.686 -24.194  0.00  0.00    +0.012 C 
ENDBRANCH   1   4
BRANCH   1  14
ATOM     12  O   UNL     1      36.727 -18.389 -21.598  0.00  0.00    -0.274 OA
ATOM     13  N   UNL     1      34.481 -18.936 -21.157  0.00  0.00    -0.283 N 
ATOM     14  C   UNL     1      35.526 -18.274 -21.818  0.00  0.00    +0.242 C 
ATOM     15  H   UNL     1      33.572 -18.719 -21.463  0.00  0.00    +0.155 HD
BRANCH  13  16
ATOM     16  C   UNL     1      34.570 -19.864 -20.118  0.00  0.00    +0.050 C 
ATOM     17  C   UNL     1      33.480 -21.378 -18.555  0.00  0.00    +0.001 C 
ATOM     18  C   UNL     1      33.410 -20.442 -19.600  0.00  0.00    +0.015 C 
ATOM     19  C   UNL     1      34.745 -21.733 -18.028  0.00  0.00    +0.000 C 
ATOM     20  C   UNL     1      35.813 -20.214 -19.600  0.00  0.00    +0.015 C 
ATOM     21  C   UNL     1      35.902 -21.141 -18.563  0.00  0.00    +0.001 C 
ATOM     22  C   UNL     1      32.324 -21.970 -18.022  0.00  0.00    +0.000 C 
ATOM     23  C   UNL     1      34.816 -22.669 -16.983  0.00  0.00    +0.000 C 
ATOM     24  C   UNL     1      32.412 -22.897 -16.983  0.00  0.00    +0.000 C 
ATOM     25  C   UNL     1      33.657 -23.245 -16.465  0.00  0.00    +0.000 C 
ENDBRANCH  13  16
ENDBRANCH   1  14
BRANCH   1  26
ATOM     26  P   UNL     1      33.773 -18.093 -23.982  0.00  0.00    +0.349 P 
ATOM     27  O   UNL     1      33.409 -17.247 -25.148  0.00  0.00    -0.257 OA
BRANCH  26  28
ATOM     28  O   UNL     1      32.589 -18.438 -22.950  0.00  0.00    -0.323 OA
ATOM     29  H   UNL     1      31.742 -18.142 -23.318  0.00  0.00    +0.220 HD
ENDBRANCH  26  28
BRANCH  26  30
ATOM     30  O   UNL     1      34.435 -19.521 -24.313  0.00  0.00    -0.323 OA
ATOM     31  H   UNL     1      35.008 -19.440 -25.092  0.00  0.00    +0.220 HD
ENDBRANCH  26  30
ENDBRANCH   1  26
TORSDOF 6
ENDMDL
MODEL 9
REMARK VINA RESULT:      -9.5     13.859     17.666
REMARK  Name = 16122567
REMARK  6 active torsions:
REMARK  status: ('A' for Active; 'I' for Inactive)
REMARK    1  A    between atoms: C_1  and  C_4
REMARK    2  A    between atoms: C_1  and  C_14
REMARK    3  A    between atoms: C_1  and  P_26
REMARK    4  A    between atoms: N_13  and  C_16
REMARK    5  A    between atoms: P_26  and  O_28
REMARK    6  A    between atoms: P_26  and  O_30
REMARK                            x       y       z     vdW  Elec       q    Type
REMARK                         _______ _______ _______ _____ _____    ______ ____
ROOT
ATOM      1  C   UNL     1      30.406  -5.114 -23.140  0.00  0.00    +0.203 C 
ENDROOT
BRANCH   1   4
ATOM      2 CL   UNL     1      35.164  -7.980 -24.620  0.00  0.00    -0.082 Cl
ATOM      3  S   UNL     1      31.891  -2.915 -26.146  0.00  0.00    -0.087 S 
ATOM      4  C   UNL     1      31.186  -4.506 -24.268  0.00  0.00    +0.005 C 
ATOM      5  C   UNL     1      32.402  -5.059 -24.794  0.00  0.00    +0.004 C 
ATOM      6  C   UNL     1      32.903  -4.278 -25.840  0.00  0.00    +0.029 C 
ATOM      7  C   UNL     1      30.803  -3.351 -24.909  0.00  0.00    +0.032 C 
ATOM      8  C   UNL     1      33.122  -6.220 -24.421  0.00  0.00    +0.012 C 
ATOM      9  C   UNL     1      34.090  -4.624 -26.515  0.00  0.00    +0.007 C 
ATOM     10  C   UNL     1      34.301  -6.566 -25.088  0.00  0.00    +0.058 C 
ATOM     11  C   UNL     1      34.778  -5.774 -26.123  0.00  0.00    +0.012 C 
ENDBRANCH   1   4
BRANCH   1  14
ATOM     12  O   UNL     1      29.799  -7.207 -24.135  0.00  0.00    -0.274 OA
ATOM     13  N   UNL     1      31.121  -7.230 -22.188  0.00  0.00    -0.283 N 
ATOM     14  C   UNL     1      30.394  -6.632 -23.228  0.00  0.00    +0.242 C 
ATOM     15  H   UNL     1      31.540  -6.612 -21.546  0.00  0.00    +0.155 HD
BRANCH  13  16
ATOM     16  C   UNL     1      31.326  -8.589 -21.948  0.00  0.00    +0.050 C 
ATOM     17  C   UNL     1      32.289 -10.720 -22.623  0.00  0.00    +0.001 C 
ATOM     18  C   UNL     1      32.072  -9.351 -22.849  0.00  0.00    +0.015 C 
ATOM     19  C   UNL     1      31.740 -11.326 -21.467  0.00  0.00    +0.000 C 
ATOM     20  C   UNL     1      30.787  -9.185 -20.812  0.00  0.00    +0.015 C 
ATOM     21  C   UNL     1      30.993 -10.543 -20.571  0.00  0.00    +0.001 C 
ATOM     22  C   UNL     1      33.036 -11.501 -23.518  0.00  0.00    +0.000 C 
ATOM     23  C   UNL     1      31.956 -12.694 -21.241  0.00  0.00    +0.000 C 
ATOM     24  C   UNL     1      33.240 -12.860 -23.279  0.00  0.00    +0.000 C 
ATOM     25  C   UNL     1      32.701 -13.455 -22.142  0.00  0.00    +0.000 C 
ENDBRANCH  13  16
ENDBRANCH   1  14
BRANCH   1  26
ATOM     26  P   UNL     1      31.118  -4.491 -21.592  0.00  0.00    +0.349 P 
ATOM     27  O   UNL     1      32.512  -4.949 -21.357  0.00  0.00    -0.257 OA
BRANCH  26  28
ATOM     28  O   UNL     1      30.023  -4.946 -20.506  0.00  0.00    -0.323 OA
ATOM     29  H   UNL     1      29.902  -4.240 -19.852  0.00  0.00    +0.220 HD
ENDBRANCH  26  28
BRANCH  26  30
ATOM     30  O   UNL     1      30.899  -2.905 -21.731  0.00  0.00    -0.323 OA
ATOM     31  H   UNL     1      29.962  -2.720 -21.904  0.00  0.00    +0.220 HD
ENDBRANCH  26  30
ENDBRANCH   1  26
TORSDOF 6
ENDMDL
