MODEL 1
REMARK VINA RESULT:     -11.6      0.000      0.000
REMARK  Name = 54718859
REMARK  7 active torsions:
REMARK  status: ('A' for Active; 'I' for Inactive)
REMARK    1  A    between atoms: C_6  and  C_23
REMARK    2  A    between atoms: C_8  and  C_15
REMARK    3  A    between atoms: C_9  and  O_21
REMARK    4  A    between atoms: N_14  and  C_17
REMARK    5  A    between atoms: C_17  and  C_18
REMARK    6  A    between atoms: C_18  and  O_19
REMARK    7  A    between atoms: C_23  and  C_25
REMARK                            x       y       z     vdW  Elec       q    Type
REMARK                         _______ _______ _______ _____ _____    ______ ____
ROOT
ATOM      1  O   UNL     1      32.453 -12.375 -24.949  0.00  0.00    -0.267 OA
ATOM      2  N   UNL     1      33.384 -14.336 -24.132  0.00  0.00    -0.292 N 
ATOM      3  N   UNL     1      34.113 -15.195 -20.607  0.00  0.00    -0.240 NA
ATOM      4  C   UNL     1      33.824 -15.088 -23.006  0.00  0.00    +0.083 A 
ATOM      5  C   UNL     1      33.718 -14.543 -21.730  0.00  0.00    +0.131 A 
ATOM      6  C   UNL     1      34.782 -17.059 -21.973  0.00  0.00    +0.003 C 
ATOM      7  C   UNL     1      34.370 -16.374 -23.112  0.00  0.00    +0.017 C 
ATOM      8  C   UNL     1      32.737 -12.486 -22.611  0.00  0.00    +0.144 A 
ATOM      9  C   UNL     1      33.154 -13.200 -21.550  0.00  0.00    +0.162 A 
ATOM     10  C   UNL     1      32.844 -13.056 -23.998  0.00  0.00    +0.268 A 
ATOM     11  C   UNL     1      34.633 -16.432 -20.754  0.00  0.00    +0.095 C 
ATOM     12  C   UNL     1      33.504 -14.923 -25.465  0.00  0.00    +0.134 C 
ENDROOT
BRANCH   8  15
ATOM     13  O   UNL     1      31.196 -10.958 -21.712  0.00  0.00    -0.270 OA
ATOM     14  N   UNL     1      32.851 -10.176 -23.156  0.00  0.00    -0.298 N 
ATOM     15  C   UNL     1      32.169 -11.135 -22.435  0.00  0.00    +0.254 C 
ATOM     16  H   UNL     1      33.621 -10.457 -23.701  0.00  0.00    +0.150 HD
BRANCH  14  17
ATOM     17  C   UNL     1      32.485  -8.778 -23.148  0.00  0.00    +0.122 C 
BRANCH  17  18
ATOM     18  C   UNL     1      33.706  -7.881 -23.245  0.00  0.00    +0.158 C 
BRANCH  18  19
ATOM     19  O   UNL     1      34.839  -8.663 -23.601  0.00  0.00    -0.380 OA
ATOM     20  H   UNL     1      34.620  -9.221 -24.364  0.00  0.00    +0.211 HD
ENDBRANCH  18  19
ENDBRANCH  17  18
ENDBRANCH  14  17
ENDBRANCH   8  15
BRANCH   9  21
ATOM     21  O   UNL     1      33.112 -12.792 -20.233  0.00  0.00    -0.504 OA
ATOM     22  H   UNL     1      33.906 -12.578 -19.783  0.00  0.00    +0.292 HD
ENDBRANCH   9  21
BRANCH   6  23
ATOM     23  C   UNL     1      35.363 -18.426 -22.068  0.00  0.00    +0.054 C 
BRANCH  23  25
ATOM     24  F   UNL     1      33.446 -22.017 -18.156  0.00  0.00    -0.204 F 
ATOM     25  C   UNL     1      34.848 -19.391 -21.017  0.00  0.00    -0.018 C 
ATOM     26  C   UNL     1      35.745 -20.053 -20.178  0.00  0.00    -0.002 C 
ATOM     27  C   UNL     1      33.477 -19.617 -20.890  0.00  0.00    -0.002 C 
ATOM     28  C   UNL     1      35.271 -20.940 -19.211  0.00  0.00    +0.029 C 
ATOM     29  C   UNL     1      33.004 -20.503 -19.923  0.00  0.00    +0.029 C 
ATOM     30  C   UNL     1      33.901 -21.165 -19.084  0.00  0.00    +0.140 C 
ENDBRANCH  23  25
ENDBRANCH   6  23
TORSDOF 7
ENDMDL
MODEL 2
REMARK VINA RESULT:     -11.0      5.937      9.835
REMARK  Name = 54718859
REMARK  7 active torsions:
REMARK  status: ('A' for Active; 'I' for Inactive)
REMARK    1  A    between atoms: C_6  and  C_23
REMARK    2  A    between atoms: C_8  and  C_15
REMARK    3  A    between atoms: C_9  and  O_21
REMARK    4  A    between atoms: N_14  and  C_17
REMARK    5  A    between atoms: C_17  and  C_18
REMARK    6  A    between atoms: C_18  and  O_19
REMARK    7  A    between atoms: C_23  and  C_25
REMARK                            x       y       z     vdW  Elec       q    Type
REMARK                         _______ _______ _______ _____ _____    ______ ____
ROOT
ATOM      1  O   UNL     1      31.795 -22.077 -18.247  0.00  0.00    -0.267 OA
ATOM      2  N   UNL     1      32.808 -20.598 -19.718  0.00  0.00    -0.292 N 
ATOM      3  N   UNL     1      36.391 -19.682 -19.891  0.00  0.00    -0.240 NA
ATOM      4  C   UNL     1      34.003 -19.962 -20.161  0.00  0.00    +0.083 A 
ATOM      5  C   UNL     1      35.209 -20.246 -19.529  0.00  0.00    +0.131 A 
ATOM      6  C   UNL     1      35.232 -18.457 -21.607  0.00  0.00    +0.003 C 
ATOM      7  C   UNL     1      34.032 -19.046 -21.220  0.00  0.00    +0.017 C 
ATOM      8  C   UNL     1      34.122 -21.802 -17.990  0.00  0.00    +0.144 A 
ATOM      9  C   UNL     1      35.248 -21.197 -18.412  0.00  0.00    +0.162 A 
ATOM     10  C   UNL     1      32.807 -21.508 -18.659  0.00  0.00    +0.268 A 
ATOM     11  C   UNL     1      36.374 -18.805 -20.918  0.00  0.00    +0.095 C 
ATOM     12  C   UNL     1      31.550 -20.288 -20.392  0.00  0.00    +0.134 C 
ENDROOT
BRANCH   8  15
ATOM     13  O   UNL     1      33.577 -23.837 -16.952  0.00  0.00    -0.270 OA
ATOM     14  N   UNL     1      34.879 -22.289 -15.792  0.00  0.00    -0.298 N 
ATOM     15  C   UNL     1      34.155 -22.759 -16.868  0.00  0.00    +0.254 C 
ATOM     16  H   UNL     1      35.294 -21.398 -15.857  0.00  0.00    +0.150 HD
BRANCH  14  17
ATOM     17  C   UNL     1      35.056 -23.044 -14.572  0.00  0.00    +0.122 C 
BRANCH  17  18
ATOM     18  C   UNL     1      36.300 -23.913 -14.630  0.00  0.00    +0.158 C 
BRANCH  18  19
ATOM     19  O   UNL     1      36.010 -25.105 -15.348  0.00  0.00    -0.380 OA
ATOM     20  H   UNL     1      36.146 -24.953 -16.296  0.00  0.00    +0.211 HD
ENDBRANCH  18  19
ENDBRANCH  17  18
ENDBRANCH  14  17
ENDBRANCH   8  15
BRANCH   9  21
ATOM     21  O   UNL     1      36.509 -21.378 -17.885  0.00  0.00    -0.504 OA
ATOM     22  H   UNL     1      37.036 -20.635 -17.665  0.00  0.00    +0.292 HD
ENDBRANCH   9  21
BRANCH   6  23
ATOM     23  C   UNL     1      35.281 -17.482 -22.731  0.00  0.00    +0.054 C 
BRANCH  23  25
ATOM     24  F   UNL     1      32.931 -12.487 -21.546  0.00  0.00    -0.204 F 
ATOM     25  C   UNL     1      34.649 -16.139 -22.412  0.00  0.00    -0.018 C 
ATOM     26  C   UNL     1      34.383 -15.790 -21.088  0.00  0.00    -0.002 C 
ATOM     27  C   UNL     1      34.334 -15.255 -23.444  0.00  0.00    -0.002 C 
ATOM     28  C   UNL     1      33.803 -14.556 -20.795  0.00  0.00    +0.029 C 
ATOM     29  C   UNL     1      33.754 -14.021 -23.151  0.00  0.00    +0.029 C 
ATOM     30  C   UNL     1      33.488 -13.672 -21.827  0.00  0.00    +0.140 C 
ENDBRANCH  23  25
ENDBRANCH   6  23
TORSDOF 7
ENDMDL
MODEL 3
REMARK VINA RESULT:     -10.8      6.962     11.325
REMARK  Name = 54718859
REMARK  7 active torsions:
REMARK  status: ('A' for Active; 'I' for Inactive)
REMARK    1  A    between atoms: C_6  and  C_23
REMARK    2  A    between atoms: C_8  and  C_15
REMARK    3  A    between atoms: C_9  and  O_21
REMARK    4  A    between atoms: N_14  and  C_17
REMARK    5  A    between atoms: C_17  and  C_18
REMARK    6  A    between atoms: C_18  and  O_19
REMARK    7  A    between atoms: C_23  and  C_25
REMARK                            x       y       z     vdW  Elec       q    Type
REMARK                         _______ _______ _______ _____ _____    ______ ____
ROOT
ATOM      1  O   UNL     1      33.808 -23.599 -14.416  0.00  0.00    -0.267 OA
ATOM      2  N   UNL     1      33.651 -22.642 -16.523  0.00  0.00    -0.292 N 
ATOM      3  N   UNL     1      36.282 -20.813 -18.376  0.00  0.00    -0.240 NA
ATOM      4  C   UNL     1      34.284 -21.912 -17.570  0.00  0.00    +0.083 A 
ATOM      5  C   UNL     1      35.608 -21.510 -17.425  0.00  0.00    +0.131 A 
ATOM      6  C   UNL     1      34.307 -20.855 -19.749  0.00  0.00    +0.003 C 
ATOM      7  C   UNL     1      33.635 -21.569 -18.762  0.00  0.00    +0.017 C 
ATOM      8  C   UNL     1      35.752 -22.527 -15.208  0.00  0.00    +0.144 A 
ATOM      9  C   UNL     1      36.346 -21.838 -16.199  0.00  0.00    +0.162 A 
ATOM     10  C   UNL     1      34.322 -22.970 -15.344  0.00  0.00    +0.268 A 
ATOM     11  C   UNL     1      35.619 -20.503 -19.510  0.00  0.00    +0.095 C 
ATOM     12  C   UNL     1      32.260 -23.056 -16.690  0.00  0.00    +0.134 C 
ENDROOT
BRANCH   8  15
ATOM     13  O   UNL     1      37.581 -23.416 -14.031  0.00  0.00    -0.270 OA
ATOM     14  N   UNL     1      35.813 -22.477 -12.834  0.00  0.00    -0.298 N 
ATOM     15  C   UNL     1      36.490 -22.860 -13.974  0.00  0.00    +0.254 C 
ATOM     16  H   UNL     1      34.939 -22.036 -12.931  0.00  0.00    +0.150 HD
BRANCH  14  17
ATOM     17  C   UNL     1      36.331 -22.696 -11.502  0.00  0.00    +0.122 C 
BRANCH  17  18
ATOM     18  C   UNL     1      35.624 -23.848 -10.810  0.00  0.00    +0.158 C 
BRANCH  18  19
ATOM     19  O   UNL     1      35.896 -23.799  -9.416  0.00  0.00    -0.380 OA
ATOM     20  H   UNL     1      36.480 -23.048  -9.226  0.00  0.00    +0.211 HD
ENDBRANCH  18  19
ENDBRANCH  17  18
ENDBRANCH  14  17
ENDBRANCH   8  15
BRANCH   9  21
ATOM     21  O   UNL     1      37.645 -21.375 -16.198  0.00  0.00    -0.504 OA
ATOM     22  H   UNL     1      37.856 -20.568 -16.625  0.00  0.00    +0.292 HD
ENDBRANCH   9  21
BRANCH   6  23
ATOM     23  C   UNL     1      33.632 -20.483 -21.022  0.00  0.00    +0.054 C 
BRANCH  23  25
ATOM     24  F   UNL     1      35.110 -15.410 -23.012  0.00  0.00    -0.204 F 
ATOM     25  C   UNL     1      34.029 -19.119 -21.557  0.00  0.00    -0.018 C 
ATOM     26  C   UNL     1      33.828 -18.812 -22.903  0.00  0.00    -0.002 C 
ATOM     27  C   UNL     1      34.596 -18.174 -20.702  0.00  0.00    -0.002 C 
ATOM     28  C   UNL     1      34.193 -17.559 -23.394  0.00  0.00    +0.029 C 
ATOM     29  C   UNL     1      34.960 -16.920 -21.194  0.00  0.00    +0.029 C 
ATOM     30  C   UNL     1      34.759 -16.613 -22.539  0.00  0.00    +0.140 C 
ENDBRANCH  23  25
ENDBRANCH   6  23
TORSDOF 7
ENDMDL
MODEL 4
REMARK VINA RESULT:     -10.6      4.082      8.881
REMARK  Name = 54718859
REMARK  7 active torsions:
REMARK  status: ('A' for Active; 'I' for Inactive)
REMARK    1  A    between atoms: C_6  and  C_23
REMARK    2  A    between atoms: C_8  and  C_15
REMARK    3  A    between atoms: C_9  and  O_21
REMARK    4  A    between atoms: N_14  and  C_17
REMARK    5  A    between atoms: C_17  and  C_18
REMARK    6  A    between atoms: C_18  and  O_19
REMARK    7  A    between atoms: C_23  and  C_25
REMARK                            x       y       z     vdW  Elec       q    Type
REMARK                         _______ _______ _______ _____ _____    ______ ____
ROOT
ATOM      1  O   UNL     1      34.167 -15.996 -24.870  0.00  0.00    -0.267 OA
ATOM      2  N   UNL     1      33.140 -14.066 -24.096  0.00  0.00    -0.292 N 
ATOM      3  N   UNL     1      32.772 -12.954 -20.584  0.00  0.00    -0.240 NA
ATOM      4  C   UNL     1      32.766 -13.257 -22.984  0.00  0.00    +0.083 A 
ATOM      5  C   UNL     1      33.091 -13.668 -21.695  0.00  0.00    +0.131 A 
ATOM      6  C   UNL     1      31.738 -11.300 -21.994  0.00  0.00    +0.003 C 
ATOM      7  C   UNL     1      32.075 -12.046 -23.119  0.00  0.00    +0.017 C 
ATOM      8  C   UNL     1      34.170 -15.694 -22.532  0.00  0.00    +0.144 A 
ATOM      9  C   UNL     1      33.815 -14.927 -21.485  0.00  0.00    +0.162 A 
ATOM     10  C   UNL     1      33.828 -15.269 -23.933  0.00  0.00    +0.268 A 
ATOM     11  C   UNL     1      32.107 -11.792 -20.759  0.00  0.00    +0.095 C 
ATOM     12  C   UNL     1      32.790 -13.621 -25.443  0.00  0.00    +0.134 C 
ENDROOT
BRANCH   8  15
ATOM     13  O   UNL     1      36.103 -16.957 -22.102  0.00  0.00    -0.270 OA
ATOM     14  N   UNL     1      34.076 -18.065 -22.418  0.00  0.00    -0.298 N 
ATOM     15  C   UNL     1      34.898 -16.961 -22.326  0.00  0.00    +0.254 C 
ATOM     16  H   UNL     1      33.119 -17.925 -22.604  0.00  0.00    +0.150 HD
BRANCH  14  17
ATOM     17  C   UNL     1      34.556 -19.418 -22.255  0.00  0.00    +0.122 C 
BRANCH  17  18
ATOM     18  C   UNL     1      34.595 -19.824 -20.792  0.00  0.00    +0.158 C 
BRANCH  18  19
ATOM     19  O   UNL     1      35.831 -19.414 -20.222  0.00  0.00    -0.380 OA
ATOM     20  H   UNL     1      35.783 -19.491 -19.256  0.00  0.00    +0.211 HD
ENDBRANCH  18  19
ENDBRANCH  17  18
ENDBRANCH  14  17
ENDBRANCH   8  15
BRANCH   9  21
ATOM     21  O   UNL     1      34.067 -15.202 -20.157  0.00  0.00    -0.504 OA
ATOM     22  H   UNL     1      33.732 -14.637 -19.489  0.00  0.00    +0.292 HD
ENDBRANCH   9  21
BRANCH   6  23
ATOM     23  C   UNL     1      31.005 -10.011 -22.119  0.00  0.00    +0.054 C 
BRANCH  23  25
ATOM     24  F   UNL     1      34.357  -5.503 -22.681  0.00  0.00    -0.204 F 
ATOM     25  C   UNL     1      31.906  -8.799 -22.270  0.00  0.00    -0.018 C 
ATOM     26  C   UNL     1      32.857  -8.760 -23.290  0.00  0.00    -0.002 C 
ATOM     27  C   UNL     1      31.783  -7.726 -21.388  0.00  0.00    -0.002 C 
ATOM     28  C   UNL     1      33.684  -7.646 -23.430  0.00  0.00    +0.029 C 
ATOM     29  C   UNL     1      32.611  -6.612 -21.528  0.00  0.00    +0.029 C 
ATOM     30  C   UNL     1      33.561  -6.572 -22.548  0.00  0.00    +0.140 C 
ENDBRANCH  23  25
ENDBRANCH   6  23
TORSDOF 7
ENDMDL
MODEL 5
REMARK VINA RESULT:     -10.5      6.824     10.986
REMARK  Name = 54718859
REMARK  7 active torsions:
REMARK  status: ('A' for Active; 'I' for Inactive)
REMARK    1  A    between atoms: C_6  and  C_23
REMARK    2  A    between atoms: C_8  and  C_15
REMARK    3  A    between atoms: C_9  and  O_21
REMARK    4  A    between atoms: N_14  and  C_17
REMARK    5  A    between atoms: C_17  and  C_18
REMARK    6  A    between atoms: C_18  and  O_19
REMARK    7  A    between atoms: C_23  and  C_25
REMARK                            x       y       z     vdW  Elec       q    Type
REMARK                         _______ _______ _______ _____ _____    ______ ____
ROOT
ATOM      1  O   UNL     1      34.147 -23.305 -14.160  0.00  0.00    -0.267 OA
ATOM      2  N   UNL     1      34.715 -22.393 -16.214  0.00  0.00    -0.292 N 
ATOM      3  N   UNL     1      32.434 -21.392 -18.952  0.00  0.00    -0.240 NA
ATOM      4  C   UNL     1      34.284 -21.889 -17.475  0.00  0.00    +0.083 A 
ATOM      5  C   UNL     1      32.925 -21.857 -17.775  0.00  0.00    +0.131 A 
ATOM      6  C   UNL     1      34.686 -20.932 -19.664  0.00  0.00    +0.003 C 
ATOM      7  C   UNL     1      35.168 -21.413 -18.451  0.00  0.00    +0.017 C 
ATOM      8  C   UNL     1      32.348 -22.817 -15.603  0.00  0.00    +0.144 A 
ATOM      9  C   UNL     1      31.945 -22.341 -16.795  0.00  0.00    +0.162 A 
ATOM     10  C   UNL     1      33.811 -22.861 -15.260  0.00  0.00    +0.268 A 
ATOM     11  C   UNL     1      33.321 -20.942 -19.865  0.00  0.00    +0.095 C 
ATOM     12  C   UNL     1      36.145 -22.419 -15.916  0.00  0.00    +0.134 C 
ENDROOT
BRANCH   8  15
ATOM     13  O   UNL     1      31.258 -22.757 -13.524  0.00  0.00    -0.270 OA
ATOM     14  N   UNL     1      30.647 -24.388 -15.074  0.00  0.00    -0.298 N 
ATOM     15  C   UNL     1      31.366 -23.304 -14.615  0.00  0.00    +0.254 C 
ATOM     16  H   UNL     1      30.837 -24.731 -15.977  0.00  0.00    +0.150 HD
BRANCH  14  17
ATOM     17  C   UNL     1      29.626 -25.044 -14.288  0.00  0.00    +0.122 C 
BRANCH  17  18
ATOM     18  C   UNL     1      28.232 -24.653 -14.744  0.00  0.00    +0.158 C 
BRANCH  18  19
ATOM     19  O   UNL     1      28.312 -24.020 -16.015  0.00  0.00    -0.380 OA
ATOM     20  H   UNL     1      28.511 -24.683 -16.694  0.00  0.00    +0.211 HD
ENDBRANCH  18  19
ENDBRANCH  17  18
ENDBRANCH  14  17
ENDBRANCH   8  15
BRANCH   9  21
ATOM     21  O   UNL     1      30.640 -22.249 -17.231  0.00  0.00    -0.504 OA
ATOM     22  H   UNL     1      30.362 -21.502 -17.725  0.00  0.00    +0.292 HD
ENDBRANCH   9  21
BRANCH   6  23
ATOM     23  C   UNL     1      35.612 -20.423 -20.711  0.00  0.00    +0.054 C 
BRANCH  23  25
ATOM     24  F   UNL     1      33.826 -15.719 -23.272  0.00  0.00    -0.204 F 
ATOM     25  C   UNL     1      35.132 -19.159 -21.400  0.00  0.00    -0.018 C 
ATOM     26  C   UNL     1      35.341 -17.916 -20.801  0.00  0.00    -0.002 C 
ATOM     27  C   UNL     1      34.481 -19.240 -22.630  0.00  0.00    -0.002 C 
ATOM     28  C   UNL     1      34.901 -16.754 -21.434  0.00  0.00    +0.029 C 
ATOM     29  C   UNL     1      34.040 -18.078 -23.263  0.00  0.00    +0.029 C 
ATOM     30  C   UNL     1      34.250 -16.835 -22.665  0.00  0.00    +0.140 C 
ENDBRANCH  23  25
ENDBRANCH   6  23
TORSDOF 7
ENDMDL
MODEL 6
REMARK VINA RESULT:     -10.4      7.020     11.495
REMARK  Name = 54718859
REMARK  7 active torsions:
REMARK  status: ('A' for Active; 'I' for Inactive)
REMARK    1  A    between atoms: C_6  and  C_23
REMARK    2  A    between atoms: C_8  and  C_15
REMARK    3  A    between atoms: C_9  and  O_21
REMARK    4  A    between atoms: N_14  and  C_17
REMARK    5  A    between atoms: C_17  and  C_18
REMARK    6  A    between atoms: C_18  and  O_19
REMARK    7  A    between atoms: C_23  and  C_25
REMARK                            x       y       z     vdW  Elec       q    Type
REMARK                         _______ _______ _______ _____ _____    ______ ____
ROOT
ATOM      1  O   UNL     1      34.055 -23.880 -14.427  0.00  0.00    -0.267 OA
ATOM      2  N   UNL     1      33.705 -22.787 -16.442  0.00  0.00    -0.292 N 
ATOM      3  N   UNL     1      36.170 -20.872 -18.432  0.00  0.00    -0.240 NA
ATOM      4  C   UNL     1      34.243 -21.999 -17.500  0.00  0.00    +0.083 A 
ATOM      5  C   UNL     1      35.582 -21.622 -17.464  0.00  0.00    +0.131 A 
ATOM      6  C   UNL     1      34.067 -20.804 -19.599  0.00  0.00    +0.003 C 
ATOM      7  C   UNL     1      33.484 -21.572 -18.597  0.00  0.00    +0.017 C 
ATOM      8  C   UNL     1      35.929 -22.782 -15.342  0.00  0.00    +0.144 A 
ATOM      9  C   UNL     1      36.433 -22.036 -16.343  0.00  0.00    +0.162 A 
ATOM     10  C   UNL     1      34.484 -23.199 -15.360  0.00  0.00    +0.268 A 
ATOM     11  C   UNL     1      35.402 -20.483 -19.472  0.00  0.00    +0.095 C 
ATOM     12  C   UNL     1      32.297 -23.174 -16.495  0.00  0.00    +0.134 C 
ENDROOT
BRANCH   8  15
ATOM     13  O   UNL     1      37.107 -22.397 -13.346  0.00  0.00    -0.270 OA
ATOM     14  N   UNL     1      37.126 -24.535 -14.276  0.00  0.00    -0.298 N 
ATOM     15  C   UNL     1      36.780 -23.201 -14.211  0.00  0.00    +0.254 C 
ATOM     16  H   UNL     1      36.793 -25.072 -15.032  0.00  0.00    +0.150 HD
BRANCH  14  17
ATOM     17  C   UNL     1      37.955 -25.182 -13.284  0.00  0.00    +0.122 C 
BRANCH  17  18
ATOM     18  C   UNL     1      39.423 -25.138 -13.669  0.00  0.00    +0.158 C 
BRANCH  18  19
ATOM     19  O   UNL     1      39.811 -26.402 -14.192  0.00  0.00    -0.380 OA
ATOM     20  H   UNL     1      40.025 -26.310 -15.134  0.00  0.00    +0.211 HD
ENDBRANCH  18  19
ENDBRANCH  17  18
ENDBRANCH  14  17
ENDBRANCH   8  15
BRANCH   9  21
ATOM     21  O   UNL     1      37.733 -21.589 -16.443  0.00  0.00    -0.504 OA
ATOM     22  H   UNL     1      38.424 -22.053 -16.011  0.00  0.00    +0.292 HD
ENDBRANCH   9  21
BRANCH   6  23
ATOM     23  C   UNL     1      33.274 -20.343 -20.772  0.00  0.00    +0.054 C 
BRANCH  23  25
ATOM     24  F   UNL     1      35.288 -15.666 -23.212  0.00  0.00    -0.204 F 
ATOM     25  C   UNL     1      33.815 -19.086 -21.428  0.00  0.00    -0.018 C 
ATOM     26  C   UNL     1      34.400 -18.088 -20.647  0.00  0.00    -0.002 C 
ATOM     27  C   UNL     1      33.728 -18.928 -22.811  0.00  0.00    -0.002 C 
ATOM     28  C   UNL     1      34.898 -16.933 -21.250  0.00  0.00    +0.029 C 
ATOM     29  C   UNL     1      34.226 -17.774 -23.413  0.00  0.00    +0.029 C 
ATOM     30  C   UNL     1      34.810 -16.776 -22.633  0.00  0.00    +0.140 C 
ENDBRANCH  23  25
ENDBRANCH   6  23
TORSDOF 7
ENDMDL
MODEL 7
REMARK VINA RESULT:     -10.3      1.445      2.787
REMARK  Name = 54718859
REMARK  7 active torsions:
REMARK  status: ('A' for Active; 'I' for Inactive)
REMARK    1  A    between atoms: C_6  and  C_23
REMARK    2  A    between atoms: C_8  and  C_15
REMARK    3  A    between atoms: C_9  and  O_21
REMARK    4  A    between atoms: N_14  and  C_17
REMARK    5  A    between atoms: C_17  and  C_18
REMARK    6  A    between atoms: C_18  and  O_19
REMARK    7  A    between atoms: C_23  and  C_25
REMARK                            x       y       z     vdW  Elec       q    Type
REMARK                         _______ _______ _______ _____ _____    ______ ____
ROOT
ATOM      1  O   UNL     1      32.944 -12.681 -21.283  0.00  0.00    -0.267 OA
ATOM      2  N   UNL     1      33.846 -14.807 -21.072  0.00  0.00    -0.292 N 
ATOM      3  N   UNL     1      34.692 -17.183 -23.781  0.00  0.00    -0.240 NA
ATOM      4  C   UNL     1      34.307 -15.994 -21.710  0.00  0.00    +0.083 A 
ATOM      5  C   UNL     1      34.270 -16.087 -23.098  0.00  0.00    +0.131 A 
ATOM      6  C   UNL     1      35.244 -18.228 -21.685  0.00  0.00    +0.003 C 
ATOM      7  C   UNL     1      34.807 -17.096 -21.005  0.00  0.00    +0.017 C 
ATOM      8  C   UNL     1      33.322 -13.844 -23.298  0.00  0.00    +0.144 A 
ATOM      9  C   UNL     1      33.759 -14.968 -23.897  0.00  0.00    +0.162 A 
ATOM     10  C   UNL     1      33.352 -13.723 -21.799  0.00  0.00    +0.268 A 
ATOM     11  C   UNL     1      35.167 -18.222 -23.063  0.00  0.00    +0.095 C 
ATOM     12  C   UNL     1      33.891 -14.726 -19.613  0.00  0.00    +0.134 C 
ENDROOT
BRANCH   8  15
ATOM     13  O   UNL     1      32.385 -12.898 -25.232  0.00  0.00    -0.270 OA
ATOM     14  N   UNL     1      32.869 -11.515 -23.418  0.00  0.00    -0.298 N 
ATOM     15  C   UNL     1      32.806 -12.715 -24.096  0.00  0.00    +0.254 C 
ATOM     16  H   UNL     1      33.233 -11.510 -22.504  0.00  0.00    +0.150 HD
BRANCH  14  17
ATOM     17  C   UNL     1      32.424 -10.265 -23.991  0.00  0.00    +0.122 C 
BRANCH  17  18
ATOM     18  C   UNL     1      31.740  -9.390 -22.956  0.00  0.00    +0.158 C 
BRANCH  18  19
ATOM     19  O   UNL     1      31.270 -10.202 -21.887  0.00  0.00    -0.380 OA
ATOM     20  H   UNL     1      30.525  -9.762 -21.450  0.00  0.00    +0.211 HD
ENDBRANCH  18  19
ENDBRANCH  17  18
ENDBRANCH  14  17
ENDBRANCH   8  15
BRANCH   9  21
ATOM     21  O   UNL     1      33.782 -15.204 -25.255  0.00  0.00    -0.504 OA
ATOM     22  H   UNL     1      33.466 -16.018 -25.595  0.00  0.00    +0.292 HD
ENDBRANCH   9  21
BRANCH   6  23
ATOM     23  C   UNL     1      35.778 -19.407 -20.951  0.00  0.00    +0.054 C 
BRANCH  23  25
ATOM     24  F   UNL     1      31.898 -22.188 -17.936  0.00  0.00    -0.204 F 
ATOM     25  C   UNL     1      34.735 -20.155 -20.141  0.00  0.00    -0.018 C 
ATOM     26  C   UNL     1      35.133 -21.065 -19.161  0.00  0.00    -0.002 C 
ATOM     27  C   UNL     1      33.378 -19.931 -20.375  0.00  0.00    -0.002 C 
ATOM     28  C   UNL     1      34.175 -21.751 -18.416  0.00  0.00    +0.029 C 
ATOM     29  C   UNL     1      32.420 -20.618 -19.630  0.00  0.00    +0.029 C 
ATOM     30  C   UNL     1      32.819 -21.528 -18.651  0.00  0.00    +0.140 C 
ENDBRANCH  23  25
ENDBRANCH   6  23
TORSDOF 7
ENDMDL
MODEL 8
REMARK VINA RESULT:     -10.2      4.927      8.287
REMARK  Name = 54718859
REMARK  7 active torsions:
REMARK  status: ('A' for Active; 'I' for Inactive)
REMARK    1  A    between atoms: C_6  and  C_23
REMARK    2  A    between atoms: C_8  and  C_15
REMARK    3  A    between atoms: C_9  and  O_21
REMARK    4  A    between atoms: N_14  and  C_17
REMARK    5  A    between atoms: C_17  and  C_18
REMARK    6  A    between atoms: C_18  and  O_19
REMARK    7  A    between atoms: C_23  and  C_25
REMARK                            x       y       z     vdW  Elec       q    Type
REMARK                         _______ _______ _______ _____ _____    ______ ____
ROOT
ATOM      1  O   UNL     1      36.477 -19.701 -19.941  0.00  0.00    -0.267 OA
ATOM      2  N   UNL     1      35.440 -21.043 -18.360  0.00  0.00    -0.292 N 
ATOM      3  N   UNL     1      31.851 -21.924 -18.148  0.00  0.00    -0.240 NA
ATOM      4  C   UNL     1      34.237 -21.633 -17.876  0.00  0.00    +0.083 A 
ATOM      5  C   UNL     1      33.039 -21.398 -18.544  0.00  0.00    +0.131 A 
ATOM      6  C   UNL     1      32.984 -23.001 -16.318  0.00  0.00    +0.003 C 
ATOM      7  C   UNL     1      34.191 -22.452 -16.742  0.00  0.00    +0.017 C 
ATOM      8  C   UNL     1      34.152 -19.990 -20.201  0.00  0.00    +0.144 A 
ATOM      9  C   UNL     1      33.018 -20.548 -19.740  0.00  0.00    +0.162 A 
ATOM     10  C   UNL     1      35.458 -20.229 -19.494  0.00  0.00    +0.268 A 
ATOM     11  C   UNL     1      31.852 -22.709 -17.050  0.00  0.00    +0.095 C 
ATOM     12  C   UNL     1      36.689 -21.298 -17.646  0.00  0.00    +0.134 C 
ENDROOT
BRANCH   8  15
ATOM     13  O   UNL     1      33.659 -19.546 -22.454  0.00  0.00    -0.270 OA
ATOM     14  N   UNL     1      34.701 -17.895 -21.179  0.00  0.00    -0.298 N 
ATOM     15  C   UNL     1      34.137 -19.134 -21.404  0.00  0.00    +0.254 C 
ATOM     16  H   UNL     1      35.050 -17.693 -20.280  0.00  0.00    +0.150 HD
BRANCH  14  17
ATOM     17  C   UNL     1      34.803 -16.880 -22.203  0.00  0.00    +0.122 C 
BRANCH  17  18
ATOM     18  C   UNL     1      34.325 -15.530 -21.701  0.00  0.00    +0.158 C 
BRANCH  18  19
ATOM     19  O   UNL     1      34.310 -15.534 -20.279  0.00  0.00    -0.380 OA
ATOM     20  H   UNL     1      34.962 -16.173 -19.951  0.00  0.00    +0.211 HD
ENDBRANCH  18  19
ENDBRANCH  17  18
ENDBRANCH  14  17
ENDBRANCH   8  15
BRANCH   9  21
ATOM     21  O   UNL     1      31.763 -20.407 -20.294  0.00  0.00    -0.504 OA
ATOM     22  H   UNL     1      31.200 -21.152 -20.375  0.00  0.00    +0.292 HD
ENDBRANCH   9  21
BRANCH   6  23
ATOM     23  C   UNL     1      32.918 -23.874 -15.115  0.00  0.00    +0.054 C 
BRANCH  23  25
ATOM     24  F   UNL     1      37.838 -24.427 -12.400  0.00  0.00    -0.204 F 
ATOM     25  C   UNL     1      34.241 -24.023 -14.386  0.00  0.00    -0.018 C 
ATOM     26  C   UNL     1      34.570 -23.145 -13.353  0.00  0.00    -0.002 C 
ATOM     27  C   UNL     1      35.127 -25.037 -14.749  0.00  0.00    -0.002 C 
ATOM     28  C   UNL     1      35.784 -23.282 -12.681  0.00  0.00    +0.029 C 
ATOM     29  C   UNL     1      36.342 -25.174 -14.078  0.00  0.00    +0.029 C 
ATOM     30  C   UNL     1      36.670 -24.296 -13.045  0.00  0.00    +0.140 C 
ENDBRANCH  23  25
ENDBRANCH   6  23
TORSDOF 7
ENDMDL
MODEL 9
REMARK VINA RESULT:     -10.1      1.882      2.481
REMARK  Name = 54718859
REMARK  7 active torsions:
REMARK  status: ('A' for Active; 'I' for Inactive)
REMARK    1  A    between atoms: C_6  and  C_23
REMARK    2  A    between atoms: C_8  and  C_15
REMARK    3  A    between atoms: C_9  and  O_21
REMARK    4  A    between atoms: N_14  and  C_17
REMARK    5  A    between atoms: C_17  and  C_18
REMARK    6  A    between atoms: C_18  and  O_19
REMARK    7  A    between atoms: C_23  and  C_25
REMARK                            x       y       z     vdW  Elec       q    Type
REMARK                         _______ _______ _______ _____ _____    ______ ____
ROOT
ATOM      1  O   UNL     1      31.863 -10.127 -23.874  0.00  0.00    -0.267 OA
ATOM      2  N   UNL     1      32.906 -12.191 -23.692  0.00  0.00    -0.292 N 
ATOM      3  N   UNL     1      33.373 -14.224 -20.634  0.00  0.00    -0.240 NA
ATOM      4  C   UNL     1      33.309 -13.272 -22.857  0.00  0.00    +0.083 A 
ATOM      5  C   UNL     1      33.024 -13.234 -21.496  0.00  0.00    +0.131 A 
ATOM      6  C   UNL     1      34.358 -15.422 -22.475  0.00  0.00    +0.003 C 
ATOM      7  C   UNL     1      33.991 -14.396 -23.340  0.00  0.00    +0.017 C 
ATOM      8  C   UNL     1      31.929 -11.061 -21.710  0.00  0.00    +0.144 A 
ATOM      9  C   UNL     1      32.312 -12.085 -20.926  0.00  0.00    +0.162 A 
ATOM     10  C   UNL     1      32.227 -11.082 -23.184  0.00  0.00    +0.268 A 
ATOM     11  C   UNL     1      34.028 -15.290 -21.142  0.00  0.00    +0.095 C 
ATOM     12  C   UNL     1      33.213 -12.246 -25.119  0.00  0.00    +0.134 C 
ENDROOT
BRANCH   8  15
ATOM     13  O   UNL     1      30.216 -10.067 -20.448  0.00  0.00    -0.270 OA
ATOM     14  N   UNL     1      31.792  -8.699 -21.488  0.00  0.00    -0.298 N 
ATOM     15  C   UNL     1      31.212  -9.902 -21.142  0.00  0.00    +0.254 C 
ATOM     16  H   UNL     1      32.596  -8.711 -22.056  0.00  0.00    +0.150 HD
BRANCH  14  17
ATOM     17  C   UNL     1      31.273  -7.422 -21.054  0.00  0.00    +0.122 C 
BRANCH  17  18
ATOM     18  C   UNL     1      31.563  -7.172 -19.585  0.00  0.00    +0.158 C 
BRANCH  18  19
ATOM     19  O   UNL     1      32.932  -6.823 -19.427  0.00  0.00    -0.380 OA
ATOM     20  H   UNL     1      33.158  -6.819 -18.484  0.00  0.00    +0.211 HD
ENDBRANCH  18  19
ENDBRANCH  17  18
ENDBRANCH  14  17
ENDBRANCH   8  15
BRANCH   9  21
ATOM     21  O   UNL     1      32.101 -12.186 -19.567  0.00  0.00    -0.504 OA
ATOM     22  H   UNL     1      31.715 -11.472 -19.097  0.00  0.00    +0.292 HD
ENDBRANCH   9  21
BRANCH   6  23
ATOM     23  C   UNL     1      35.082 -16.623 -22.972  0.00  0.00    +0.054 C 
BRANCH  23  25
ATOM     24  F   UNL     1      35.035 -20.984 -19.386  0.00  0.00    -0.204 F 
ATOM     25  C   UNL     1      35.069 -17.796 -22.008  0.00  0.00    -0.018 C 
ATOM     26  C   UNL     1      33.918 -18.571 -21.868  0.00  0.00    -0.002 C 
ATOM     27  C   UNL     1      36.208 -18.096 -21.261  0.00  0.00    -0.002 C 
ATOM     28  C   UNL     1      33.907 -19.649 -20.983  0.00  0.00    +0.029 C 
ATOM     29  C   UNL     1      36.197 -19.174 -20.376  0.00  0.00    +0.029 C 
ATOM     30  C   UNL     1      35.046 -19.950 -20.237  0.00  0.00    +0.140 C 
ENDBRANCH  23  25
ENDBRANCH   6  23
TORSDOF 7
ENDMDL
