MODEL 1
REMARK VINA RESULT:     -13.0      0.000      0.000
REMARK  Name = 3055168
REMARK  6 active torsions:
REMARK  status: ('A' for Active; 'I' for Inactive)
REMARK    1  A    between atoms: C_1  and  C_21
REMARK    2  A    between atoms: C_4  and  O_7
REMARK    3  A    between atoms: O_7  and  C_8
REMARK    4  A    between atoms: C_8  and  C_12
REMARK    5  A    between atoms: C_17  and  O_19
REMARK    6  A    between atoms: C_21  and  C_26
REMARK                            x       y       z     vdW  Elec       q    Type
REMARK                         _______ _______ _______ _____ _____    ______ ____
ROOT
ATOM      1  C   UNL     1      34.505 -22.453 -16.711  0.00  0.00    -0.021 C 
ATOM      2  C   UNL     1      35.678 -21.816 -17.119  0.00  0.00    -0.001 C 
ATOM      3  C   UNL     1      33.361 -22.383 -17.505  0.00  0.00    -0.001 C 
ATOM      4  C   UNL     1      34.560 -21.043 -19.110  0.00  0.00    +0.139 C 
ATOM      5  C   UNL     1      35.704 -21.109 -18.322  0.00  0.00    +0.037 C 
ATOM      6  C   UNL     1      33.388 -21.678 -18.708  0.00  0.00    +0.037 C 
ENDROOT
BRANCH   4   7
ATOM      7  O   UNL     1      34.587 -20.352 -20.290  0.00  0.00    -0.466 OA
BRANCH   7   8
ATOM      8  C   UNL     1      35.686 -19.465 -20.486  0.00  0.00    +0.279 C 
BRANCH   8  12
ATOM      9  N   UNL     1      34.841 -18.428 -22.587  0.00  0.00    -0.274 N 
ATOM     10  N   UNL     1      35.062 -17.082 -20.832  0.00  0.00    -0.390 NA
ATOM     11  C   UNL     1      34.442 -17.190 -23.021  0.00  0.00    +0.153 C 
ATOM     12  C   UNL     1      35.202 -18.312 -21.273  0.00  0.00    +0.205 C 
ATOM     13  C   UNL     1      34.589 -16.368 -21.907  0.00  0.00    +0.133 C 
ATOM     14  C   UNL     1      33.979 -16.733 -24.256  0.00  0.00    +0.037 C 
ATOM     15  C   UNL     1      34.871 -19.636 -23.378  0.00  0.00    +0.115 C 
ATOM     16  C   UNL     1      34.261 -15.005 -22.014  0.00  0.00    +0.033 C 
ATOM     17  C   UNL     1      33.656 -15.375 -24.343  0.00  0.00    +0.137 C 
ATOM     18  C   UNL     1      33.794 -14.525 -23.243  0.00  0.00    +0.039 C 
BRANCH  17  19
ATOM     19  O   UNL     1      33.200 -14.872 -25.526  0.00  0.00    -0.472 OA
ATOM     20  C   UNL     1      32.817 -13.498 -25.540  0.00  0.00    +0.252 C 
ENDBRANCH  17  19
ENDBRANCH   8  12
ENDBRANCH   7   8
ENDBRANCH   4   7
BRANCH   1  21
ATOM     21  C   UNL     1      34.476 -23.208 -15.425  0.00  0.00    +0.047 C 
BRANCH  21  26
ATOM     22  S   UNL     1      36.400 -22.921 -13.468  0.00  0.00    -0.048 S 
ATOM     23  O   UNL     1      35.486 -26.037 -15.554  0.00  0.00    -0.274 OA
ATOM     24  O   UNL     1      37.029 -24.516 -11.475  0.00  0.00    -0.263 OA
ATOM     25  N   UNL     1      36.284 -25.473 -13.458  0.00  0.00    -0.246 N 
ATOM     26  C   UNL     1      35.858 -23.711 -15.015  0.00  0.00    +0.137 C 
ATOM     27  C   UNL     1      35.844 -25.196 -14.736  0.00  0.00    +0.239 C 
ATOM     28  C   UNL     1      36.627 -24.439 -12.626  0.00  0.00    +0.279 C 
ATOM     29  H   UNL     1      36.350 -26.404 -13.145  0.00  0.00    +0.158 HD
ENDBRANCH  21  26
ENDBRANCH   1  21
TORSDOF 6
ENDMDL
MODEL 2
REMARK VINA RESULT:     -12.8      2.012      2.632
REMARK  Name = 3055168
REMARK  6 active torsions:
REMARK  status: ('A' for Active; 'I' for Inactive)
REMARK    1  A    between atoms: C_1  and  C_21
REMARK    2  A    between atoms: C_4  and  O_7
REMARK    3  A    between atoms: O_7  and  C_8
REMARK    4  A    between atoms: C_8  and  C_12
REMARK    5  A    between atoms: C_17  and  O_19
REMARK    6  A    between atoms: C_21  and  C_26
REMARK                            x       y       z     vdW  Elec       q    Type
REMARK                         _______ _______ _______ _____ _____    ______ ____
ROOT
ATOM      1  C   UNL     1      33.621 -22.025 -18.262  0.00  0.00    -0.021 C 
ATOM      2  C   UNL     1      32.464 -21.430 -18.766  0.00  0.00    -0.001 C 
ATOM      3  C   UNL     1      34.870 -21.658 -18.764  0.00  0.00    -0.001 C 
ATOM      4  C   UNL     1      33.805 -20.106 -20.269  0.00  0.00    +0.139 C 
ATOM      5  C   UNL     1      32.557 -20.468 -19.773  0.00  0.00    +0.037 C 
ATOM      6  C   UNL     1      34.962 -20.696 -19.769  0.00  0.00    +0.037 C 
ENDROOT
BRANCH   4   7
ATOM      7  O   UNL     1      33.896 -19.161 -21.255  0.00  0.00    -0.466 OA
BRANCH   7   8
ATOM      8  C   UNL     1      35.067 -18.347 -21.255  0.00  0.00    +0.279 C 
BRANCH   8  12
ATOM      9  N   UNL     1      34.354 -16.448 -22.700  0.00  0.00    -0.274 N 
ATOM     10  N   UNL     1      34.496 -16.041 -20.520  0.00  0.00    -0.390 NA
ATOM     11  C   UNL     1      33.998 -15.133 -22.549  0.00  0.00    +0.153 C 
ATOM     12  C   UNL     1      34.643 -16.947 -21.460  0.00  0.00    +0.205 C 
ATOM     13  C   UNL     1      34.094 -14.903 -21.179  0.00  0.00    +0.133 C 
ATOM     14  C   UNL     1      33.612 -14.154 -23.465  0.00  0.00    +0.037 C 
ATOM     15  C   UNL     1      34.412 -17.174 -23.948  0.00  0.00    +0.115 C 
ATOM     16  C   UNL     1      33.791 -13.626 -20.675  0.00  0.00    +0.033 C 
ATOM     17  C   UNL     1      33.313 -12.889 -22.947  0.00  0.00    +0.137 C 
ATOM     18  C   UNL     1      33.400 -12.628 -21.577  0.00  0.00    +0.039 C 
BRANCH  17  19
ATOM     19  O   UNL     1      32.931 -11.893 -23.795  0.00  0.00    -0.472 OA
ATOM     20  C   UNL     1      32.450 -10.688 -23.204  0.00  0.00    +0.252 C 
ENDBRANCH  17  19
ENDBRANCH   8  12
ENDBRANCH   7   8
ENDBRANCH   4   7
BRANCH   1  21
ATOM     21  C   UNL     1      33.522 -23.053 -17.186  0.00  0.00    +0.047 C 
BRANCH  21  26
ATOM     22  S   UNL     1      32.474 -22.836 -14.644  0.00  0.00    -0.048 S 
ATOM     23  O   UNL     1      36.162 -23.109 -15.748  0.00  0.00    -0.274 OA
ATOM     24  O   UNL     1      33.101 -24.132 -12.444  0.00  0.00    -0.263 OA
ATOM     25  N   UNL     1      34.786 -23.697 -13.984  0.00  0.00    -0.246 N 
ATOM     26  C   UNL     1      33.829 -22.481 -15.805  0.00  0.00    +0.137 C 
ATOM     27  C   UNL     1      35.062 -23.117 -15.206  0.00  0.00    +0.239 C 
ATOM     28  C   UNL     1      33.506 -23.666 -13.498  0.00  0.00    +0.279 C 
ATOM     29  H   UNL     1      35.504 -24.129 -13.466  0.00  0.00    +0.158 HD
ENDBRANCH  21  26
ENDBRANCH   1  21
TORSDOF 6
ENDMDL
MODEL 3
REMARK VINA RESULT:     -12.3      2.968     11.052
REMARK  Name = 3055168
REMARK  6 active torsions:
REMARK  status: ('A' for Active; 'I' for Inactive)
REMARK    1  A    between atoms: C_1  and  C_21
REMARK    2  A    between atoms: C_4  and  O_7
REMARK    3  A    between atoms: O_7  and  C_8
REMARK    4  A    between atoms: C_8  and  C_12
REMARK    5  A    between atoms: C_17  and  O_19
REMARK    6  A    between atoms: C_21  and  C_26
REMARK                            x       y       z     vdW  Elec       q    Type
REMARK                         _______ _______ _______ _____ _____    ______ ____
ROOT
ATOM      1  C   UNL     1      33.922 -19.856 -20.611  0.00  0.00    -0.021 C 
ATOM      2  C   UNL     1      33.063 -20.589 -19.793  0.00  0.00    -0.001 C 
ATOM      3  C   UNL     1      35.301 -19.915 -20.407  0.00  0.00    -0.001 C 
ATOM      4  C   UNL     1      34.959 -21.437 -18.569  0.00  0.00    +0.139 C 
ATOM      5  C   UNL     1      33.584 -21.381 -18.768  0.00  0.00    +0.037 C 
ATOM      6  C   UNL     1      35.821 -20.708 -19.384  0.00  0.00    +0.037 C 
ENDROOT
BRANCH   4   7
ATOM      7  O   UNL     1      35.469 -22.216 -17.566  0.00  0.00    -0.466 OA
BRANCH   7   8
ATOM      8  C   UNL     1      36.578 -21.684 -16.844  0.00  0.00    +0.279 C 
BRANCH   8  12
ATOM      9  N   UNL     1      35.683 -22.667 -14.739  0.00  0.00    -0.274 N 
ATOM     10  N   UNL     1      37.827 -23.047 -15.182  0.00  0.00    -0.390 NA
ATOM     11  C   UNL     1      36.144 -23.426 -13.694  0.00  0.00    +0.153 C 
ATOM     12  C   UNL     1      36.725 -22.467 -15.601  0.00  0.00    +0.205 C 
ATOM     13  C   UNL     1      37.485 -23.650 -13.994  0.00  0.00    +0.133 C 
ATOM     14  C   UNL     1      35.522 -23.920 -12.547  0.00  0.00    +0.037 C 
ATOM     15  C   UNL     1      34.335 -22.170 -14.897  0.00  0.00    +0.115 C 
ATOM     16  C   UNL     1      38.267 -24.411 -13.108  0.00  0.00    +0.033 C 
ATOM     17  C   UNL     1      36.315 -24.675 -11.676  0.00  0.00    +0.137 C 
ATOM     18  C   UNL     1      37.663 -24.917 -11.950  0.00  0.00    +0.039 C 
BRANCH  17  19
ATOM     19  O   UNL     1      35.761 -25.183 -10.539  0.00  0.00    -0.472 OA
ATOM     20  C   UNL     1      35.044 -24.273  -9.707  0.00  0.00    +0.252 C 
ENDBRANCH  17  19
ENDBRANCH   8  12
ENDBRANCH   7   8
ENDBRANCH   4   7
BRANCH   1  21
ATOM     21  C   UNL     1      33.367 -19.008 -21.705  0.00  0.00    +0.047 C 
BRANCH  21  26
ATOM     22  S   UNL     1      33.968 -18.041 -24.218  0.00  0.00    -0.048 S 
ATOM     23  O   UNL     1      34.990 -16.659 -20.764  0.00  0.00    -0.274 OA
ATOM     24  O   UNL     1      33.940 -15.574 -25.128  0.00  0.00    -0.263 OA
ATOM     25  N   UNL     1      34.509 -15.921 -22.902  0.00  0.00    -0.246 N 
ATOM     26  C   UNL     1      34.456 -18.272 -22.481  0.00  0.00    +0.137 C 
ATOM     27  C   UNL     1      34.685 -16.884 -21.929  0.00  0.00    +0.239 C 
ATOM     28  C   UNL     1      34.137 -16.299 -24.164  0.00  0.00    +0.279 C 
ATOM     29  H   UNL     1      34.650 -14.969 -22.690  0.00  0.00    +0.158 HD
ENDBRANCH  21  26
ENDBRANCH   1  21
TORSDOF 6
ENDMDL
MODEL 4
REMARK VINA RESULT:     -12.3      3.421     10.874
REMARK  Name = 3055168
REMARK  6 active torsions:
REMARK  status: ('A' for Active; 'I' for Inactive)
REMARK    1  A    between atoms: C_1  and  C_21
REMARK    2  A    between atoms: C_4  and  O_7
REMARK    3  A    between atoms: O_7  and  C_8
REMARK    4  A    between atoms: C_8  and  C_12
REMARK    5  A    between atoms: C_17  and  O_19
REMARK    6  A    between atoms: C_21  and  C_26
REMARK                            x       y       z     vdW  Elec       q    Type
REMARK                         _______ _______ _______ _____ _____    ______ ____
ROOT
ATOM      1  C   UNL     1      34.637 -16.671 -22.734  0.00  0.00    -0.021 C 
ATOM      2  C   UNL     1      34.993 -16.829 -21.394  0.00  0.00    -0.001 C 
ATOM      3  C   UNL     1      34.235 -17.776 -23.484  0.00  0.00    -0.001 C 
ATOM      4  C   UNL     1      34.545 -19.192 -21.559  0.00  0.00    +0.139 C 
ATOM      5  C   UNL     1      34.948 -18.094 -20.806  0.00  0.00    +0.037 C 
ATOM      6  C   UNL     1      34.188 -19.039 -22.895  0.00  0.00    +0.037 C 
ENDROOT
BRANCH   4   7
ATOM      7  O   UNL     1      34.499 -20.431 -20.980  0.00  0.00    -0.466 OA
BRANCH   7   8
ATOM      8  C   UNL     1      33.614 -20.587 -19.873  0.00  0.00    +0.279 C 
BRANCH   8  12
ATOM      9  N   UNL     1      33.854 -21.905 -17.774  0.00  0.00    -0.274 N 
ATOM     10  N   UNL     1      35.673 -20.860 -18.507  0.00  0.00    -0.390 NA
ATOM     11  C   UNL     1      34.838 -22.203 -16.867  0.00  0.00    +0.153 C 
ATOM     12  C   UNL     1      34.401 -21.100 -18.734  0.00  0.00    +0.205 C 
ATOM     13  C   UNL     1      35.964 -21.539 -17.347  0.00  0.00    +0.133 C 
ATOM     14  C   UNL     1      34.840 -22.972 -15.703  0.00  0.00    +0.037 C 
ATOM     15  C   UNL     1      32.485 -22.362 -17.721  0.00  0.00    +0.115 C 
ATOM     16  C   UNL     1      37.173 -21.637 -16.635  0.00  0.00    +0.033 C 
ATOM     17  C   UNL     1      36.051 -23.060 -15.008  0.00  0.00    +0.137 C 
ATOM     18  C   UNL     1      37.198 -22.405 -15.464  0.00  0.00    +0.039 C 
BRANCH  17  19
ATOM     19  O   UNL     1      36.112 -23.798 -13.863  0.00  0.00    -0.472 OA
ATOM     20  C   UNL     1      37.212 -24.695 -13.730  0.00  0.00    +0.252 C 
ENDBRANCH  17  19
ENDBRANCH   8  12
ENDBRANCH   7   8
ENDBRANCH   4   7
BRANCH   1  21
ATOM     21  C   UNL     1      34.686 -15.320 -23.364  0.00  0.00    +0.047 C 
BRANCH  21  26
ATOM     22  S   UNL     1      33.262 -13.242 -22.238  0.00  0.00    -0.048 S 
ATOM     23  O   UNL     1      33.019 -14.724 -25.793  0.00  0.00    -0.274 OA
ATOM     24  O   UNL     1      32.626 -10.895 -23.240  0.00  0.00    -0.263 OA
ATOM     25  N   UNL     1      32.760 -12.710 -24.685  0.00  0.00    -0.246 N 
ATOM     26  C   UNL     1      33.318 -14.644 -23.397  0.00  0.00    +0.137 C 
ATOM     27  C   UNL     1      33.023 -14.063 -24.761  0.00  0.00    +0.239 C 
ATOM     28  C   UNL     1      32.827 -12.078 -23.472  0.00  0.00    +0.279 C 
ATOM     29  H   UNL     1      32.527 -12.203 -25.497  0.00  0.00    +0.158 HD
ENDBRANCH  21  26
ENDBRANCH   1  21
TORSDOF 6
ENDMDL
MODEL 5
REMARK VINA RESULT:     -12.2      2.981     10.803
REMARK  Name = 3055168
REMARK  6 active torsions:
REMARK  status: ('A' for Active; 'I' for Inactive)
REMARK    1  A    between atoms: C_1  and  C_21
REMARK    2  A    between atoms: C_4  and  O_7
REMARK    3  A    between atoms: O_7  and  C_8
REMARK    4  A    between atoms: C_8  and  C_12
REMARK    5  A    between atoms: C_17  and  O_19
REMARK    6  A    between atoms: C_21  and  C_26
REMARK                            x       y       z     vdW  Elec       q    Type
REMARK                         _______ _______ _______ _____ _____    ______ ____
ROOT
ATOM      1  C   UNL     1      35.044 -19.005 -20.788  0.00  0.00    -0.021 C 
ATOM      2  C   UNL     1      33.709 -19.401 -20.714  0.00  0.00    -0.001 C 
ATOM      3  C   UNL     1      36.036 -19.776 -20.181  0.00  0.00    -0.001 C 
ATOM      4  C   UNL     1      34.359 -21.335 -19.430  0.00  0.00    +0.139 C 
ATOM      5  C   UNL     1      33.366 -20.570 -20.032  0.00  0.00    +0.037 C 
ATOM      6  C   UNL     1      35.693 -20.944 -19.502  0.00  0.00    +0.037 C 
ENDROOT
BRANCH   4   7
ATOM      7  O   UNL     1      34.022 -22.482 -18.763  0.00  0.00    -0.466 OA
BRANCH   7   8
ATOM      8  C   UNL     1      33.049 -22.357 -17.728  0.00  0.00    +0.279 C 
BRANCH   8  12
ATOM      9  N   UNL     1      32.957 -23.052 -15.338  0.00  0.00    -0.274 N 
ATOM     10  N   UNL     1      34.976 -22.902 -16.254  0.00  0.00    -0.390 NA
ATOM     11  C   UNL     1      33.836 -23.395 -14.344  0.00  0.00    +0.153 C 
ATOM     12  C   UNL     1      33.685 -22.766 -16.459  0.00  0.00    +0.205 C 
ATOM     13  C   UNL     1      35.090 -23.294 -14.940  0.00  0.00    +0.133 C 
ATOM     14  C   UNL     1      33.648 -23.772 -13.014  0.00  0.00    +0.037 C 
ATOM     15  C   UNL     1      31.518 -23.003 -15.219  0.00  0.00    +0.115 C 
ATOM     16  C   UNL     1      36.236 -23.583 -14.179  0.00  0.00    +0.033 C 
ATOM     17  C   UNL     1      34.799 -24.057 -12.271  0.00  0.00    +0.137 C 
ATOM     18  C   UNL     1      36.071 -23.965 -12.842  0.00  0.00    +0.039 C 
BRANCH  17  19
ATOM     19  O   UNL     1      34.676 -24.430 -10.966  0.00  0.00    -0.472 OA
ATOM     20  C   UNL     1      35.493 -23.746 -10.018  0.00  0.00    +0.252 C 
ENDBRANCH  17  19
ENDBRANCH   8  12
ENDBRANCH   7   8
ENDBRANCH   4   7
BRANCH   1  21
ATOM     21  C   UNL     1      35.412 -17.756 -21.515  0.00  0.00    +0.047 C 
BRANCH  21  26
ATOM     22  S   UNL     1      34.169 -15.306 -21.260  0.00  0.00    -0.048 S 
ATOM     23  O   UNL     1      34.256 -17.694 -24.290  0.00  0.00    -0.274 OA
ATOM     24  O   UNL     1      34.068 -13.282 -22.937  0.00  0.00    -0.263 OA
ATOM     25  N   UNL     1      34.143 -15.435 -23.811  0.00  0.00    -0.246 N 
ATOM     26  C   UNL     1      34.187 -16.974 -21.984  0.00  0.00    +0.137 C 
ATOM     27  C   UNL     1      34.201 -16.773 -23.482  0.00  0.00    +0.239 C 
ATOM     28  C   UNL     1      34.117 -14.497 -22.812  0.00  0.00    +0.279 C 
ATOM     29  H   UNL     1      34.121 -15.155 -24.755  0.00  0.00    +0.158 HD
ENDBRANCH  21  26
ENDBRANCH   1  21
TORSDOF 6
ENDMDL
MODEL 6
REMARK VINA RESULT:     -12.1      2.895     10.787
REMARK  Name = 3055168
REMARK  6 active torsions:
REMARK  status: ('A' for Active; 'I' for Inactive)
REMARK    1  A    between atoms: C_1  and  C_21
REMARK    2  A    between atoms: C_4  and  O_7
REMARK    3  A    between atoms: O_7  and  C_8
REMARK    4  A    between atoms: C_8  and  C_12
REMARK    5  A    between atoms: C_17  and  O_19
REMARK    6  A    between atoms: C_21  and  C_26
REMARK                            x       y       z     vdW  Elec       q    Type
REMARK                         _______ _______ _______ _____ _____    ______ ____
ROOT
ATOM      1  C   UNL     1      34.878 -19.756 -20.570  0.00  0.00    -0.021 C 
ATOM      2  C   UNL     1      35.850 -20.432 -19.833  0.00  0.00    -0.001 C 
ATOM      3  C   UNL     1      33.527 -20.036 -20.365  0.00  0.00    -0.001 C 
ATOM      4  C   UNL     1      34.122 -21.664 -18.691  0.00  0.00    +0.139 C 
ATOM      5  C   UNL     1      35.470 -21.389 -18.891  0.00  0.00    +0.037 C 
ATOM      6  C   UNL     1      33.147 -20.992 -19.423  0.00  0.00    +0.037 C 
ENDROOT
BRANCH   4   7
ATOM      7  O   UNL     1      33.750 -22.601 -17.765  0.00  0.00    -0.466 OA
BRANCH   7   8
ATOM      8  C   UNL     1      33.877 -22.231 -16.394  0.00  0.00    +0.279 C 
BRANCH   8  12
ATOM      9  N   UNL     1      36.068 -22.870 -15.398  0.00  0.00    -0.274 N 
ATOM     10  N   UNL     1      34.497 -24.441 -15.438  0.00  0.00    -0.390 NA
ATOM     11  C   UNL     1      36.641 -23.976 -14.826  0.00  0.00    +0.153 C 
ATOM     12  C   UNL     1      34.787 -23.197 -15.747  0.00  0.00    +0.205 C 
ATOM     13  C   UNL     1      35.640 -24.943 -14.863  0.00  0.00    +0.133 C 
ATOM     14  C   UNL     1      37.911 -24.207 -14.296  0.00  0.00    +0.037 C 
ATOM     15  C   UNL     1      36.706 -21.588 -15.594  0.00  0.00    +0.115 C 
ATOM     16  C   UNL     1      35.905 -26.223 -14.345  0.00  0.00    +0.033 C 
ATOM     17  C   UNL     1      38.157 -25.485 -13.784  0.00  0.00    +0.137 C 
ATOM     18  C   UNL     1      37.173 -26.477 -13.807  0.00  0.00    +0.039 C 
BRANCH  17  19
ATOM     19  O   UNL     1      39.381 -25.769 -13.254  0.00  0.00    -0.472 OA
ATOM     20  C   UNL     1      40.466 -25.908 -14.170  0.00  0.00    +0.252 C 
ENDBRANCH  17  19
ENDBRANCH   8  12
ENDBRANCH   7   8
ENDBRANCH   4   7
BRANCH   1  21
ATOM     21  C   UNL     1      35.283 -18.734 -21.578  0.00  0.00    +0.047 C 
BRANCH  21  26
ATOM     22  S   UNL     1      34.453 -16.111 -21.374  0.00  0.00    -0.048 S 
ATOM     23  O   UNL     1      33.793 -18.668 -24.189  0.00  0.00    -0.274 OA
ATOM     24  O   UNL     1      34.427 -14.205 -23.186  0.00  0.00    -0.263 OA
ATOM     25  N   UNL     1      34.073 -16.393 -23.885  0.00  0.00    -0.246 N 
ATOM     26  C   UNL     1      34.133 -17.804 -21.958  0.00  0.00    +0.137 C 
ATOM     27  C   UNL     1      33.979 -17.702 -23.458  0.00  0.00    +0.239 C 
ATOM     28  C   UNL     1      34.314 -15.402 -22.970  0.00  0.00    +0.279 C 
ATOM     29  H   UNL     1      33.967 -16.172 -24.839  0.00  0.00    +0.158 HD
ENDBRANCH  21  26
ENDBRANCH   1  21
TORSDOF 6
ENDMDL
MODEL 7
REMARK VINA RESULT:     -12.1      3.194     10.819
REMARK  Name = 3055168
REMARK  6 active torsions:
REMARK  status: ('A' for Active; 'I' for Inactive)
REMARK    1  A    between atoms: C_1  and  C_21
REMARK    2  A    between atoms: C_4  and  O_7
REMARK    3  A    between atoms: O_7  and  C_8
REMARK    4  A    between atoms: C_8  and  C_12
REMARK    5  A    between atoms: C_17  and  O_19
REMARK    6  A    between atoms: C_21  and  C_26
REMARK                            x       y       z     vdW  Elec       q    Type
REMARK                         _______ _______ _______ _____ _____    ______ ____
ROOT
ATOM      1  C   UNL     1      35.103 -17.906 -21.941  0.00  0.00    -0.021 C 
ATOM      2  C   UNL     1      36.203 -18.286 -21.172  0.00  0.00    -0.001 C 
ATOM      3  C   UNL     1      33.921 -18.644 -21.879  0.00  0.00    -0.001 C 
ATOM      4  C   UNL     1      34.940 -20.136 -20.285  0.00  0.00    +0.139 C 
ATOM      5  C   UNL     1      36.121 -19.405 -20.343  0.00  0.00    +0.037 C 
ATOM      6  C   UNL     1      33.839 -19.761 -21.049  0.00  0.00    +0.037 C 
ENDROOT
BRANCH   4   7
ATOM      7  O   UNL     1      34.859 -21.232 -19.469  0.00  0.00    -0.466 OA
BRANCH   7   8
ATOM      8  C   UNL     1      35.849 -21.344 -18.449  0.00  0.00    +0.279 C 
BRANCH   8  12
ATOM      9  N   UNL     1      35.884 -22.138 -16.089  0.00  0.00    -0.274 N 
ATOM     10  N   UNL     1      33.953 -22.325 -17.173  0.00  0.00    -0.390 NA
ATOM     11  C   UNL     1      35.012 -22.697 -15.190  0.00  0.00    +0.153 C 
ATOM     12  C   UNL     1      35.206 -21.935 -17.258  0.00  0.00    +0.205 C 
ATOM     13  C   UNL     1      33.813 -22.803 -15.891  0.00  0.00    +0.133 C 
ATOM     14  C   UNL     1      35.164 -23.106 -13.865  0.00  0.00    +0.037 C 
ATOM     15  C   UNL     1      37.272 -21.821 -15.840  0.00  0.00    +0.115 C 
ATOM     16  C   UNL     1      32.689 -23.348 -15.247  0.00  0.00    +0.033 C 
ATOM     17  C   UNL     1      34.035 -23.645 -13.239  0.00  0.00    +0.137 C 
ATOM     18  C   UNL     1      32.819 -23.765 -13.916  0.00  0.00    +0.039 C 
BRANCH  17  19
ATOM     19  O   UNL     1      34.125 -24.063 -11.945  0.00  0.00    -0.472 OA
ATOM     20  C   UNL     1      35.339 -23.775 -11.255  0.00  0.00    +0.252 C 
ENDBRANCH  17  19
ENDBRANCH   8  12
ENDBRANCH   7   8
ENDBRANCH   4   7
BRANCH   1  21
ATOM     21  C   UNL     1      35.191 -16.711 -22.829  0.00  0.00    +0.047 C 
BRANCH  21  26
ATOM     22  S   UNL     1      33.927 -14.484 -21.801  0.00  0.00    -0.048 S 
ATOM     23  O   UNL     1      33.566 -16.104 -25.285  0.00  0.00    -0.274 OA
ATOM     24  O   UNL     1      33.465 -12.145 -22.909  0.00  0.00    -0.263 OA
ATOM     25  N   UNL     1      33.460 -14.029 -24.270  0.00  0.00    -0.246 N 
ATOM     26  C   UNL     1      33.877 -15.937 -22.894  0.00  0.00    +0.137 C 
ATOM     27  C   UNL     1      33.622 -15.399 -24.284  0.00  0.00    +0.239 C 
ATOM     28  C   UNL     1      33.576 -13.349 -23.087  0.00  0.00    +0.279 C 
ATOM     29  H   UNL     1      33.264 -13.543 -25.104  0.00  0.00    +0.158 HD
ENDBRANCH  21  26
ENDBRANCH   1  21
TORSDOF 6
ENDMDL
MODEL 8
REMARK VINA RESULT:     -11.9      4.985     11.253
REMARK  Name = 3055168
REMARK  6 active torsions:
REMARK  status: ('A' for Active; 'I' for Inactive)
REMARK    1  A    between atoms: C_1  and  C_21
REMARK    2  A    between atoms: C_4  and  O_7
REMARK    3  A    between atoms: O_7  and  C_8
REMARK    4  A    between atoms: C_8  and  C_12
REMARK    5  A    between atoms: C_17  and  O_19
REMARK    6  A    between atoms: C_21  and  C_26
REMARK                            x       y       z     vdW  Elec       q    Type
REMARK                         _______ _______ _______ _____ _____    ______ ____
ROOT
ATOM      1  C   UNL     1      32.351 -13.001 -22.022  0.00  0.00    -0.021 C 
ATOM      2  C   UNL     1      32.875 -13.650 -20.904  0.00  0.00    -0.001 C 
ATOM      3  C   UNL     1      32.735 -13.398 -23.303  0.00  0.00    -0.001 C 
ATOM      4  C   UNL     1      34.164 -15.087 -22.347  0.00  0.00    +0.139 C 
ATOM      5  C   UNL     1      33.785 -14.695 -21.067  0.00  0.00    +0.037 C 
ATOM      6  C   UNL     1      33.643 -14.444 -23.466  0.00  0.00    +0.037 C 
ENDROOT
BRANCH   4   7
ATOM      7  O   UNL     1      35.055 -16.114 -22.506  0.00  0.00    -0.466 OA
BRANCH   7   8
ATOM      8  C   UNL     1      34.556 -17.305 -23.111  0.00  0.00    +0.279 C 
BRANCH   8  12
ATOM      9  N   UNL     1      35.500 -18.772 -21.335  0.00  0.00    -0.274 N 
ATOM     10  N   UNL     1      33.310 -18.918 -21.686  0.00  0.00    -0.390 NA
ATOM     11  C   UNL     1      35.047 -19.711 -20.443  0.00  0.00    +0.153 C 
ATOM     12  C   UNL     1      34.426 -18.328 -22.054  0.00  0.00    +0.205 C 
ATOM     13  C   UNL     1      33.677 -19.783 -20.683  0.00  0.00    +0.133 C 
ATOM     14  C   UNL     1      35.698 -20.479 -19.478  0.00  0.00    +0.037 C 
ATOM     15  C   UNL     1      36.868 -18.333 -21.483  0.00  0.00    +0.115 C 
ATOM     16  C   UNL     1      32.895 -20.670 -19.923  0.00  0.00    +0.033 C 
ATOM     17  C   UNL     1      34.905 -21.356 -18.731  0.00  0.00    +0.137 C 
ATOM     18  C   UNL     1      33.528 -21.451 -18.948  0.00  0.00    +0.039 C 
BRANCH  17  19
ATOM     19  O   UNL     1      35.487 -22.133 -17.774  0.00  0.00    -0.472 OA
ATOM     20  C   UNL     1      36.418 -21.496 -16.901  0.00  0.00    +0.252 C 
ENDBRANCH  17  19
ENDBRANCH   8  12
ENDBRANCH   7   8
ENDBRANCH   4   7
BRANCH   1  21
ATOM     21  C   UNL     1      31.379 -11.883 -21.848  0.00  0.00    +0.047 C 
BRANCH  21  26
ATOM     22  S   UNL     1      31.862  -9.414 -22.980  0.00  0.00    -0.048 S 
ATOM     23  O   UNL     1      31.390 -10.346 -19.265  0.00  0.00    -0.274 OA
ATOM     24  O   UNL     1      30.761  -7.081 -22.470  0.00  0.00    -0.263 OA
ATOM     25  N   UNL     1      31.006  -8.589 -20.719  0.00  0.00    -0.246 N 
ATOM     26  C   UNL     1      32.070 -10.550 -21.574  0.00  0.00    +0.137 C 
ATOM     27  C   UNL     1      31.461  -9.847 -20.382  0.00  0.00    +0.239 C 
ATOM     28  C   UNL     1      31.115  -8.158 -22.014  0.00  0.00    +0.279 C 
ATOM     29  H   UNL     1      30.605  -8.006 -20.034  0.00  0.00    +0.158 HD
ENDBRANCH  21  26
ENDBRANCH   1  21
TORSDOF 6
ENDMDL
MODEL 9
REMARK VINA RESULT:     -11.9      3.157     10.836
REMARK  Name = 3055168
REMARK  6 active torsions:
REMARK  status: ('A' for Active; 'I' for Inactive)
REMARK    1  A    between atoms: C_1  and  C_21
REMARK    2  A    between atoms: C_4  and  O_7
REMARK    3  A    between atoms: O_7  and  C_8
REMARK    4  A    between atoms: C_8  and  C_12
REMARK    5  A    between atoms: C_17  and  O_19
REMARK    6  A    between atoms: C_21  and  C_26
REMARK                            x       y       z     vdW  Elec       q    Type
REMARK                         _______ _______ _______ _____ _____    ______ ____
ROOT
ATOM      1  C   UNL     1      33.288 -19.942 -20.330  0.00  0.00    -0.021 C 
ATOM      2  C   UNL     1      32.248 -20.509 -19.594  0.00  0.00    -0.001 C 
ATOM      3  C   UNL     1      34.602 -20.360 -20.119  0.00  0.00    -0.001 C 
ATOM      4  C   UNL     1      33.835 -21.909 -18.439  0.00  0.00    +0.139 C 
ATOM      5  C   UNL     1      32.523 -21.495 -18.645  0.00  0.00    +0.037 C 
ATOM      6  C   UNL     1      34.876 -21.346 -19.172  0.00  0.00    +0.037 C 
ENDROOT
BRANCH   4   7
ATOM      7  O   UNL     1      34.104 -22.877 -17.510  0.00  0.00    -0.466 OA
BRANCH   7   8
ATOM      8  C   UNL     1      34.266 -22.442 -16.162  0.00  0.00    +0.279 C 
BRANCH   8  12
ATOM      9  N   UNL     1      36.644 -22.889 -15.574  0.00  0.00    -0.274 N 
ATOM     10  N   UNL     1      35.156 -24.406 -14.924  0.00  0.00    -0.390 NA
ATOM     11  C   UNL     1      37.367 -23.857 -14.924  0.00  0.00    +0.153 C 
ATOM     12  C   UNL     1      35.329 -23.263 -15.547  0.00  0.00    +0.205 C 
ATOM     13  C   UNL     1      36.415 -24.793 -14.528  0.00  0.00    +0.133 C 
ATOM     14  C   UNL     1      38.730 -23.990 -14.658  0.00  0.00    +0.037 C 
ATOM     15  C   UNL     1      37.180 -21.690 -16.176  0.00  0.00    +0.115 C 
ATOM     16  C   UNL     1      36.830 -25.936 -13.823  0.00  0.00    +0.033 C 
ATOM     17  C   UNL     1      39.126 -25.133 -13.955  0.00  0.00    +0.137 C 
ATOM     18  C   UNL     1      38.194 -26.090 -13.545  0.00  0.00    +0.039 C 
BRANCH  17  19
ATOM     19  O   UNL     1      40.445 -25.317 -13.668  0.00  0.00    -0.472 OA
ATOM     20  C   UNL     1      40.913 -26.663 -13.607  0.00  0.00    +0.252 C 
ENDBRANCH  17  19
ENDBRANCH   8  12
ENDBRANCH   7   8
ENDBRANCH   4   7
BRANCH   1  21
ATOM     21  C   UNL     1      32.995 -18.887 -21.343  0.00  0.00    +0.047 C 
BRANCH  21  26
ATOM     22  S   UNL     1      33.780 -18.278 -23.917  0.00  0.00    -0.048 S 
ATOM     23  O   UNL     1      35.195 -16.992 -20.564  0.00  0.00    -0.274 OA
ATOM     24  O   UNL     1      34.383 -15.954 -24.991  0.00  0.00    -0.263 OA
ATOM     25  N   UNL     1      34.884 -16.293 -22.746  0.00  0.00    -0.246 N 
ATOM     26  C   UNL     1      34.224 -18.516 -22.169  0.00  0.00    +0.137 C 
ATOM     27  C   UNL     1      34.819 -17.204 -21.712  0.00  0.00    +0.239 C 
ATOM     28  C   UNL     1      34.402 -16.642 -23.981  0.00  0.00    +0.279 C 
ATOM     29  H   UNL     1      35.273 -15.400 -22.600  0.00  0.00    +0.158 HD
ENDBRANCH  21  26
ENDBRANCH   1  21
TORSDOF 6
ENDMDL
