MODEL 1
REMARK VINA RESULT:     -12.3      0.000      0.000
REMARK  Name = 16755766
REMARK  5 active torsions:
REMARK  status: ('A' for Active; 'I' for Inactive)
REMARK    1  A    between atoms: N_1  and  C_25
REMARK    2  A    between atoms: N_3  and  C_12
REMARK    3  A    between atoms: C_5  and  C_20
REMARK    4  A    between atoms: C_25  and  C_26
REMARK    5  A    between atoms: C_26  and  C_29
REMARK                            x       y       z     vdW  Elec       q    Type
REMARK                         _______ _______ _______ _____ _____    ______ ____
ROOT
ATOM      1  N   UNL     1      32.138 -22.905 -15.856  0.00  0.00    -0.174 N 
ATOM      2  N   UNL     1      33.358 -23.094 -15.352  0.00  0.00    -0.096 NA
ATOM      3  N   UNL     1      33.936 -24.027 -13.221  0.00  0.00    -0.246 N 
ATOM      4  N   UNL     1      31.715 -23.777 -13.914  0.00  0.00    -0.319 NA
ATOM      5  C   UNL     1      31.165 -23.306 -15.010  0.00  0.00    +0.216 C 
ATOM      6  C   UNL     1      33.048 -23.627 -14.168  0.00  0.00    +0.165 C 
ATOM      7  H   UNL     1      33.517 -24.315 -12.378  0.00  0.00    +0.165 HD
ENDROOT
BRANCH   3  12
ATOM      8  F   UNL     1      40.100 -26.516 -13.884  0.00  0.00    -0.125 F 
ATOM      9  F   UNL     1      40.200 -24.913 -15.369  0.00  0.00    -0.125 F 
ATOM     10  O   UNL     1      38.177 -25.786 -14.837  0.00  0.00    -0.395 OA
ATOM     11  O   UNL     1      39.439 -24.430 -13.289  0.00  0.00    -0.395 OA
ATOM     12  C   UNL     1      35.357 -24.107 -13.213  0.00  0.00    +0.061 C 
ATOM     13  C   UNL     1      37.376 -25.011 -14.053  0.00  0.00    +0.183 C 
ATOM     14  C   UNL     1      35.997 -24.968 -14.099  0.00  0.00    +0.056 C 
ATOM     15  C   UNL     1      38.097 -24.237 -13.171  0.00  0.00    +0.182 C 
ATOM     16  C   UNL     1      36.082 -23.316 -12.311  0.00  0.00    +0.019 C 
ATOM     17  C   UNL     1      37.477 -23.379 -12.286  0.00  0.00    +0.042 C 
ATOM     18  C   UNL     1      39.467 -25.406 -14.340  0.00  0.00    +0.589 C 
ENDBRANCH   3  12
BRANCH   5  20
ATOM     19  N   UNL     1      27.017 -23.043 -15.832  0.00  0.00    -0.242 NA
ATOM     20  C   UNL     1      29.752 -23.216 -15.288  0.00  0.00    +0.050 C 
ATOM     21  C   UNL     1      29.047 -22.065 -14.956  0.00  0.00    +0.025 C 
ATOM     22  C   UNL     1      29.092 -24.281 -15.891  0.00  0.00    +0.025 C 
ATOM     23  C   UNL     1      27.693 -22.028 -15.247  0.00  0.00    +0.099 C 
ATOM     24  C   UNL     1      27.735 -24.145 -16.139  0.00  0.00    +0.099 C 
ENDBRANCH   5  20
BRANCH   1  25
ATOM     25  C   UNL     1      31.991 -22.310 -17.179  0.00  0.00    +0.129 C 
BRANCH  25  26
ATOM     26  C   UNL     1      33.313 -22.280 -17.946  0.00  0.00    +0.109 C 
BRANCH  26  29
ATOM     27  O   UNL     1      32.197 -21.160 -19.748  0.00  0.00    -0.275 OA
ATOM     28  N   UNL     1      34.473 -20.766 -19.533  0.00  0.00    -0.276 N 
ATOM     29  C   UNL     1      33.262 -21.356 -19.156  0.00  0.00    +0.228 C 
ATOM     30  C   UNL     1      35.722 -21.013 -18.816  0.00  0.00    +0.115 C 
ATOM     31  C   UNL     1      34.580 -19.861 -20.671  0.00  0.00    +0.115 C 
ENDBRANCH  26  29
ENDBRANCH  25  26
ENDBRANCH   1  25
TORSDOF 5
ENDMDL
MODEL 2
REMARK VINA RESULT:     -12.0      4.311      8.234
REMARK  Name = 16755766
REMARK  5 active torsions:
REMARK  status: ('A' for Active; 'I' for Inactive)
REMARK    1  A    between atoms: N_1  and  C_25
REMARK    2  A    between atoms: N_3  and  C_12
REMARK    3  A    between atoms: C_5  and  C_20
REMARK    4  A    between atoms: C_25  and  C_26
REMARK    5  A    between atoms: C_26  and  C_29
REMARK                            x       y       z     vdW  Elec       q    Type
REMARK                         _______ _______ _______ _____ _____    ______ ____
ROOT
ATOM      1  N   UNL     1      34.480 -23.265 -15.268  0.00  0.00    -0.174 N 
ATOM      2  N   UNL     1      34.263 -22.534 -16.363  0.00  0.00    -0.096 NA
ATOM      3  N   UNL     1      35.891 -21.467 -17.762  0.00  0.00    -0.246 N 
ATOM      4  N   UNL     1      36.490 -22.708 -15.870  0.00  0.00    -0.319 NA
ATOM      5  C   UNL     1      35.794 -23.369 -14.974  0.00  0.00    +0.216 C 
ATOM      6  C   UNL     1      35.517 -22.218 -16.693  0.00  0.00    +0.165 C 
ATOM      7  H   UNL     1      36.855 -21.270 -17.792  0.00  0.00    +0.165 HD
ENDROOT
BRANCH   3  12
ATOM      8  F   UNL     1      34.098 -17.301 -22.666  0.00  0.00    -0.125 F 
ATOM      9  F   UNL     1      34.475 -19.102 -23.847  0.00  0.00    -0.125 F 
ATOM     10  O   UNL     1      35.531 -18.860 -21.856  0.00  0.00    -0.395 OA
ATOM     11  O   UNL     1      33.154 -19.256 -22.012  0.00  0.00    -0.395 OA
ATOM     12  C   UNL     1      35.156 -20.911 -18.846  0.00  0.00    +0.061 C 
ATOM     13  C   UNL     1      35.064 -19.628 -20.832  0.00  0.00    +0.183 C 
ATOM     14  C   UNL     1      35.820 -20.147 -19.800  0.00  0.00    +0.056 C 
ATOM     15  C   UNL     1      33.708 -19.854 -20.922  0.00  0.00    +0.182 C 
ATOM     16  C   UNL     1      33.777 -21.146 -18.929  0.00  0.00    +0.019 C 
ATOM     17  C   UNL     1      33.035 -20.610 -19.984  0.00  0.00    +0.042 C 
ATOM     18  C   UNL     1      34.315 -18.638 -22.584  0.00  0.00    +0.589 C 
ENDBRANCH   3  12
BRANCH   5  20
ATOM     19  N   UNL     1      37.341 -25.501 -11.655  0.00  0.00    -0.242 NA
ATOM     20  C   UNL     1      36.322 -24.094 -13.844  0.00  0.00    +0.050 C 
ATOM     21  C   UNL     1      36.716 -23.411 -12.698  0.00  0.00    +0.025 C 
ATOM     22  C   UNL     1      36.438 -25.479 -13.896  0.00  0.00    +0.025 C 
ATOM     23  C   UNL     1      37.214 -24.155 -11.640  0.00  0.00    +0.099 C 
ATOM     24  C   UNL     1      36.949 -26.129 -12.785  0.00  0.00    +0.099 C 
ENDBRANCH   5  20
BRANCH   1  25
ATOM     25  C   UNL     1      33.347 -23.828 -14.543  0.00  0.00    +0.129 C 
BRANCH  25  26
ATOM     26  C   UNL     1      32.246 -22.795 -14.304  0.00  0.00    +0.109 C 
BRANCH  26  29
ATOM     27  O   UNL     1      30.861 -22.690 -16.257  0.00  0.00    -0.275 OA
ATOM     28  N   UNL     1      30.004 -23.848 -14.439  0.00  0.00    -0.276 N 
ATOM     29  C   UNL     1      30.983 -23.098 -15.099  0.00  0.00    +0.228 C 
ATOM     30  C   UNL     1      30.170 -24.320 -13.066  0.00  0.00    +0.115 C 
ATOM     31  C   UNL     1      28.742 -24.214 -15.071  0.00  0.00    +0.115 C 
ENDBRANCH  26  29
ENDBRANCH  25  26
ENDBRANCH   1  25
TORSDOF 5
ENDMDL
MODEL 3
REMARK VINA RESULT:     -11.3      2.783      5.860
REMARK  Name = 16755766
REMARK  5 active torsions:
REMARK  status: ('A' for Active; 'I' for Inactive)
REMARK    1  A    between atoms: N_1  and  C_25
REMARK    2  A    between atoms: N_3  and  C_12
REMARK    3  A    between atoms: C_5  and  C_20
REMARK    4  A    between atoms: C_25  and  C_26
REMARK    5  A    between atoms: C_26  and  C_29
REMARK                            x       y       z     vdW  Elec       q    Type
REMARK                         _______ _______ _______ _____ _____    ______ ____
ROOT
ATOM      1  N   UNL     1      34.501 -21.709 -17.988  0.00  0.00    -0.174 N 
ATOM      2  N   UNL     1      34.978 -22.280 -16.880  0.00  0.00    -0.096 NA
ATOM      3  N   UNL     1      37.154 -22.012 -15.912  0.00  0.00    -0.246 N 
ATOM      4  N   UNL     1      36.517 -20.913 -17.878  0.00  0.00    -0.319 NA
ATOM      5  C   UNL     1      35.407 -20.902 -18.580  0.00  0.00    +0.216 C 
ATOM      6  C   UNL     1      36.209 -21.764 -16.856  0.00  0.00    +0.165 C 
ATOM      7  H   UNL     1      38.029 -21.607 -16.110  0.00  0.00    +0.165 HD
ENDROOT
BRANCH   3  12
ATOM      8  F   UNL     1      36.218 -23.434  -9.453  0.00  0.00    -0.125 F 
ATOM      9  F   UNL     1      34.805 -24.850 -10.339  0.00  0.00    -0.125 F 
ATOM     10  O   UNL     1      35.349 -22.978 -11.496  0.00  0.00    -0.395 OA
ATOM     11  O   UNL     1      36.923 -24.774 -11.141  0.00  0.00    -0.395 OA
ATOM     12  C   UNL     1      37.121 -22.744 -14.692  0.00  0.00    +0.061 C 
ATOM     13  C   UNL     1      36.188 -23.150 -12.556  0.00  0.00    +0.183 C 
ATOM     14  C   UNL     1      36.180 -22.412 -13.723  0.00  0.00    +0.056 C 
ATOM     15  C   UNL     1      37.085 -24.175 -12.353  0.00  0.00    +0.182 C 
ATOM     16  C   UNL     1      38.038 -23.784 -14.494  0.00  0.00    +0.019 C 
ATOM     17  C   UNL     1      38.024 -24.517 -13.305  0.00  0.00    +0.042 C 
ATOM     18  C   UNL     1      35.829 -24.007 -10.620  0.00  0.00    +0.589 C 
ENDBRANCH   3  12
BRANCH   5  20
ATOM     19  N   UNL     1      34.712 -18.718 -22.144  0.00  0.00    -0.242 NA
ATOM     20  C   UNL     1      35.170 -20.160 -19.794  0.00  0.00    +0.050 C 
ATOM     21  C   UNL     1      33.905 -20.151 -20.371  0.00  0.00    +0.025 C 
ATOM     22  C   UNL     1      36.206 -19.449 -20.390  0.00  0.00    +0.025 C 
ATOM     23  C   UNL     1      33.730 -19.420 -21.536  0.00  0.00    +0.099 C 
ATOM     24  C   UNL     1      35.927 -18.751 -21.553  0.00  0.00    +0.099 C 
ENDBRANCH   5  20
BRANCH   1  25
ATOM     25  C   UNL     1      33.141 -22.008 -18.422  0.00  0.00    +0.129 C 
BRANCH  25  26
ATOM     26  C   UNL     1      32.477 -23.069 -17.546  0.00  0.00    +0.109 C 
BRANCH  26  29
ATOM     27  O   UNL     1      30.450 -21.848 -17.167  0.00  0.00    -0.275 OA
ATOM     28  N   UNL     1      31.491 -22.737 -15.294  0.00  0.00    -0.276 N 
ATOM     29  C   UNL     1      31.377 -22.492 -16.667  0.00  0.00    +0.228 C 
ATOM     30  C   UNL     1      32.598 -23.502 -14.724  0.00  0.00    +0.115 C 
ATOM     31  C   UNL     1      30.515 -22.247 -14.329  0.00  0.00    +0.115 C 
ENDBRANCH  26  29
ENDBRANCH  25  26
ENDBRANCH   1  25
TORSDOF 5
ENDMDL
MODEL 4
REMARK VINA RESULT:     -11.2      3.815      7.201
REMARK  Name = 16755766
REMARK  5 active torsions:
REMARK  status: ('A' for Active; 'I' for Inactive)
REMARK    1  A    between atoms: N_1  and  C_25
REMARK    2  A    between atoms: N_3  and  C_12
REMARK    3  A    between atoms: C_5  and  C_20
REMARK    4  A    between atoms: C_25  and  C_26
REMARK    5  A    between atoms: C_26  and  C_29
REMARK                            x       y       z     vdW  Elec       q    Type
REMARK                         _______ _______ _______ _____ _____    ______ ____
ROOT
ATOM      1  N   UNL     1      32.759 -23.054 -15.763  0.00  0.00    -0.174 N 
ATOM      2  N   UNL     1      33.344 -22.408 -16.773  0.00  0.00    -0.096 NA
ATOM      3  N   UNL     1      32.298 -21.474 -18.718  0.00  0.00    -0.246 N 
ATOM      4  N   UNL     1      31.080 -22.581 -17.054  0.00  0.00    -0.319 NA
ATOM      5  C   UNL     1      31.423 -23.158 -15.925  0.00  0.00    +0.216 C 
ATOM      6  C   UNL     1      32.279 -22.140 -17.533  0.00  0.00    +0.165 C 
ATOM      7  H   UNL     1      31.426 -21.449 -19.174  0.00  0.00    +0.165 HD
ENDROOT
BRANCH   3  12
ATOM      8  F   UNL     1      35.546 -18.334 -23.638  0.00  0.00    -0.125 F 
ATOM      9  F   UNL     1      35.552 -16.745 -22.135  0.00  0.00    -0.125 F 
ATOM     10  O   UNL     1      33.928 -18.325 -22.051  0.00  0.00    -0.395 OA
ATOM     11  O   UNL     1      36.233 -18.821 -21.533  0.00  0.00    -0.395 OA
ATOM     12  C   UNL     1      33.337 -20.807 -19.426  0.00  0.00    +0.061 C 
ATOM     13  C   UNL     1      34.049 -19.258 -21.066  0.00  0.00    +0.183 C 
ATOM     14  C   UNL     1      33.006 -19.878 -20.406  0.00  0.00    +0.056 C 
ATOM     15  C   UNL     1      35.364 -19.541 -20.770  0.00  0.00    +0.182 C 
ATOM     16  C   UNL     1      34.672 -21.102 -19.119  0.00  0.00    +0.019 C 
ATOM     17  C   UNL     1      35.708 -20.459 -19.800  0.00  0.00    +0.042 C 
ATOM     18  C   UNL     1      35.310 -18.065 -22.329  0.00  0.00    +0.589 C 
ENDBRANCH   3  12
BRANCH   5  20
ATOM     19  N   UNL     1      28.813 -25.073 -13.191  0.00  0.00    -0.242 NA
ATOM     20  C   UNL     1      30.536 -23.811 -14.994  0.00  0.00    +0.050 C 
ATOM     21  C   UNL     1      30.764 -23.713 -13.625  0.00  0.00    +0.025 C 
ATOM     22  C   UNL     1      29.448 -24.540 -15.461  0.00  0.00    +0.025 C 
ATOM     23  C   UNL     1      29.880 -24.357 -12.774  0.00  0.00    +0.099 C 
ATOM     24  C   UNL     1      28.624 -25.146 -14.527  0.00  0.00    +0.099 C 
ENDBRANCH   5  20
BRANCH   1  25
ATOM     25  C   UNL     1      33.575 -23.558 -14.665  0.00  0.00    +0.129 C 
BRANCH  25  26
ATOM     26  C   UNL     1      35.059 -23.610 -15.027  0.00  0.00    +0.109 C 
BRANCH  26  29
ATOM     27  O   UNL     1      35.532 -25.936 -15.365  0.00  0.00    -0.275 OA
ATOM     28  N   UNL     1      36.472 -24.949 -13.489  0.00  0.00    -0.276 N 
ATOM     29  C   UNL     1      35.702 -24.940 -14.656  0.00  0.00    +0.228 C 
ATOM     30  C   UNL     1      36.659 -23.757 -12.664  0.00  0.00    +0.115 C 
ATOM     31  C   UNL     1      37.147 -26.147 -13.006  0.00  0.00    +0.115 C 
ENDBRANCH  26  29
ENDBRANCH  25  26
ENDBRANCH   1  25
TORSDOF 5
ENDMDL
MODEL 5
REMARK VINA RESULT:     -10.0     12.091     16.041
REMARK  Name = 16755766
REMARK  5 active torsions:
REMARK  status: ('A' for Active; 'I' for Inactive)
REMARK    1  A    between atoms: N_1  and  C_25
REMARK    2  A    between atoms: N_3  and  C_12
REMARK    3  A    between atoms: C_5  and  C_20
REMARK    4  A    between atoms: C_25  and  C_26
REMARK    5  A    between atoms: C_26  and  C_29
REMARK                            x       y       z     vdW  Elec       q    Type
REMARK                         _______ _______ _______ _____ _____    ______ ____
ROOT
ATOM      1  N   UNL     1      33.104  -8.609 -22.879  0.00  0.00    -0.174 N 
ATOM      2  N   UNL     1      33.344  -9.920 -22.943  0.00  0.00    -0.096 NA
ATOM      3  N   UNL     1      31.978 -11.704 -22.107  0.00  0.00    -0.246 N 
ATOM      4  N   UNL     1      31.370  -9.455 -21.883  0.00  0.00    -0.319 NA
ATOM      5  C   UNL     1      31.940  -8.331 -22.254  0.00  0.00    +0.216 C 
ATOM      6  C   UNL     1      32.259 -10.393 -22.324  0.00  0.00    +0.165 C 
ATOM      7  H   UNL     1      31.175 -11.853 -21.558  0.00  0.00    +0.165 HD
ENDROOT
BRANCH   3  12
ATOM      8  F   UNL     1      36.170 -16.905 -22.139  0.00  0.00    -0.125 F 
ATOM      9  F   UNL     1      34.269 -17.979 -21.994  0.00  0.00    -0.125 F 
ATOM     10  O   UNL     1      34.381 -15.845 -21.235  0.00  0.00    -0.395 OA
ATOM     11  O   UNL     1      34.503 -16.382 -23.586  0.00  0.00    -0.395 OA
ATOM     12  C   UNL     1      32.623 -12.903 -22.522  0.00  0.00    +0.061 C 
ATOM     13  C   UNL     1      33.788 -14.899 -22.015  0.00  0.00    +0.183 C 
ATOM     14  C   UNL     1      33.173 -13.748 -21.564  0.00  0.00    +0.056 C 
ATOM     15  C   UNL     1      33.858 -15.206 -23.356  0.00  0.00    +0.182 C 
ATOM     16  C   UNL     1      32.689 -13.207 -23.888  0.00  0.00    +0.019 C 
ATOM     17  C   UNL     1      33.316 -14.378 -24.318  0.00  0.00    +0.042 C 
ATOM     18  C   UNL     1      34.824 -16.766 -22.241  0.00  0.00    +0.589 C 
ENDBRANCH   3  12
BRANCH   5  20
ATOM     19  N   UNL     1      30.440  -4.420 -21.614  0.00  0.00    -0.242 NA
ATOM     20  C   UNL     1      31.428  -7.000 -22.034  0.00  0.00    +0.050 C 
ATOM     21  C   UNL     1      31.843  -6.266 -20.929  0.00  0.00    +0.025 C 
ATOM     22  C   UNL     1      30.520  -6.446 -22.930  0.00  0.00    +0.025 C 
ATOM     23  C   UNL     1      31.324  -4.991 -20.766  0.00  0.00    +0.099 C 
ATOM     24  C   UNL     1      30.060  -5.164 -22.676  0.00  0.00    +0.099 C 
ENDBRANCH   5  20
BRANCH   1  25
ATOM     25  C   UNL     1      34.069  -7.673 -23.444  0.00  0.00    +0.129 C 
BRANCH  25  26
ATOM     26  C   UNL     1      33.565  -7.041 -24.741  0.00  0.00    +0.109 C 
BRANCH  26  29
ATOM     27  O   UNL     1      33.807  -4.933 -23.626  0.00  0.00    -0.275 OA
ATOM     28  N   UNL     1      33.310  -4.858 -25.890  0.00  0.00    -0.276 N 
ATOM     29  C   UNL     1      33.575  -5.519 -24.687  0.00  0.00    +0.228 C 
ATOM     30  C   UNL     1      33.037  -5.573 -27.135  0.00  0.00    +0.115 C 
ATOM     31  C   UNL     1      33.284  -3.404 -25.994  0.00  0.00    +0.115 C 
ENDBRANCH  26  29
ENDBRANCH  25  26
ENDBRANCH   1  25
TORSDOF 5
ENDMDL
MODEL 6
REMARK VINA RESULT:     -10.0      4.744      8.527
REMARK  Name = 16755766
REMARK  5 active torsions:
REMARK  status: ('A' for Active; 'I' for Inactive)
REMARK    1  A    between atoms: N_1  and  C_25
REMARK    2  A    between atoms: N_3  and  C_12
REMARK    3  A    between atoms: C_5  and  C_20
REMARK    4  A    between atoms: C_25  and  C_26
REMARK    5  A    between atoms: C_26  and  C_29
REMARK                            x       y       z     vdW  Elec       q    Type
REMARK                         _______ _______ _______ _____ _____    ______ ____
ROOT
ATOM      1  N   UNL     1      34.201 -22.340 -17.203  0.00  0.00    -0.174 N 
ATOM      2  N   UNL     1      34.336 -21.515 -18.243  0.00  0.00    -0.096 NA
ATOM      3  N   UNL     1      36.226 -20.148 -18.794  0.00  0.00    -0.246 N 
ATOM      4  N   UNL     1      36.192 -21.530 -16.906  0.00  0.00    -0.319 NA
ATOM      5  C   UNL     1      35.295 -22.351 -16.411  0.00  0.00    +0.216 C 
ATOM      6  C   UNL     1      35.566 -21.046 -18.018  0.00  0.00    +0.165 C 
ATOM      7  H   UNL     1      37.089 -19.857 -18.420  0.00  0.00    +0.165 HD
ENDROOT
BRANCH   3  12
ATOM      8  F   UNL     1      33.561 -19.270 -24.857  0.00  0.00    -0.125 F 
ATOM      9  F   UNL     1      32.639 -17.583 -23.813  0.00  0.00    -0.125 F 
ATOM     10  O   UNL     1      33.299 -19.386 -22.608  0.00  0.00    -0.395 OA
ATOM     11  O   UNL     1      34.879 -17.881 -23.641  0.00  0.00    -0.395 OA
ATOM     12  C   UNL     1      35.909 -19.546 -20.045  0.00  0.00    +0.061 C 
ATOM     13  C   UNL     1      34.430 -19.229 -21.864  0.00  0.00    +0.183 C 
ATOM     14  C   UNL     1      34.691 -19.836 -20.652  0.00  0.00    +0.056 C 
ATOM     15  C   UNL     1      35.330 -18.370 -22.454  0.00  0.00    +0.182 C 
ATOM     16  C   UNL     1      36.832 -18.674 -20.637  0.00  0.00    +0.019 C 
ATOM     17  C   UNL     1      36.542 -18.072 -21.864  0.00  0.00    +0.042 C 
ATOM     18  C   UNL     1      33.603 -18.532 -23.719  0.00  0.00    +0.589 C 
ENDBRANCH   3  12
BRANCH   5  20
ATOM     19  N   UNL     1      35.691 -24.677 -12.892  0.00  0.00    -0.242 NA
ATOM     20  C   UNL     1      35.428 -23.144 -15.213  0.00  0.00    +0.050 C 
ATOM     21  C   UNL     1      35.493 -24.530 -15.297  0.00  0.00    +0.025 C 
ATOM     22  C   UNL     1      35.495 -22.523 -13.971  0.00  0.00    +0.025 C 
ATOM     23  C   UNL     1      35.624 -25.245 -14.117  0.00  0.00    +0.099 C 
ATOM     24  C   UNL     1      35.625 -23.328 -12.851  0.00  0.00    +0.099 C 
ENDBRANCH   5  20
BRANCH   1  25
ATOM     25  C   UNL     1      32.960 -23.087 -17.034  0.00  0.00    +0.129 C 
BRANCH  25  26
ATOM     26  C   UNL     1      32.118 -22.550 -15.878  0.00  0.00    +0.109 C 
BRANCH  26  29
ATOM     27  O   UNL     1      30.090 -21.998 -17.030  0.00  0.00    -0.275 OA
ATOM     28  N   UNL     1      29.922 -23.568 -15.331  0.00  0.00    -0.276 N 
ATOM     29  C   UNL     1      30.623 -22.669 -16.143  0.00  0.00    +0.228 C 
ATOM     30  C   UNL     1      30.575 -24.353 -14.286  0.00  0.00    +0.115 C 
ATOM     31  C   UNL     1      28.488 -23.788 -15.467  0.00  0.00    +0.115 C 
ENDBRANCH  26  29
ENDBRANCH  25  26
ENDBRANCH   1  25
TORSDOF 5
ENDMDL
MODEL 7
REMARK VINA RESULT:      -9.9     12.970     16.930
REMARK  Name = 16755766
REMARK  5 active torsions:
REMARK  status: ('A' for Active; 'I' for Inactive)
REMARK    1  A    between atoms: N_1  and  C_25
REMARK    2  A    between atoms: N_3  and  C_12
REMARK    3  A    between atoms: C_5  and  C_20
REMARK    4  A    between atoms: C_25  and  C_26
REMARK    5  A    between atoms: C_26  and  C_29
REMARK                            x       y       z     vdW  Elec       q    Type
REMARK                         _______ _______ _______ _____ _____    ______ ____
ROOT
ATOM      1  N   UNL     1      32.800  -7.767 -22.899  0.00  0.00    -0.174 N 
ATOM      2  N   UNL     1      33.018  -9.080 -22.809  0.00  0.00    -0.096 NA
ATOM      3  N   UNL     1      31.447 -10.790 -22.211  0.00  0.00    -0.246 N 
ATOM      4  N   UNL     1      30.856  -8.527 -22.304  0.00  0.00    -0.319 NA
ATOM      5  C   UNL     1      31.525  -7.437 -22.602  0.00  0.00    +0.216 C 
ATOM      6  C   UNL     1      31.804  -9.499 -22.444  0.00  0.00    +0.165 C 
ATOM      7  H   UNL     1      30.531 -10.893 -21.868  0.00  0.00    +0.165 HD
ENDROOT
BRANCH   3  12
ATOM      8  F   UNL     1      33.151 -16.799 -24.579  0.00  0.00    -0.125 F 
ATOM      9  F   UNL     1      34.986 -15.701 -25.037  0.00  0.00    -0.125 F 
ATOM     10  O   UNL     1      33.040 -14.552 -24.856  0.00  0.00    -0.395 OA
ATOM     11  O   UNL     1      34.122 -15.559 -22.947  0.00  0.00    -0.395 OA
ATOM     12  C   UNL     1      32.145 -12.020 -22.367  0.00  0.00    +0.061 C 
ATOM     13  C   UNL     1      32.882 -13.815 -23.721  0.00  0.00    +0.183 C 
ATOM     14  C   UNL     1      32.194 -12.622 -23.620  0.00  0.00    +0.056 C 
ATOM     15  C   UNL     1      33.500 -14.390 -22.632  0.00  0.00    +0.182 C 
ATOM     16  C   UNL     1      32.770 -12.598 -21.254  0.00  0.00    +0.019 C 
ATOM     17  C   UNL     1      33.461 -13.804 -21.384  0.00  0.00    +0.042 C 
ATOM     18  C   UNL     1      33.821 -15.642 -24.347  0.00  0.00    +0.589 C 
ENDBRANCH   3  12
BRANCH   5  20
ATOM     19  N   UNL     1      29.999  -3.484 -22.625  0.00  0.00    -0.242 NA
ATOM     20  C   UNL     1      31.007  -6.090 -22.610  0.00  0.00    +0.050 C 
ATOM     21  C   UNL     1      30.731  -5.456 -23.817  0.00  0.00    +0.025 C 
ATOM     22  C   UNL     1      30.779  -5.424 -21.412  0.00  0.00    +0.025 C 
ATOM     23  C   UNL     1      30.233  -4.164 -23.770  0.00  0.00    +0.099 C 
ATOM     24  C   UNL     1      30.279  -4.133 -21.473  0.00  0.00    +0.099 C 
ENDBRANCH   5  20
BRANCH   1  25
ATOM     25  C   UNL     1      33.896  -6.881 -23.274  0.00  0.00    +0.129 C 
BRANCH  25  26
ATOM     26  C   UNL     1      34.032  -6.743 -24.790  0.00  0.00    +0.109 C 
BRANCH  26  29
ATOM     27  O   UNL     1      34.555  -4.409 -24.633  0.00  0.00    -0.275 OA
ATOM     28  N   UNL     1      33.181  -5.049 -26.389  0.00  0.00    -0.276 N 
ATOM     29  C   UNL     1      33.956  -5.294 -25.251  0.00  0.00    +0.228 C 
ATOM     30  C   UNL     1      32.480  -6.113 -27.104  0.00  0.00    +0.115 C 
ATOM     31  C   UNL     1      33.013  -3.713 -26.947  0.00  0.00    +0.115 C 
ENDBRANCH  26  29
ENDBRANCH  25  26
ENDBRANCH   1  25
TORSDOF 5
ENDMDL
MODEL 8
REMARK VINA RESULT:      -9.8     10.677     14.603
REMARK  Name = 16755766
REMARK  5 active torsions:
REMARK  status: ('A' for Active; 'I' for Inactive)
REMARK    1  A    between atoms: N_1  and  C_25
REMARK    2  A    between atoms: N_3  and  C_12
REMARK    3  A    between atoms: C_5  and  C_20
REMARK    4  A    between atoms: C_25  and  C_26
REMARK    5  A    between atoms: C_26  and  C_29
REMARK                            x       y       z     vdW  Elec       q    Type
REMARK                         _______ _______ _______ _____ _____    ______ ____
ROOT
ATOM      1  N   UNL     1      31.731 -10.245 -21.697  0.00  0.00    -0.174 N 
ATOM      2  N   UNL     1      32.212 -11.481 -21.557  0.00  0.00    -0.096 NA
ATOM      3  N   UNL     1      33.358 -12.804 -23.194  0.00  0.00    -0.246 N 
ATOM      4  N   UNL     1      32.588 -10.642 -23.651  0.00  0.00    -0.319 NA
ATOM      5  C   UNL     1      31.952  -9.746 -22.933  0.00  0.00    +0.216 C 
ATOM      6  C   UNL     1      32.724 -11.679 -22.774  0.00  0.00    +0.165 C 
ATOM      7  H   UNL     1      33.590 -12.796 -24.151  0.00  0.00    +0.165 HD
ENDROOT
BRANCH   3  12
ATOM      8  F   UNL     1      34.540 -19.271 -22.006  0.00  0.00    -0.125 F 
ATOM      9  F   UNL     1      36.578 -18.496 -21.827  0.00  0.00    -0.125 F 
ATOM     10  O   UNL     1      35.081 -17.355 -23.091  0.00  0.00    -0.395 OA
ATOM     11  O   UNL     1      34.913 -17.466 -20.685  0.00  0.00    -0.395 OA
ATOM     12  C   UNL     1      33.751 -13.992 -22.516  0.00  0.00    +0.061 C 
ATOM     13  C   UNL     1      34.595 -16.203 -22.551  0.00  0.00    +0.183 C 
ATOM     14  C   UNL     1      34.227 -15.072 -23.253  0.00  0.00    +0.056 C 
ATOM     15  C   UNL     1      34.500 -16.267 -21.178  0.00  0.00    +0.182 C 
ATOM     16  C   UNL     1      33.650 -14.048 -21.120  0.00  0.00    +0.019 C 
ATOM     17  C   UNL     1      34.031 -15.204 -20.434  0.00  0.00    +0.042 C 
ATOM     18  C   UNL     1      35.273 -18.134 -21.902  0.00  0.00    +0.589 C 
ENDBRANCH   3  12
BRANCH   5  20
ATOM     19  N   UNL     1      30.730  -5.899 -24.221  0.00  0.00    -0.242 NA
ATOM     20  C   UNL     1      31.537  -8.435 -23.370  0.00  0.00    +0.050 C 
ATOM     21  C   UNL     1      32.420  -7.621 -24.071  0.00  0.00    +0.025 C 
ATOM     22  C   UNL     1      30.252  -7.983 -23.094  0.00  0.00    +0.025 C 
ATOM     23  C   UNL     1      31.971  -6.372 -24.470  0.00  0.00    +0.099 C 
ATOM     24  C   UNL     1      29.901  -6.718 -23.537  0.00  0.00    +0.099 C 
ENDBRANCH   5  20
BRANCH   1  25
ATOM     25  C   UNL     1      31.052  -9.606 -20.576  0.00  0.00    +0.129 C 
BRANCH  25  26
ATOM     26  C   UNL     1      31.978  -8.673 -19.797  0.00  0.00    +0.109 C 
BRANCH  26  29
ATOM     27  O   UNL     1      30.412  -6.985 -19.132  0.00  0.00    -0.275 OA
ATOM     28  N   UNL     1      32.213  -6.282 -20.413  0.00  0.00    -0.276 N 
ATOM     29  C   UNL     1      31.453  -7.245 -19.742  0.00  0.00    +0.228 C 
ATOM     30  C   UNL     1      33.443  -6.613 -21.129  0.00  0.00    +0.115 C 
ATOM     31  C   UNL     1      31.835  -4.874 -20.449  0.00  0.00    +0.115 C 
ENDBRANCH  26  29
ENDBRANCH  25  26
ENDBRANCH   1  25
TORSDOF 5
ENDMDL
MODEL 9
REMARK VINA RESULT:      -9.7     13.845     17.783
REMARK  Name = 16755766
REMARK  5 active torsions:
REMARK  status: ('A' for Active; 'I' for Inactive)
REMARK    1  A    between atoms: N_1  and  C_25
REMARK    2  A    between atoms: N_3  and  C_12
REMARK    3  A    between atoms: C_5  and  C_20
REMARK    4  A    between atoms: C_25  and  C_26
REMARK    5  A    between atoms: C_26  and  C_29
REMARK                            x       y       z     vdW  Elec       q    Type
REMARK                         _______ _______ _______ _____ _____    ______ ____
ROOT
ATOM      1  N   UNL     1      32.583  -6.624 -22.963  0.00  0.00    -0.174 N 
ATOM      2  N   UNL     1      32.663  -7.925 -22.678  0.00  0.00    -0.096 NA
ATOM      3  N   UNL     1      30.898  -9.383 -21.969  0.00  0.00    -0.246 N 
ATOM      4  N   UNL     1      30.541  -7.113 -22.415  0.00  0.00    -0.319 NA
ATOM      5  C   UNL     1      31.332  -6.141 -22.808  0.00  0.00    +0.216 C 
ATOM      6  C   UNL     1      31.394  -8.176 -22.350  0.00  0.00    +0.165 C 
ATOM      7  H   UNL     1      29.956  -9.353 -21.684  0.00  0.00    +0.165 HD
ENDROOT
BRANCH   3  12
ATOM      8  F   UNL     1      32.987 -15.441 -23.853  0.00  0.00    -0.125 F 
ATOM      9  F   UNL     1      34.910 -14.555 -23.303  0.00  0.00    -0.125 F 
ATOM     10  O   UNL     1      33.214 -13.187 -23.931  0.00  0.00    -0.395 OA
ATOM     11  O   UNL     1      33.181 -14.404 -21.846  0.00  0.00    -0.395 OA
ATOM     12  C   UNL     1      31.478 -10.680 -21.904  0.00  0.00    +0.061 C 
ATOM     13  C   UNL     1      32.606 -12.488 -22.931  0.00  0.00    +0.183 C 
ATOM     14  C   UNL     1      32.057 -11.227 -23.045  0.00  0.00    +0.056 C 
ATOM     15  C   UNL     1      32.588 -13.183 -21.742  0.00  0.00    +0.182 C 
ATOM     16  C   UNL     1      31.454 -11.379 -20.690  0.00  0.00    +0.019 C 
ATOM     17  C   UNL     1      32.018 -12.654 -20.602  0.00  0.00    +0.042 C 
ATOM     18  C   UNL     1      33.567 -14.386 -23.227  0.00  0.00    +0.589 C 
ENDBRANCH   3  12
BRANCH   5  20
ATOM     19  N   UNL     1      30.210  -2.111 -23.485  0.00  0.00    -0.242 NA
ATOM     20  C   UNL     1      30.951  -4.769 -23.040  0.00  0.00    +0.050 C 
ATOM     21  C   UNL     1      30.834  -4.286 -24.338  0.00  0.00    +0.025 C 
ATOM     22  C   UNL     1      30.699  -3.925 -21.964  0.00  0.00    +0.025 C 
ATOM     23  C   UNL     1      30.463  -2.961 -24.505  0.00  0.00    +0.099 C 
ATOM     24  C   UNL     1      30.335  -2.616 -22.238  0.00  0.00    +0.099 C 
ENDBRANCH   5  20
BRANCH   1  25
ATOM     25  C   UNL     1      33.782  -5.903 -23.374  0.00  0.00    +0.129 C 
BRANCH  25  26
ATOM     26  C   UNL     1      34.204  -6.253 -24.800  0.00  0.00    +0.109 C 
BRANCH  26  29
ATOM     27  O   UNL     1      35.053  -4.125 -25.507  0.00  0.00    -0.275 OA
ATOM     28  N   UNL     1      33.318  -5.018 -26.761  0.00  0.00    -0.276 N 
ATOM     29  C   UNL     1      34.242  -5.033 -25.711  0.00  0.00    +0.228 C 
ATOM     30  C   UNL     1      32.366  -6.103 -26.984  0.00  0.00    +0.115 C 
ATOM     31  C   UNL     1      33.235  -3.916 -27.713  0.00  0.00    +0.115 C 
ENDBRANCH  26  29
ENDBRANCH  25  26
ENDBRANCH   1  25
TORSDOF 5
ENDMDL
