MODEL 1
REMARK VINA RESULT:     -12.1      0.000      0.000
REMARK  Name = 16122556
REMARK  12 active torsions:
REMARK  status: ('A' for Active; 'I' for Inactive)
REMARK    1  A    between atoms: C_1  and  O_19
REMARK    2  A    between atoms: C_2  and  C_7
REMARK    3  A    between atoms: C_8  and  C_13
REMARK    4  A    between atoms: O_19  and  C_20
REMARK    5  A    between atoms: C_20  and  C_21
REMARK    6  A    between atoms: C_21  and  P_22
REMARK    7  A    between atoms: C_21  and  P_28
REMARK    8  A    between atoms: C_21  and  O_34
REMARK    9  A    between atoms: P_22  and  O_24
REMARK   10  A    between atoms: P_22  and  O_26
REMARK   11  A    between atoms: P_28  and  O_30
REMARK   12  A    between atoms: P_28  and  O_32
REMARK                            x       y       z     vdW  Elec       q    Type
REMARK                         _______ _______ _______ _____ _____    ______ ____
ROOT
ATOM      1  C   UNL     1      33.894 -21.948 -18.005  0.00  0.00    +0.139 C 
ATOM      2  C   UNL     1      34.057 -20.276 -19.729  0.00  0.00    +0.003 C 
ATOM      3  C   UNL     1      34.672 -21.107 -18.793  0.00  0.00    +0.037 C 
ATOM      4  C   UNL     1      32.511 -21.969 -18.139  0.00  0.00    +0.037 C 
ATOM      5  C   UNL     1      32.670 -20.291 -19.871  0.00  0.00    +0.000 C 
ATOM      6  C   UNL     1      31.897 -21.138 -19.076  0.00  0.00    +0.003 C 
ENDROOT
BRANCH   2   7
ATOM      7  C   UNL     1      34.859 -19.398 -20.553  0.00  0.00    +0.000 C 
ATOM      8  C   UNL     1      35.032 -17.490 -22.026  0.00  0.00    +0.000 C 
ATOM      9  C   UNL     1      34.259 -18.335 -21.230  0.00  0.00    +0.000 C 
ATOM     10  C   UNL     1      36.231 -19.615 -20.672  0.00  0.00    +0.000 C 
ATOM     11  C   UNL     1      36.405 -17.706 -22.145  0.00  0.00    +0.000 C 
ATOM     12  C   UNL     1      37.005 -18.769 -21.469  0.00  0.00    +0.000 C 
BRANCH   8  13
ATOM     13  C   UNL     1      34.411 -16.388 -22.729  0.00  0.00    +0.000 C 
ATOM     14  C   UNL     1      34.229 -15.165 -22.086  0.00  0.00    +0.000 C 
ATOM     15  C   UNL     1      33.995 -16.550 -24.051  0.00  0.00    +0.000 C 
ATOM     16  C   UNL     1      33.631 -14.103 -22.763  0.00  0.00    +0.000 C 
ATOM     17  C   UNL     1      33.397 -15.488 -24.729  0.00  0.00    +0.000 C 
ATOM     18  C   UNL     1      33.215 -14.264 -24.085  0.00  0.00    +0.000 C 
ENDBRANCH   8  13
ENDBRANCH   2   7
BRANCH   1  19
ATOM     19  O   UNL     1      34.497 -22.765 -17.084  0.00  0.00    -0.472 OA
BRANCH  19  20
ATOM     20  C   UNL     1      33.645 -23.486 -16.208  0.00  0.00    +0.256 C 
BRANCH  20  21
ATOM     21  C   UNL     1      34.144 -23.394 -14.760  0.00  0.00    +0.315 C 
BRANCH  21  22
ATOM     22  P   UNL     1      35.641 -24.413 -14.539  0.00  0.00    +0.375 P 
ATOM     23  O   UNL     1      36.034 -24.651 -13.110  0.00  0.00    -0.255 OA
BRANCH  22  24
ATOM     24  O   UNL     1      35.325 -25.749 -15.392  0.00  0.00    -0.322 OA
ATOM     25  H   UNL     1      35.965 -25.828 -16.117  0.00  0.00    +0.220 HD
ENDBRANCH  22  24
BRANCH  22  26
ATOM     26  O   UNL     1      36.748 -23.655 -15.438  0.00  0.00    -0.322 OA
ATOM     27  H   UNL     1      36.312 -22.993 -15.999  0.00  0.00    +0.220 HD
ENDBRANCH  22  26
ENDBRANCH  21  22
BRANCH  21  28
ATOM     28  P   UNL     1      32.737 -23.411 -13.599  0.00  0.00    +0.375 P 
ATOM     29  O   UNL     1      31.617 -22.478 -13.951  0.00  0.00    -0.255 OA
BRANCH  28  30
ATOM     30  O   UNL     1      32.331 -24.973 -13.525  0.00  0.00    -0.322 OA
ATOM     31  H   UNL     1      33.080 -25.487 -13.185  0.00  0.00    +0.220 HD
ENDBRANCH  28  30
BRANCH  28  32
ATOM     32  O   UNL     1      33.424 -23.141 -12.160  0.00  0.00    -0.322 OA
ATOM     33  H   UNL     1      34.003 -22.365 -12.220  0.00  0.00    +0.220 HD
ENDBRANCH  28  32
ENDBRANCH  21  28
BRANCH  21  34
ATOM     34  O   UNL     1      34.651 -22.064 -14.603  0.00  0.00    -0.364 OA
ATOM     35  H   UNL     1      34.054 -21.437 -15.040  0.00  0.00    +0.212 HD
ENDBRANCH  21  34
ENDBRANCH  20  21
ENDBRANCH  19  20
ENDBRANCH   1  19
TORSDOF 12
ENDMDL
MODEL 2
REMARK VINA RESULT:     -11.9      0.927      2.418
REMARK  Name = 16122556
REMARK  12 active torsions:
REMARK  status: ('A' for Active; 'I' for Inactive)
REMARK    1  A    between atoms: C_1  and  O_19
REMARK    2  A    between atoms: C_2  and  C_7
REMARK    3  A    between atoms: C_8  and  C_13
REMARK    4  A    between atoms: O_19  and  C_20
REMARK    5  A    between atoms: C_20  and  C_21
REMARK    6  A    between atoms: C_21  and  P_22
REMARK    7  A    between atoms: C_21  and  P_28
REMARK    8  A    between atoms: C_21  and  O_34
REMARK    9  A    between atoms: P_22  and  O_24
REMARK   10  A    between atoms: P_22  and  O_26
REMARK   11  A    between atoms: P_28  and  O_30
REMARK   12  A    between atoms: P_28  and  O_32
REMARK                            x       y       z     vdW  Elec       q    Type
REMARK                         _______ _______ _______ _____ _____    ______ ____
ROOT
ATOM      1  C   UNL     1      33.919 -21.998 -18.038  0.00  0.00    +0.139 C 
ATOM      2  C   UNL     1      34.067 -20.282 -19.719  0.00  0.00    +0.003 C 
ATOM      3  C   UNL     1      34.692 -21.156 -18.830  0.00  0.00    +0.037 C 
ATOM      4  C   UNL     1      32.532 -21.979 -18.123  0.00  0.00    +0.037 C 
ATOM      5  C   UNL     1      32.676 -20.256 -19.811  0.00  0.00    +0.000 C 
ATOM      6  C   UNL     1      31.909 -21.105 -19.013  0.00  0.00    +0.003 C 
ENDROOT
BRANCH   2   7
ATOM      7  C   UNL     1      34.863 -19.401 -20.546  0.00  0.00    +0.000 C 
ATOM      8  C   UNL     1      35.024 -17.496 -22.025  0.00  0.00    +0.000 C 
ATOM      9  C   UNL     1      34.257 -18.344 -21.226  0.00  0.00    +0.000 C 
ATOM     10  C   UNL     1      36.237 -19.609 -20.664  0.00  0.00    +0.000 C 
ATOM     11  C   UNL     1      36.398 -17.704 -22.143  0.00  0.00    +0.000 C 
ATOM     12  C   UNL     1      37.005 -18.761 -21.464  0.00  0.00    +0.000 C 
BRANCH   8  13
ATOM     13  C   UNL     1      34.396 -16.401 -22.732  0.00  0.00    +0.000 C 
ATOM     14  C   UNL     1      34.196 -15.180 -22.088  0.00  0.00    +0.000 C 
ATOM     15  C   UNL     1      33.990 -16.566 -24.056  0.00  0.00    +0.000 C 
ATOM     16  C   UNL     1      33.591 -14.124 -22.769  0.00  0.00    +0.000 C 
ATOM     17  C   UNL     1      33.385 -15.510 -24.737  0.00  0.00    +0.000 C 
ATOM     18  C   UNL     1      33.186 -14.289 -24.093  0.00  0.00    +0.000 C 
ENDBRANCH   8  13
ENDBRANCH   2   7
BRANCH   1  19
ATOM     19  O   UNL     1      34.532 -22.858 -17.163  0.00  0.00    -0.472 OA
BRANCH  19  20
ATOM     20  C   UNL     1      34.946 -22.321 -15.917  0.00  0.00    +0.256 C 
BRANCH  20  21
ATOM     21  C   UNL     1      35.277 -23.440 -14.922  0.00  0.00    +0.315 C 
BRANCH  21  22
ATOM     22  P   UNL     1      34.048 -23.475 -13.574  0.00  0.00    +0.375 P 
ATOM     23  O   UNL     1      34.622 -23.328 -12.195  0.00  0.00    -0.255 OA
BRANCH  22  24
ATOM     24  O   UNL     1      32.984 -22.334 -13.997  0.00  0.00    -0.322 OA
ATOM     25  H   UNL     1      32.210 -22.383 -13.415  0.00  0.00    +0.220 HD
ENDBRANCH  22  24
BRANCH  22  26
ATOM     26  O   UNL     1      33.239 -24.848 -13.838  0.00  0.00    -0.322 OA
ATOM     27  H   UNL     1      32.540 -24.945 -13.171  0.00  0.00    +0.220 HD
ENDBRANCH  22  26
ENDBRANCH  21  22
BRANCH  21  28
ATOM     28  P   UNL     1      37.077 -23.532 -14.640  0.00  0.00    +0.375 P 
ATOM     29  O   UNL     1      37.622 -24.922 -14.496  0.00  0.00    -0.255 OA
BRANCH  28  30
ATOM     30  O   UNL     1      37.693 -22.678 -15.866  0.00  0.00    -0.322 OA
ATOM     31  H   UNL     1      37.051 -22.007 -16.147  0.00  0.00    +0.220 HD
ENDBRANCH  28  30
BRANCH  28  32
ATOM     32  O   UNL     1      37.316 -22.569 -13.364  0.00  0.00    -0.322 OA
ATOM     33  H   UNL     1      37.375 -21.647 -13.662  0.00  0.00    +0.220 HD
ENDBRANCH  28  32
ENDBRANCH  21  28
BRANCH  21  34
ATOM     34  O   UNL     1      35.014 -24.669 -15.610  0.00  0.00    -0.364 OA
ATOM     35  H   UNL     1      34.319 -24.526 -16.271  0.00  0.00    +0.212 HD
ENDBRANCH  21  34
ENDBRANCH  20  21
ENDBRANCH  19  20
ENDBRANCH   1  19
TORSDOF 12
ENDMDL
MODEL 3
REMARK VINA RESULT:     -11.4      2.417      4.633
REMARK  Name = 16122556
REMARK  12 active torsions:
REMARK  status: ('A' for Active; 'I' for Inactive)
REMARK    1  A    between atoms: C_1  and  O_19
REMARK    2  A    between atoms: C_2  and  C_7
REMARK    3  A    between atoms: C_8  and  C_13
REMARK    4  A    between atoms: O_19  and  C_20
REMARK    5  A    between atoms: C_20  and  C_21
REMARK    6  A    between atoms: C_21  and  P_22
REMARK    7  A    between atoms: C_21  and  P_28
REMARK    8  A    between atoms: C_21  and  O_34
REMARK    9  A    between atoms: P_22  and  O_24
REMARK   10  A    between atoms: P_22  and  O_26
REMARK   11  A    between atoms: P_28  and  O_30
REMARK   12  A    between atoms: P_28  and  O_32
REMARK                            x       y       z     vdW  Elec       q    Type
REMARK                         _______ _______ _______ _____ _____    ______ ____
ROOT
ATOM      1  C   UNL     1      36.305 -22.838 -15.563  0.00  0.00    +0.139 C 
ATOM      2  C   UNL     1      35.530 -21.480 -17.393  0.00  0.00    +0.003 C 
ATOM      3  C   UNL     1      35.338 -22.550 -16.519  0.00  0.00    +0.037 C 
ATOM      4  C   UNL     1      37.460 -22.072 -15.467  0.00  0.00    +0.037 C 
ATOM      5  C   UNL     1      36.686 -20.705 -17.303  0.00  0.00    +0.000 C 
ATOM      6  C   UNL     1      37.651 -21.001 -16.341  0.00  0.00    +0.003 C 
ENDROOT
BRANCH   2   7
ATOM      7  C   UNL     1      34.530 -21.174 -18.392  0.00  0.00    +0.000 C 
ATOM      8  C   UNL     1      33.831 -19.929 -20.342  0.00  0.00    +0.000 C 
ATOM      9  C   UNL     1      34.796 -20.225 -19.380  0.00  0.00    +0.000 C 
ATOM     10  C   UNL     1      33.297 -21.827 -18.367  0.00  0.00    +0.000 C 
ATOM     11  C   UNL     1      32.598 -20.582 -20.317  0.00  0.00    +0.000 C 
ATOM     12  C   UNL     1      32.331 -21.530 -19.329  0.00  0.00    +0.000 C 
BRANCH   8  13
ATOM     13  C   UNL     1      34.106 -18.945 -21.366  0.00  0.00    +0.000 C 
ATOM     14  C   UNL     1      34.792 -17.775 -21.041  0.00  0.00    +0.000 C 
ATOM     15  C   UNL     1      33.684 -19.165 -22.677  0.00  0.00    +0.000 C 
ATOM     16  C   UNL     1      35.058 -16.825 -22.028  0.00  0.00    +0.000 C 
ATOM     17  C   UNL     1      33.949 -18.216 -23.664  0.00  0.00    +0.000 C 
ATOM     18  C   UNL     1      34.636 -17.046 -23.339  0.00  0.00    +0.000 C 
ENDBRANCH   8  13
ENDBRANCH   2   7
BRANCH   1  19
ATOM     19  O   UNL     1      36.118 -23.890 -14.703  0.00  0.00    -0.472 OA
BRANCH  19  20
ATOM     20  C   UNL     1      36.736 -25.120 -15.048  0.00  0.00    +0.256 C 
BRANCH  20  21
ATOM     21  C   UNL     1      37.660 -25.603 -13.923  0.00  0.00    +0.315 C 
BRANCH  21  22
ATOM     22  P   UNL     1      36.900 -25.283 -12.296  0.00  0.00    +0.375 P 
ATOM     23  O   UNL     1      37.234 -26.293 -11.237  0.00  0.00    -0.255 OA
BRANCH  22  24
ATOM     24  O   UNL     1      37.342 -23.766 -11.958  0.00  0.00    -0.322 OA
ATOM     25  H   UNL     1      37.797 -23.384 -12.725  0.00  0.00    +0.220 HD
ENDBRANCH  22  24
BRANCH  22  26
ATOM     26  O   UNL     1      35.328 -25.141 -12.637  0.00  0.00    -0.322 OA
ATOM     27  H   UNL     1      34.818 -25.124 -11.811  0.00  0.00    +0.220 HD
ENDBRANCH  22  26
ENDBRANCH  21  22
BRANCH  21  28
ATOM     28  P   UNL     1      39.398 -25.209 -14.314  0.00  0.00    +0.375 P 
ATOM     29  O   UNL     1      39.961 -24.035 -13.569  0.00  0.00    -0.255 OA
BRANCH  28  30
ATOM     30  O   UNL     1      40.165 -26.610 -14.066  0.00  0.00    -0.322 OA
ATOM     31  H   UNL     1      40.975 -26.450 -13.557  0.00  0.00    +0.220 HD
ENDBRANCH  28  30
BRANCH  28  32
ATOM     32  O   UNL     1      39.407 -25.065 -15.924  0.00  0.00    -0.322 OA
ATOM     33  H   UNL     1      40.307 -25.204 -16.256  0.00  0.00    +0.220 HD
ENDBRANCH  28  32
ENDBRANCH  21  28
BRANCH  21  34
ATOM     34  O   UNL     1      37.650 -27.034 -13.993  0.00  0.00    -0.364 OA
ATOM     35  H   UNL     1      38.315 -27.331 -14.632  0.00  0.00    +0.212 HD
ENDBRANCH  21  34
ENDBRANCH  20  21
ENDBRANCH  19  20
ENDBRANCH   1  19
TORSDOF 12
ENDMDL
MODEL 4
REMARK VINA RESULT:     -11.3      2.132      3.905
REMARK  Name = 16122556
REMARK  12 active torsions:
REMARK  status: ('A' for Active; 'I' for Inactive)
REMARK    1  A    between atoms: C_1  and  O_19
REMARK    2  A    between atoms: C_2  and  C_7
REMARK    3  A    between atoms: C_8  and  C_13
REMARK    4  A    between atoms: O_19  and  C_20
REMARK    5  A    between atoms: C_20  and  C_21
REMARK    6  A    between atoms: C_21  and  P_22
REMARK    7  A    between atoms: C_21  and  P_28
REMARK    8  A    between atoms: C_21  and  O_34
REMARK    9  A    between atoms: P_22  and  O_24
REMARK   10  A    between atoms: P_22  and  O_26
REMARK   11  A    between atoms: P_28  and  O_30
REMARK   12  A    between atoms: P_28  and  O_32
REMARK                            x       y       z     vdW  Elec       q    Type
REMARK                         _______ _______ _______ _____ _____    ______ ____
ROOT
ATOM      1  C   UNL     1      36.129 -23.088 -15.626  0.00  0.00    +0.139 C 
ATOM      2  C   UNL     1      35.395 -21.628 -17.393  0.00  0.00    +0.003 C 
ATOM      3  C   UNL     1      35.168 -22.725 -16.562  0.00  0.00    +0.037 C 
ATOM      4  C   UNL     1      37.313 -22.370 -15.509  0.00  0.00    +0.037 C 
ATOM      5  C   UNL     1      36.580 -20.902 -17.282  0.00  0.00    +0.000 C 
ATOM      6  C   UNL     1      37.539 -21.273 -16.340  0.00  0.00    +0.003 C 
ENDROOT
BRANCH   2   7
ATOM      7  C   UNL     1      34.400 -21.244 -18.371  0.00  0.00    +0.000 C 
ATOM      8  C   UNL     1      33.759 -19.948 -20.307  0.00  0.00    +0.000 C 
ATOM      9  C   UNL     1      34.719 -20.319 -19.366  0.00  0.00    +0.000 C 
ATOM     10  C   UNL     1      33.121 -21.798 -18.319  0.00  0.00    +0.000 C 
ATOM     11  C   UNL     1      32.480 -20.502 -20.255  0.00  0.00    +0.000 C 
ATOM     12  C   UNL     1      32.161 -21.426 -19.260  0.00  0.00    +0.000 C 
BRANCH   8  13
ATOM     13  C   UNL     1      34.089 -18.987 -21.338  0.00  0.00    +0.000 C 
ATOM     14  C   UNL     1      34.919 -17.906 -21.044  0.00  0.00    +0.000 C 
ATOM     15  C   UNL     1      33.575 -19.143 -22.626  0.00  0.00    +0.000 C 
ATOM     16  C   UNL     1      35.237 -16.980 -22.037  0.00  0.00    +0.000 C 
ATOM     17  C   UNL     1      33.893 -18.217 -23.619  0.00  0.00    +0.000 C 
ATOM     18  C   UNL     1      34.724 -17.136 -23.325  0.00  0.00    +0.000 C 
ENDBRANCH   8  13
ENDBRANCH   2   7
BRANCH   1  19
ATOM     19  O   UNL     1      35.908 -24.166 -14.808  0.00  0.00    -0.472 OA
BRANCH  19  20
ATOM     20  C   UNL     1      35.237 -23.917 -13.583  0.00  0.00    +0.256 C 
BRANCH  20  21
ATOM     21  C   UNL     1      36.156 -24.202 -12.388  0.00  0.00    +0.315 C 
BRANCH  21  22
ATOM     22  P   UNL     1      37.075 -25.756 -12.651  0.00  0.00    +0.375 P 
ATOM     23  O   UNL     1      38.491 -25.578 -13.115  0.00  0.00    -0.255 OA
BRANCH  22  24
ATOM     24  O   UNL     1      36.910 -26.540 -11.247  0.00  0.00    -0.322 OA
ATOM     25  H   UNL     1      37.611 -26.261 -10.637  0.00  0.00    +0.220 HD
ENDBRANCH  22  24
BRANCH  22  26
ATOM     26  O   UNL     1      36.124 -26.591 -13.653  0.00  0.00    -0.322 OA
ATOM     27  H   UNL     1      36.601 -26.768 -14.480  0.00  0.00    +0.220 HD
ENDBRANCH  22  26
ENDBRANCH  21  22
BRANCH  21  28
ATOM     28  P   UNL     1      35.316 -23.785 -10.823  0.00  0.00    +0.375 P 
ATOM     29  O   UNL     1      34.977 -24.962  -9.957  0.00  0.00    -0.255 OA
BRANCH  28  30
ATOM     30  O   UNL     1      36.300 -22.697 -10.147  0.00  0.00    -0.322 OA
ATOM     31  H   UNL     1      36.664 -23.057  -9.323  0.00  0.00    +0.220 HD
ENDBRANCH  28  30
BRANCH  28  32
ATOM     32  O   UNL     1      34.050 -22.895 -11.293  0.00  0.00    -0.322 OA
ATOM     33  H   UNL     1      33.573 -22.575 -10.511  0.00  0.00    +0.220 HD
ENDBRANCH  28  32
ENDBRANCH  21  28
BRANCH  21  34
ATOM     34  O   UNL     1      37.194 -23.217 -12.447  0.00  0.00    -0.364 OA
ATOM     35  H   UNL     1      37.071 -22.665 -13.235  0.00  0.00    +0.212 HD
ENDBRANCH  21  34
ENDBRANCH  20  21
ENDBRANCH  19  20
ENDBRANCH   1  19
TORSDOF 12
ENDMDL
MODEL 5
REMARK VINA RESULT:     -11.0      1.639      2.930
REMARK  Name = 16122556
REMARK  12 active torsions:
REMARK  status: ('A' for Active; 'I' for Inactive)
REMARK    1  A    between atoms: C_1  and  O_19
REMARK    2  A    between atoms: C_2  and  C_7
REMARK    3  A    between atoms: C_8  and  C_13
REMARK    4  A    between atoms: O_19  and  C_20
REMARK    5  A    between atoms: C_20  and  C_21
REMARK    6  A    between atoms: C_21  and  P_22
REMARK    7  A    between atoms: C_21  and  P_28
REMARK    8  A    between atoms: C_21  and  O_34
REMARK    9  A    between atoms: P_22  and  O_24
REMARK   10  A    between atoms: P_22  and  O_26
REMARK   11  A    between atoms: P_28  and  O_30
REMARK   12  A    between atoms: P_28  and  O_32
REMARK                            x       y       z     vdW  Elec       q    Type
REMARK                         _______ _______ _______ _____ _____    ______ ____
ROOT
ATOM      1  C   UNL     1      33.514 -22.878 -16.907  0.00  0.00    +0.139 C 
ATOM      2  C   UNL     1      33.786 -21.229 -18.638  0.00  0.00    +0.003 C 
ATOM      3  C   UNL     1      34.345 -22.113 -17.716  0.00  0.00    +0.037 C 
ATOM      4  C   UNL     1      32.132 -22.772 -17.006  0.00  0.00    +0.037 C 
ATOM      5  C   UNL     1      32.400 -21.116 -18.745  0.00  0.00    +0.000 C 
ATOM      6  C   UNL     1      31.573 -21.888 -17.929  0.00  0.00    +0.003 C 
ENDROOT
BRANCH   2   7
ATOM      7  C   UNL     1      34.643 -20.428 -19.484  0.00  0.00    +0.000 C 
ATOM      8  C   UNL     1      34.931 -18.958 -21.381  0.00  0.00    +0.000 C 
ATOM      9  C   UNL     1      34.104 -19.729 -20.565  0.00  0.00    +0.000 C 
ATOM     10  C   UNL     1      36.011 -20.354 -19.220  0.00  0.00    +0.000 C 
ATOM     11  C   UNL     1      36.299 -18.885 -21.117  0.00  0.00    +0.000 C 
ATOM     12  C   UNL     1      36.839 -19.583 -20.037  0.00  0.00    +0.000 C 
BRANCH   8  13
ATOM     13  C   UNL     1      34.373 -18.235 -22.503  0.00  0.00    +0.000 C 
ATOM     14  C   UNL     1      33.632 -18.913 -23.470  0.00  0.00    +0.000 C 
ATOM     15  C   UNL     1      34.576 -16.860 -22.617  0.00  0.00    +0.000 C 
ATOM     16  C   UNL     1      33.093 -18.217 -24.552  0.00  0.00    +0.000 C 
ATOM     17  C   UNL     1      34.038 -16.163 -23.698  0.00  0.00    +0.000 C 
ATOM     18  C   UNL     1      33.296 -16.841 -24.665  0.00  0.00    +0.000 C 
ENDBRANCH   8  13
ENDBRANCH   2   7
BRANCH   1  19
ATOM     19  O   UNL     1      34.062 -23.748 -15.999  0.00  0.00    -0.472 OA
BRANCH  19  20
ATOM     20  C   UNL     1      35.339 -23.414 -15.479  0.00  0.00    +0.256 C 
BRANCH  20  21
ATOM     21  C   UNL     1      35.672 -24.275 -14.253  0.00  0.00    +0.315 C 
BRANCH  21  22
ATOM     22  P   UNL     1      36.351 -23.237 -12.915  0.00  0.00    +0.375 P 
ATOM     23  O   UNL     1      37.242 -22.120 -13.375  0.00  0.00    -0.255 OA
BRANCH  22  24
ATOM     24  O   UNL     1      35.040 -22.771 -12.091  0.00  0.00    -0.322 OA
ATOM     25  H   UNL     1      35.003 -23.249 -11.248  0.00  0.00    +0.220 HD
ENDBRANCH  22  24
BRANCH  22  26
ATOM     26  O   UNL     1      37.047 -24.306 -11.925  0.00  0.00    -0.322 OA
ATOM     27  H   UNL     1      37.199 -25.138 -12.402  0.00  0.00    +0.220 HD
ENDBRANCH  22  26
ENDBRANCH  21  22
BRANCH  21  28
ATOM     28  P   UNL     1      36.415 -25.859 -14.769  0.00  0.00    +0.375 P 
ATOM     29  O   UNL     1      35.696 -26.559 -15.884  0.00  0.00    -0.255 OA
BRANCH  28  30
ATOM     30  O   UNL     1      37.951 -25.469 -15.083  0.00  0.00    -0.322 OA
ATOM     31  H   UNL     1      38.107 -24.543 -14.838  0.00  0.00    +0.220 HD
ENDBRANCH  28  30
BRANCH  28  32
ATOM     32  O   UNL     1      36.523 -26.699 -13.392  0.00  0.00    -0.322 OA
ATOM     33  H   UNL     1      35.646 -26.756 -12.980  0.00  0.00    +0.220 HD
ENDBRANCH  28  32
ENDBRANCH  21  28
BRANCH  21  34
ATOM     34  O   UNL     1      34.414 -24.692 -13.712  0.00  0.00    -0.364 OA
ATOM     35  H   UNL     1      34.563 -25.361 -13.027  0.00  0.00    +0.212 HD
ENDBRANCH  21  34
ENDBRANCH  20  21
ENDBRANCH  19  20
ENDBRANCH   1  19
TORSDOF 12
ENDMDL
MODEL 6
REMARK VINA RESULT:     -10.9     11.173     13.951
REMARK  Name = 16122556
REMARK  12 active torsions:
REMARK  status: ('A' for Active; 'I' for Inactive)
REMARK    1  A    between atoms: C_1  and  O_19
REMARK    2  A    between atoms: C_2  and  C_7
REMARK    3  A    between atoms: C_8  and  C_13
REMARK    4  A    between atoms: O_19  and  C_20
REMARK    5  A    between atoms: C_20  and  C_21
REMARK    6  A    between atoms: C_21  and  P_22
REMARK    7  A    between atoms: C_21  and  P_28
REMARK    8  A    between atoms: C_21  and  O_34
REMARK    9  A    between atoms: P_22  and  O_24
REMARK   10  A    between atoms: P_22  and  O_26
REMARK   11  A    between atoms: P_28  and  O_30
REMARK   12  A    between atoms: P_28  and  O_32
REMARK                            x       y       z     vdW  Elec       q    Type
REMARK                         _______ _______ _______ _____ _____    ______ ____
ROOT
ATOM      1  C   UNL     1      31.794  -9.561 -22.335  0.00  0.00    +0.139 C 
ATOM      2  C   UNL     1      32.221 -11.915 -22.598  0.00  0.00    +0.003 C 
ATOM      3  C   UNL     1      32.255 -10.618 -23.110  0.00  0.00    +0.037 C 
ATOM      4  C   UNL     1      31.300  -9.781 -21.055  0.00  0.00    +0.037 C 
ATOM      5  C   UNL     1      31.728 -12.145 -21.314  0.00  0.00    +0.000 C 
ATOM      6  C   UNL     1      31.267 -11.078 -20.543  0.00  0.00    +0.003 C 
ENDROOT
BRANCH   2   7
ATOM      7  C   UNL     1      32.699 -13.021 -23.398  0.00  0.00    +0.000 C 
ATOM      8  C   UNL     1      33.657 -15.235 -23.550  0.00  0.00    +0.000 C 
ATOM      9  C   UNL     1      33.195 -14.169 -22.778  0.00  0.00    +0.000 C 
ATOM     10  C   UNL     1      32.664 -12.941 -24.790  0.00  0.00    +0.000 C 
ATOM     11  C   UNL     1      33.622 -15.154 -24.942  0.00  0.00    +0.000 C 
ATOM     12  C   UNL     1      33.126 -14.007 -25.562  0.00  0.00    +0.000 C 
BRANCH   8  13
ATOM     13  C   UNL     1      34.173 -16.424 -22.908  0.00  0.00    +0.000 C 
ATOM     14  C   UNL     1      34.778 -16.333 -21.655  0.00  0.00    +0.000 C 
ATOM     15  C   UNL     1      34.067 -17.661 -23.543  0.00  0.00    +0.000 C 
ATOM     16  C   UNL     1      35.276 -17.479 -21.035  0.00  0.00    +0.000 C 
ATOM     17  C   UNL     1      34.565 -18.808 -22.924  0.00  0.00    +0.000 C 
ATOM     18  C   UNL     1      35.169 -18.717 -21.670  0.00  0.00    +0.000 C 
ENDBRANCH   8  13
ENDBRANCH   2   7
BRANCH   1  19
ATOM     19  O   UNL     1      31.826  -8.285 -22.838  0.00  0.00    -0.472 OA
BRANCH  19  20
ATOM     20  C   UNL     1      30.612  -7.551 -22.808  0.00  0.00    +0.256 C 
BRANCH  20  21
ATOM     21  C   UNL     1      30.878  -6.064 -22.542  0.00  0.00    +0.315 C 
BRANCH  21  22
ATOM     22  P   UNL     1      31.245  -5.196 -24.105  0.00  0.00    +0.375 P 
ATOM     23  O   UNL     1      31.260  -6.073 -25.322  0.00  0.00    -0.255 OA
BRANCH  22  24
ATOM     24  O   UNL     1      30.162  -3.996 -24.139  0.00  0.00    -0.322 OA
ATOM     25  H   UNL     1      29.354  -4.304 -24.581  0.00  0.00    +0.220 HD
ENDBRANCH  22  24
BRANCH  22  26
ATOM     26  O   UNL     1      32.632  -4.431 -23.793  0.00  0.00    -0.322 OA
ATOM     27  H   UNL     1      32.680  -4.218 -22.847  0.00  0.00    +0.220 HD
ENDBRANCH  22  26
ENDBRANCH  21  22
BRANCH  21  28
ATOM     28  P   UNL     1      31.865  -5.854 -21.022  0.00  0.00    +0.375 P 
ATOM     29  O   UNL     1      31.349  -6.601 -19.828  0.00  0.00    -0.255 OA
BRANCH  28  30
ATOM     30  O   UNL     1      33.359  -6.253 -21.487  0.00  0.00    -0.322 OA
ATOM     31  H   UNL     1      33.664  -5.631 -22.167  0.00  0.00    +0.220 HD
ENDBRANCH  28  30
BRANCH  28  32
ATOM     32  O   UNL     1      31.951  -4.250 -20.839  0.00  0.00    -0.322 OA
ATOM     33  H   UNL     1      32.836  -3.944 -21.091  0.00  0.00    +0.220 HD
ENDBRANCH  28  32
ENDBRANCH  21  28
BRANCH  21  34
ATOM     34  O   UNL     1      29.616  -5.500 -22.166  0.00  0.00    -0.364 OA
ATOM     35  H   UNL     1      28.908  -5.926 -22.673  0.00  0.00    +0.212 HD
ENDBRANCH  21  34
ENDBRANCH  20  21
ENDBRANCH  19  20
ENDBRANCH   1  19
TORSDOF 12
ENDMDL
MODEL 7
REMARK VINA RESULT:     -10.8     11.169     14.018
REMARK  Name = 16122556
REMARK  12 active torsions:
REMARK  status: ('A' for Active; 'I' for Inactive)
REMARK    1  A    between atoms: C_1  and  O_19
REMARK    2  A    between atoms: C_2  and  C_7
REMARK    3  A    between atoms: C_8  and  C_13
REMARK    4  A    between atoms: O_19  and  C_20
REMARK    5  A    between atoms: C_20  and  C_21
REMARK    6  A    between atoms: C_21  and  P_22
REMARK    7  A    between atoms: C_21  and  P_28
REMARK    8  A    between atoms: C_21  and  O_34
REMARK    9  A    between atoms: P_22  and  O_24
REMARK   10  A    between atoms: P_22  and  O_26
REMARK   11  A    between atoms: P_28  and  O_30
REMARK   12  A    between atoms: P_28  and  O_32
REMARK                            x       y       z     vdW  Elec       q    Type
REMARK                         _______ _______ _______ _____ _____    ______ ____
ROOT
ATOM      1  C   UNL     1      31.604  -9.593 -22.186  0.00  0.00    +0.139 C 
ATOM      2  C   UNL     1      32.193 -11.911 -22.458  0.00  0.00    +0.003 C 
ATOM      3  C   UNL     1      32.072 -10.627 -22.989  0.00  0.00    +0.037 C 
ATOM      4  C   UNL     1      31.255  -9.825 -20.861  0.00  0.00    +0.037 C 
ATOM      5  C   UNL     1      31.846 -12.152 -21.130  0.00  0.00    +0.000 C 
ATOM      6  C   UNL     1      31.377 -11.109 -20.331  0.00  0.00    +0.003 C 
ENDROOT
BRANCH   2   7
ATOM      7  C   UNL     1      32.678 -12.993 -23.287  0.00  0.00    +0.000 C 
ATOM      8  C   UNL     1      33.653 -15.194 -23.496  0.00  0.00    +0.000 C 
ATOM      9  C   UNL     1      33.184 -14.152 -22.697  0.00  0.00    +0.000 C 
ATOM     10  C   UNL     1      32.642 -12.877 -24.676  0.00  0.00    +0.000 C 
ATOM     11  C   UNL     1      33.617 -15.079 -24.885  0.00  0.00    +0.000 C 
ATOM     12  C   UNL     1      33.112 -13.920 -25.476  0.00  0.00    +0.000 C 
BRANCH   8  13
ATOM     13  C   UNL     1      34.179 -16.396 -22.885  0.00  0.00    +0.000 C 
ATOM     14  C   UNL     1      34.100 -17.613 -23.561  0.00  0.00    +0.000 C 
ATOM     15  C   UNL     1      34.764 -16.337 -21.620  0.00  0.00    +0.000 C 
ATOM     16  C   UNL     1      34.606 -18.772 -22.973  0.00  0.00    +0.000 C 
ATOM     17  C   UNL     1      35.271 -17.496 -21.032  0.00  0.00    +0.000 C 
ATOM     18  C   UNL     1      35.192 -18.713 -21.709  0.00  0.00    +0.000 C 
ENDBRANCH   8  13
ENDBRANCH   2   7
BRANCH   1  19
ATOM     19  O   UNL     1      31.485  -8.330 -22.707  0.00  0.00    -0.472 OA
BRANCH  19  20
ATOM     20  C   UNL     1      32.687  -7.662 -23.058  0.00  0.00    +0.256 C 
BRANCH  20  21
ATOM     21  C   UNL     1      32.485  -6.142 -23.068  0.00  0.00    +0.315 C 
BRANCH  21  22
ATOM     22  P   UNL     1      31.798  -5.582 -21.473  0.00  0.00    +0.375 P 
ATOM     23  O   UNL     1      32.414  -6.223 -20.264  0.00  0.00    -0.255 OA
BRANCH  22  24
ATOM     24  O   UNL     1      31.938  -3.973 -21.540  0.00  0.00    -0.322 OA
ATOM     25  H   UNL     1      31.776  -3.598 -20.660  0.00  0.00    +0.220 HD
ENDBRANCH  22  24
BRANCH  22  26
ATOM     26  O   UNL     1      30.210  -5.821 -21.643  0.00  0.00    -0.322 OA
ATOM     27  H   UNL     1      30.008  -6.008 -22.574  0.00  0.00    +0.220 HD
ENDBRANCH  22  26
ENDBRANCH  21  22
BRANCH  21  28
ATOM     28  P   UNL     1      31.842  -5.595 -24.686  0.00  0.00    +0.375 P 
ATOM     29  O   UNL     1      32.887  -5.111 -25.648  0.00  0.00    -0.255 OA
BRANCH  28  30
ATOM     30  O   UNL     1      30.976  -6.860 -25.193  0.00  0.00    -0.322 OA
ATOM     31  H   UNL     1      30.185  -6.545 -25.660  0.00  0.00    +0.220 HD
ENDBRANCH  28  30
BRANCH  28  32
ATOM     32  O   UNL     1      30.712  -4.505 -24.300  0.00  0.00    -0.322 OA
ATOM     33  H   UNL     1      31.004  -3.623 -24.580  0.00  0.00    +0.220 HD
ENDBRANCH  28  32
ENDBRANCH  21  28
BRANCH  21  34
ATOM     34  O   UNL     1      33.799  -5.571 -23.055  0.00  0.00    -0.364 OA
ATOM     35  H   UNL     1      34.040  -5.338 -22.145  0.00  0.00    +0.212 HD
ENDBRANCH  21  34
ENDBRANCH  20  21
ENDBRANCH  19  20
ENDBRANCH   1  19
TORSDOF 12
ENDMDL
MODEL 8
REMARK VINA RESULT:     -10.7      1.661      2.899
REMARK  Name = 16122556
REMARK  12 active torsions:
REMARK  status: ('A' for Active; 'I' for Inactive)
REMARK    1  A    between atoms: C_1  and  O_19
REMARK    2  A    between atoms: C_2  and  C_7
REMARK    3  A    between atoms: C_8  and  C_13
REMARK    4  A    between atoms: O_19  and  C_20
REMARK    5  A    between atoms: C_20  and  C_21
REMARK    6  A    between atoms: C_21  and  P_22
REMARK    7  A    between atoms: C_21  and  P_28
REMARK    8  A    between atoms: C_21  and  O_34
REMARK    9  A    between atoms: P_22  and  O_24
REMARK   10  A    between atoms: P_22  and  O_26
REMARK   11  A    between atoms: P_28  and  O_30
REMARK   12  A    between atoms: P_28  and  O_32
REMARK                            x       y       z     vdW  Elec       q    Type
REMARK                         _______ _______ _______ _____ _____    ______ ____
ROOT
ATOM      1  C   UNL     1      33.630 -21.595 -18.287  0.00  0.00    +0.139 C 
ATOM      2  C   UNL     1      34.648 -20.225 -19.985  0.00  0.00    +0.003 C 
ATOM      3  C   UNL     1      33.506 -20.782 -19.409  0.00  0.00    +0.037 C 
ATOM      4  C   UNL     1      34.877 -21.857 -17.734  0.00  0.00    +0.037 C 
ATOM      5  C   UNL     1      35.903 -20.483 -19.436  0.00  0.00    +0.000 C 
ATOM      6  C   UNL     1      36.018 -21.299 -18.310  0.00  0.00    +0.003 C 
ENDROOT
BRANCH   2   7
ATOM      7  C   UNL     1      34.529 -19.379 -21.152  0.00  0.00    +0.000 C 
ATOM      8  C   UNL     1      34.262 -17.185 -22.129  0.00  0.00    +0.000 C 
ATOM      9  C   UNL     1      34.378 -18.000 -21.004  0.00  0.00    +0.000 C 
ATOM     10  C   UNL     1      34.564 -19.943 -22.428  0.00  0.00    +0.000 C 
ATOM     11  C   UNL     1      34.297 -17.749 -23.405  0.00  0.00    +0.000 C 
ATOM     12  C   UNL     1      34.447 -19.128 -23.554  0.00  0.00    +0.000 C 
BRANCH   8  13
ATOM     13  C   UNL     1      34.105 -15.755 -21.976  0.00  0.00    +0.000 C 
ATOM     14  C   UNL     1      34.034 -14.937 -23.103  0.00  0.00    +0.000 C 
ATOM     15  C   UNL     1      34.025 -15.195 -20.701  0.00  0.00    +0.000 C 
ATOM     16  C   UNL     1      33.882 -13.559 -22.957  0.00  0.00    +0.000 C 
ATOM     17  C   UNL     1      33.873 -13.816 -20.554  0.00  0.00    +0.000 C 
ATOM     18  C   UNL     1      33.801 -12.998 -21.682  0.00  0.00    +0.000 C 
ENDBRANCH   8  13
ENDBRANCH   2   7
BRANCH   1  19
ATOM     19  O   UNL     1      32.508 -22.144 -17.719  0.00  0.00    -0.472 OA
BRANCH  19  20
ATOM     20  C   UNL     1      32.698 -23.279 -16.889  0.00  0.00    +0.256 C 
BRANCH  20  21
ATOM     21  C   UNL     1      32.074 -23.055 -15.506  0.00  0.00    +0.315 C 
BRANCH  21  22
ATOM     22  P   UNL     1      33.006 -23.972 -14.234  0.00  0.00    +0.375 P 
ATOM     23  O   UNL     1      34.335 -24.502 -14.687  0.00  0.00    -0.255 OA
BRANCH  22  24
ATOM     24  O   UNL     1      33.070 -22.943 -12.989  0.00  0.00    -0.322 OA
ATOM     25  H   UNL     1      33.063 -23.442 -12.157  0.00  0.00    +0.220 HD
ENDBRANCH  22  24
BRANCH  22  26
ATOM     26  O   UNL     1      31.956 -25.092 -13.732  0.00  0.00    -0.322 OA
ATOM     27  H   UNL     1      32.210 -25.401 -12.848  0.00  0.00    +0.220 HD
ENDBRANCH  22  26
ENDBRANCH  21  22
BRANCH  21  28
ATOM     28  P   UNL     1      30.254 -23.063 -15.618  0.00  0.00    +0.375 P 
ATOM     29  O   UNL     1      29.636 -24.425 -15.740  0.00  0.00    -0.255 OA
BRANCH  28  30
ATOM     30  O   UNL     1      29.794 -22.216 -14.321  0.00  0.00    -0.322 OA
ATOM     31  H   UNL     1      28.873 -22.431 -14.103  0.00  0.00    +0.220 HD
ENDBRANCH  28  30
BRANCH  28  32
ATOM     32  O   UNL     1      29.940 -22.058 -16.844  0.00  0.00    -0.322 OA
ATOM     33  H   UNL     1      30.690 -21.455 -16.967  0.00  0.00    +0.220 HD
ENDBRANCH  28  32
ENDBRANCH  21  28
BRANCH  21  34
ATOM     34  O   UNL     1      32.352 -21.691 -15.166  0.00  0.00    -0.364 OA
ATOM     35  H   UNL     1      32.124 -21.119 -15.915  0.00  0.00    +0.212 HD
ENDBRANCH  21  34
ENDBRANCH  20  21
ENDBRANCH  19  20
ENDBRANCH   1  19
TORSDOF 12
ENDMDL
MODEL 9
REMARK VINA RESULT:     -10.6      2.431      4.182
REMARK  Name = 16122556
REMARK  12 active torsions:
REMARK  status: ('A' for Active; 'I' for Inactive)
REMARK    1  A    between atoms: C_1  and  O_19
REMARK    2  A    between atoms: C_2  and  C_7
REMARK    3  A    between atoms: C_8  and  C_13
REMARK    4  A    between atoms: O_19  and  C_20
REMARK    5  A    between atoms: C_20  and  C_21
REMARK    6  A    between atoms: C_21  and  P_22
REMARK    7  A    between atoms: C_21  and  P_28
REMARK    8  A    between atoms: C_21  and  O_34
REMARK    9  A    between atoms: P_22  and  O_24
REMARK   10  A    between atoms: P_22  and  O_26
REMARK   11  A    between atoms: P_28  and  O_30
REMARK   12  A    between atoms: P_28  and  O_32
REMARK                            x       y       z     vdW  Elec       q    Type
REMARK                         _______ _______ _______ _____ _____    ______ ____
ROOT
ATOM      1  C   UNL     1      36.441 -22.515 -15.647  0.00  0.00    +0.139 C 
ATOM      2  C   UNL     1      35.622 -21.243 -17.518  0.00  0.00    +0.003 C 
ATOM      3  C   UNL     1      35.468 -22.294 -16.614  0.00  0.00    +0.037 C 
ATOM      4  C   UNL     1      37.566 -21.703 -15.571  0.00  0.00    +0.037 C 
ATOM      5  C   UNL     1      36.747 -20.422 -17.449  0.00  0.00    +0.000 C 
ATOM      6  C   UNL     1      37.718 -20.652 -16.475  0.00  0.00    +0.003 C 
ENDROOT
BRANCH   2   7
ATOM      7  C   UNL     1      34.614 -21.005 -18.528  0.00  0.00    +0.000 C 
ATOM      8  C   UNL     1      33.859 -19.819 -20.494  0.00  0.00    +0.000 C 
ATOM      9  C   UNL     1      34.831 -20.050 -19.521  0.00  0.00    +0.000 C 
ATOM     10  C   UNL     1      33.423 -21.732 -18.509  0.00  0.00    +0.000 C 
ATOM     11  C   UNL     1      32.668 -20.546 -20.475  0.00  0.00    +0.000 C 
ATOM     12  C   UNL     1      32.450 -21.501 -19.483  0.00  0.00    +0.000 C 
BRANCH   8  13
ATOM     13  C   UNL     1      34.083 -18.827 -21.523  0.00  0.00    +0.000 C 
ATOM     14  C   UNL     1      34.742 -17.638 -21.213  0.00  0.00    +0.000 C 
ATOM     15  C   UNL     1      33.640 -19.060 -22.825  0.00  0.00    +0.000 C 
ATOM     16  C   UNL     1      34.959 -16.681 -22.204  0.00  0.00    +0.000 C 
ATOM     17  C   UNL     1      33.856 -18.104 -23.817  0.00  0.00    +0.000 C 
ATOM     18  C   UNL     1      34.516 -16.914 -23.506  0.00  0.00    +0.000 C 
ENDBRANCH   8  13
ENDBRANCH   2   7
BRANCH   1  19
ATOM     19  O   UNL     1      36.292 -23.548 -14.756  0.00  0.00    -0.472 OA
BRANCH  19  20
ATOM     20  C   UNL     1      37.293 -23.690 -13.761  0.00  0.00    +0.256 C 
BRANCH  20  21
ATOM     21  C   UNL     1      37.857 -25.116 -13.752  0.00  0.00    +0.315 C 
BRANCH  21  22
ATOM     22  P   UNL     1      39.582 -25.120 -14.348  0.00  0.00    +0.375 P 
ATOM     23  O   UNL     1      40.373 -23.896 -13.992  0.00  0.00    -0.255 OA
BRANCH  22  24
ATOM     24  O   UNL     1      40.180 -26.510 -13.779  0.00  0.00    -0.322 OA
ATOM     25  H   UNL     1      40.188 -27.172 -14.488  0.00  0.00    +0.220 HD
ENDBRANCH  22  24
BRANCH  22  26
ATOM     26  O   UNL     1      39.432 -25.405 -15.930  0.00  0.00    -0.322 OA
ATOM     27  H   UNL     1      40.308 -25.381 -16.348  0.00  0.00    +0.220 HD
ENDBRANCH  22  26
ENDBRANCH  21  22
BRANCH  21  28
ATOM     28  P   UNL     1      36.596 -26.305 -14.321  0.00  0.00    +0.375 P 
ATOM     29  O   UNL     1      36.826 -26.858 -15.696  0.00  0.00    -0.255 OA
BRANCH  28  30
ATOM     30  O   UNL     1      36.554 -27.404 -13.138  0.00  0.00    -0.322 OA
ATOM     31  H   UNL     1      37.281 -27.238 -12.516  0.00  0.00    +0.220 HD
ENDBRANCH  28  30
BRANCH  28  32
ATOM     32  O   UNL     1      35.203 -25.506 -14.131  0.00  0.00    -0.322 OA
ATOM     33  H   UNL     1      34.481 -26.017 -14.529  0.00  0.00    +0.220 HD
ENDBRANCH  28  32
ENDBRANCH  21  28
BRANCH  21  34
ATOM     34  O   UNL     1      38.008 -25.470 -12.372  0.00  0.00    -0.364 OA
ATOM     35  H   UNL     1      38.381 -26.363 -12.307  0.00  0.00    +0.212 HD
ENDBRANCH  21  34
ENDBRANCH  20  21
ENDBRANCH  19  20
ENDBRANCH   1  19
TORSDOF 12
ENDMDL
