MODEL 1
REMARK VINA RESULT:     -11.4      0.000      0.000
REMARK  Name = 51352628
REMARK  5 active torsions:
REMARK  status: ('A' for Active; 'I' for Inactive)
REMARK    1  A    between atoms: C_4  and  N_12
REMARK    2  A    between atoms: C_6  and  C_18
REMARK    3  A    between atoms: C_21  and  C_23
REMARK    4  A    between atoms: C_23  and  C_24
REMARK    5  A    between atoms: C_24  and  O_25
REMARK                            x       y       z     vdW  Elec       q    Type
REMARK                         _______ _______ _______ _____ _____    ______ ____
ROOT
ATOM      1  N   UNL     1      35.385 -22.197 -16.626  0.00  0.00    -0.175 N 
ATOM      2  N   UNL     1      33.822 -23.345 -15.531  0.00  0.00    -0.391 NA
ATOM      3  N   UNL     1      36.588 -21.653 -16.952  0.00  0.00    -0.174 NA
ATOM      4  C   UNL     1      36.149 -23.301 -14.620  0.00  0.00    +0.096 C 
ATOM      5  C   UNL     1      35.093 -22.995 -15.532  0.00  0.00    +0.215 C 
ATOM      6  C   UNL     1      34.226 -22.049 -17.341  0.00  0.00    +0.170 C 
ATOM      7  C   UNL     1      33.280 -22.764 -16.648  0.00  0.00    +0.113 C 
ATOM      8  C   UNL     1      37.363 -22.789 -14.891  0.00  0.00    +0.041 C 
ATOM      9  C   UNL     1      37.519 -21.951 -16.103  0.00  0.00    +0.119 C 
ATOM     10  C   UNL     1      31.854 -22.953 -16.962  0.00  0.00    +0.064 C 
ENDROOT
BRANCH   4  12
ATOM     11  O   UNL     1      36.011 -25.382 -11.044  0.00  0.00    -0.350 OA
ATOM     12  N   UNL     1      35.913 -24.084 -13.529  0.00  0.00    -0.300 N 
ATOM     13  C   UNL     1      35.013 -23.675 -12.450  0.00  0.00    +0.123 C 
ATOM     14  C   UNL     1      36.384 -25.466 -13.439  0.00  0.00    +0.123 C 
ATOM     15  C   UNL     1      35.657 -23.998 -11.106  0.00  0.00    +0.164 C 
ATOM     16  C   UNL     1      36.969 -25.711 -12.053  0.00  0.00    +0.164 C 
ENDBRANCH   4  12
BRANCH   6  18
ATOM     17  N   UNL     1      35.223 -20.150 -20.389  0.00  0.00    -0.248 NA
ATOM     18  C   UNL     1      34.120 -21.282 -18.559  0.00  0.00    +0.023 C 
ATOM     19  C   UNL     1      32.880 -20.933 -19.082  0.00  0.00    +0.001 C 
ATOM     20  C   UNL     1      35.251 -20.870 -19.245  0.00  0.00    +0.096 C 
ATOM     21  C   UNL     1      34.000 -19.830 -20.867  0.00  0.00    +0.062 C 
ATOM     22  C   UNL     1      32.809 -20.194 -20.257  0.00  0.00    +0.015 C 
BRANCH  21  23
ATOM     23  C   UNL     1      33.962 -19.036 -22.129  0.00  0.00    +0.078 C 
BRANCH  23  24
ATOM     24  C   UNL     1      35.136 -18.058 -22.256  0.00  0.00    +0.149 C 
BRANCH  24  25
ATOM     25  O   UNL     1      34.882 -16.906 -21.463  0.00  0.00    -0.351 OA
ATOM     26  C   UNL     1      34.504 -15.795 -22.264  0.00  0.00    +0.174 C 
ENDBRANCH  24  25
ENDBRANCH  23  24
ENDBRANCH  21  23
ENDBRANCH   6  18
TORSDOF 5
ENDMDL
MODEL 2
REMARK VINA RESULT:     -10.2      7.948     11.845
REMARK  Name = 51352628
REMARK  5 active torsions:
REMARK  status: ('A' for Active; 'I' for Inactive)
REMARK    1  A    between atoms: C_4  and  N_12
REMARK    2  A    between atoms: C_6  and  C_18
REMARK    3  A    between atoms: C_21  and  C_23
REMARK    4  A    between atoms: C_23  and  C_24
REMARK    5  A    between atoms: C_24  and  O_25
REMARK                            x       y       z     vdW  Elec       q    Type
REMARK                         _______ _______ _______ _____ _____    ______ ____
ROOT
ATOM      1  N   UNL     1      33.300 -13.259 -22.452  0.00  0.00    -0.175 N 
ATOM      2  N   UNL     1      33.325 -14.355 -24.392  0.00  0.00    -0.391 NA
ATOM      3  N   UNL     1      33.436 -12.992 -21.125  0.00  0.00    -0.174 NA
ATOM      4  C   UNL     1      34.047 -15.551 -22.320  0.00  0.00    +0.096 C 
ATOM      5  C   UNL     1      33.571 -14.454 -23.100  0.00  0.00    +0.215 C 
ATOM      6  C   UNL     1      32.863 -12.373 -23.401  0.00  0.00    +0.170 C 
ATOM      7  C   UNL     1      32.887 -13.070 -24.584  0.00  0.00    +0.113 C 
ATOM      8  C   UNL     1      34.201 -15.346 -20.999  0.00  0.00    +0.041 C 
ATOM      9  C   UNL     1      33.868 -14.010 -20.451  0.00  0.00    +0.119 C 
ATOM     10  C   UNL     1      32.520 -12.608 -25.933  0.00  0.00    +0.064 C 
ENDROOT
BRANCH   4  12
ATOM     11  O   UNL     1      34.320 -19.407 -23.801  0.00  0.00    -0.350 OA
ATOM     12  N   UNL     1      34.330 -16.747 -22.911  0.00  0.00    -0.300 N 
ATOM     13  C   UNL     1      33.917 -17.063 -24.279  0.00  0.00    +0.123 C 
ATOM     14  C   UNL     1      35.227 -17.729 -22.302  0.00  0.00    +0.123 C 
ATOM     15  C   UNL     1      33.363 -18.482 -24.324  0.00  0.00    +0.164 C 
ATOM     16  C   UNL     1      34.615 -19.120 -22.432  0.00  0.00    +0.164 C 
ENDBRANCH   4  12
BRANCH   6  18
ATOM     17  N   UNL     1      32.998  -8.652 -23.244  0.00  0.00    -0.248 NA
ATOM     18  C   UNL     1      32.480 -11.011 -23.119  0.00  0.00    +0.023 C 
ATOM     19  C   UNL     1      31.281 -10.721 -22.478  0.00  0.00    +0.001 C 
ATOM     20  C   UNL     1      33.296  -9.950 -23.478  0.00  0.00    +0.096 C 
ATOM     21  C   UNL     1      31.825  -8.409 -22.619  0.00  0.00    +0.062 C 
ATOM     22  C   UNL     1      30.939  -9.398 -22.219  0.00  0.00    +0.015 C 
BRANCH  21  23
ATOM     23  C   UNL     1      31.490  -6.979 -22.358  0.00  0.00    +0.078 C 
BRANCH  23  24
ATOM     24  C   UNL     1      32.581  -6.243 -21.573  0.00  0.00    +0.149 C 
BRANCH  24  25
ATOM     25  O   UNL     1      32.766  -6.873 -20.312  0.00  0.00    -0.351 OA
ATOM     26  C   UNL     1      31.620  -6.729 -19.485  0.00  0.00    +0.174 C 
ENDBRANCH  24  25
ENDBRANCH  23  24
ENDBRANCH  21  23
ENDBRANCH   6  18
TORSDOF 5
ENDMDL
MODEL 3
REMARK VINA RESULT:     -10.1      6.696     10.685
REMARK  Name = 51352628
REMARK  5 active torsions:
REMARK  status: ('A' for Active; 'I' for Inactive)
REMARK    1  A    between atoms: C_4  and  N_12
REMARK    2  A    between atoms: C_6  and  C_18
REMARK    3  A    between atoms: C_21  and  C_23
REMARK    4  A    between atoms: C_23  and  C_24
REMARK    5  A    between atoms: C_24  and  O_25
REMARK                            x       y       z     vdW  Elec       q    Type
REMARK                         _______ _______ _______ _____ _____    ______ ____
ROOT
ATOM      1  N   UNL     1      33.499 -14.447 -23.094  0.00  0.00    -0.175 N 
ATOM      2  N   UNL     1      34.225 -15.247 -21.146  0.00  0.00    -0.391 NA
ATOM      3  N   UNL     1      33.165 -14.378 -24.411  0.00  0.00    -0.174 NA
ATOM      4  C   UNL     1      34.252 -16.740 -23.150  0.00  0.00    +0.096 C 
ATOM      5  C   UNL     1      34.022 -15.537 -22.417  0.00  0.00    +0.215 C 
ATOM      6  C   UNL     1      33.370 -13.429 -22.187  0.00  0.00    +0.170 C 
ATOM      7  C   UNL     1      33.823 -13.945 -20.998  0.00  0.00    +0.113 C 
ATOM      8  C   UNL     1      33.941 -16.731 -24.459  0.00  0.00    +0.041 C 
ATOM      9  C   UNL     1      33.388 -15.486 -25.043  0.00  0.00    +0.119 C 
ATOM     10  C   UNL     1      33.910 -13.290 -19.682  0.00  0.00    +0.064 C 
ENDROOT
BRANCH   4  12
ATOM     11  O   UNL     1      35.631 -19.752 -20.668  0.00  0.00    -0.350 OA
ATOM     12  N   UNL     1      34.764 -17.840 -22.528  0.00  0.00    -0.300 N 
ATOM     13  C   UNL     1      33.970 -19.046 -22.289  0.00  0.00    +0.123 C 
ATOM     14  C   UNL     1      36.188 -17.978 -22.225  0.00  0.00    +0.123 C 
ATOM     15  C   UNL     1      34.230 -19.549 -20.874  0.00  0.00    +0.164 C 
ATOM     16  C   UNL     1      36.352 -18.526 -20.812  0.00  0.00    +0.164 C 
ENDBRANCH   4  12
BRANCH   6  18
ATOM     17  N   UNL     1      31.143 -10.441 -22.200  0.00  0.00    -0.248 NA
ATOM     18  C   UNL     1      32.855 -12.120 -22.510  0.00  0.00    +0.023 C 
ATOM     19  C   UNL     1      33.523 -11.286 -23.399  0.00  0.00    +0.001 C 
ATOM     20  C   UNL     1      31.680 -11.654 -21.942  0.00  0.00    +0.096 C 
ATOM     21  C   UNL     1      31.819  -9.658 -23.070  0.00  0.00    +0.062 C 
ATOM     22  C   UNL     1      33.002 -10.029 -23.690  0.00  0.00    +0.015 C 
BRANCH  21  23
ATOM     23  C   UNL     1      31.232  -8.317 -23.359  0.00  0.00    +0.078 C 
BRANCH  23  24
ATOM     24  C   UNL     1      31.150  -7.421 -22.119  0.00  0.00    +0.149 C 
BRANCH  24  25
ATOM     25  O   UNL     1      32.435  -7.319 -21.521  0.00  0.00    -0.351 OA
ATOM     26  C   UNL     1      32.344  -6.982 -20.143  0.00  0.00    +0.174 C 
ENDBRANCH  24  25
ENDBRANCH  23  24
ENDBRANCH  21  23
ENDBRANCH   6  18
TORSDOF 5
ENDMDL
MODEL 4
REMARK VINA RESULT:     -10.1      8.649     15.112
REMARK  Name = 51352628
REMARK  5 active torsions:
REMARK  status: ('A' for Active; 'I' for Inactive)
REMARK    1  A    between atoms: C_4  and  N_12
REMARK    2  A    between atoms: C_6  and  C_18
REMARK    3  A    between atoms: C_21  and  C_23
REMARK    4  A    between atoms: C_23  and  C_24
REMARK    5  A    between atoms: C_24  and  O_25
REMARK                            x       y       z     vdW  Elec       q    Type
REMARK                         _______ _______ _______ _____ _____    ______ ____
ROOT
ATOM      1  N   UNL     1      33.149  -9.422 -23.087  0.00  0.00    -0.175 N 
ATOM      2  N   UNL     1      31.318  -8.702 -22.042  0.00  0.00    -0.391 NA
ATOM      3  N   UNL     1      34.342  -9.417 -23.741  0.00  0.00    -0.174 NA
ATOM      4  C   UNL     1      32.980  -7.025 -22.861  0.00  0.00    +0.096 C 
ATOM      5  C   UNL     1      32.435  -8.325 -22.634  0.00  0.00    +0.215 C 
ATOM      6  C   UNL     1      32.430 -10.540 -22.753  0.00  0.00    +0.170 C 
ATOM      7  C   UNL     1      31.310 -10.071 -22.113  0.00  0.00    +0.113 C 
ATOM      8  C   UNL     1      34.160  -6.957 -23.504  0.00  0.00    +0.041 C 
ATOM      9  C   UNL     1      34.804  -8.222 -23.929  0.00  0.00    +0.119 C 
ATOM     10  C   UNL     1      30.190 -10.834 -21.538  0.00  0.00    +0.064 C 
ENDROOT
BRANCH   4  12
ATOM     11  O   UNL     1      30.393  -4.054 -21.588  0.00  0.00    -0.350 OA
ATOM     12  N   UNL     1      32.317  -5.914 -22.432  0.00  0.00    -0.300 N 
ATOM     13  C   UNL     1      32.201  -5.567 -21.015  0.00  0.00    +0.123 C 
ATOM     14  C   UNL     1      31.836  -4.884 -23.353  0.00  0.00    +0.123 C 
ATOM     15  C   UNL     1      30.773  -5.124 -20.719  0.00  0.00    +0.164 C 
ATOM     16  C   UNL     1      30.423  -4.471 -22.955  0.00  0.00    +0.164 C 
ENDBRANCH   4  12
BRANCH   6  18
ATOM     17  N   UNL     1      33.006 -13.690 -24.661  0.00  0.00    -0.248 NA
ATOM     18  C   UNL     1      32.847 -11.888 -23.056  0.00  0.00    +0.023 C 
ATOM     19  C   UNL     1      33.468 -12.679 -22.096  0.00  0.00    +0.001 C 
ATOM     20  C   UNL     1      32.641 -12.435 -24.312  0.00  0.00    +0.096 C 
ATOM     21  C   UNL     1      33.606 -14.429 -23.702  0.00  0.00    +0.062 C 
ATOM     22  C   UNL     1      33.859 -13.975 -22.417  0.00  0.00    +0.015 C 
BRANCH  21  23
ATOM     23  C   UNL     1      34.012 -15.814 -24.081  0.00  0.00    +0.078 C 
BRANCH  23  24
ATOM     24  C   UNL     1      34.512 -16.637 -22.890  0.00  0.00    +0.149 C 
BRANCH  24  25
ATOM     25  O   UNL     1      34.148 -18.000 -23.068  0.00  0.00    -0.351 OA
ATOM     26  C   UNL     1      34.445 -18.773 -21.913  0.00  0.00    +0.174 C 
ENDBRANCH  24  25
ENDBRANCH  23  24
ENDBRANCH  21  23
ENDBRANCH   6  18
TORSDOF 5
ENDMDL
MODEL 5
REMARK VINA RESULT:      -9.9      3.878      7.960
REMARK  Name = 51352628
REMARK  5 active torsions:
REMARK  status: ('A' for Active; 'I' for Inactive)
REMARK    1  A    between atoms: C_4  and  N_12
REMARK    2  A    between atoms: C_6  and  C_18
REMARK    3  A    between atoms: C_21  and  C_23
REMARK    4  A    between atoms: C_23  and  C_24
REMARK    5  A    between atoms: C_24  and  O_25
REMARK                            x       y       z     vdW  Elec       q    Type
REMARK                         _______ _______ _______ _____ _____    ______ ____
ROOT
ATOM      1  N   UNL     1      32.069 -23.562 -14.852  0.00  0.00    -0.175 N 
ATOM      2  N   UNL     1      31.062 -22.710 -16.646  0.00  0.00    -0.391 NA
ATOM      3  N   UNL     1      32.253 -24.132 -13.630  0.00  0.00    -0.174 NA
ATOM      4  C   UNL     1      29.657 -23.554 -14.759  0.00  0.00    +0.096 C 
ATOM      5  C   UNL     1      30.864 -23.255 -15.461  0.00  0.00    +0.215 C 
ATOM      6  C   UNL     1      33.067 -23.187 -15.712  0.00  0.00    +0.170 C 
ATOM      7  C   UNL     1      32.422 -22.666 -16.807  0.00  0.00    +0.113 C 
ATOM      8  C   UNL     1      29.777 -24.119 -13.544  0.00  0.00    +0.041 C 
ATOM      9  C   UNL     1      31.138 -24.388 -13.024  0.00  0.00    +0.119 C 
ATOM     10  C   UNL     1      33.003 -22.110 -18.040  0.00  0.00    +0.064 C 
ENDROOT
BRANCH   4  12
ATOM     11  O   UNL     1      26.347 -22.327 -16.921  0.00  0.00    -0.350 OA
ATOM     12  N   UNL     1      28.446 -23.273 -15.318  0.00  0.00    -0.300 N 
ATOM     13  C   UNL     1      27.804 -24.161 -16.287  0.00  0.00    +0.123 C 
ATOM     14  C   UNL     1      27.607 -22.167 -14.855  0.00  0.00    +0.123 C 
ATOM     15  C   UNL     1      27.230 -23.331 -17.430  0.00  0.00    +0.164 C 
ATOM     16  C   UNL     1      27.043 -21.423 -16.060  0.00  0.00    +0.164 C 
ENDBRANCH   4  12
BRANCH   6  18
ATOM     17  N   UNL     1      36.328 -24.817 -14.937  0.00  0.00    -0.248 NA
ATOM     18  C   UNL     1      34.475 -23.346 -15.436  0.00  0.00    +0.023 C 
ATOM     19  C   UNL     1      35.326 -22.248 -15.396  0.00  0.00    +0.001 C 
ATOM     20  C   UNL     1      35.020 -24.598 -15.202  0.00  0.00    +0.096 C 
ATOM     21  C   UNL     1      37.125 -23.726 -14.907  0.00  0.00    +0.062 C 
ATOM     22  C   UNL     1      36.679 -22.433 -15.128  0.00  0.00    +0.015 C 
BRANCH  21  23
ATOM     23  C   UNL     1      38.569 -23.962 -14.616  0.00  0.00    +0.078 C 
BRANCH  23  24
ATOM     24  C   UNL     1      38.810 -24.549 -13.222  0.00  0.00    +0.149 C 
BRANCH  24  25
ATOM     25  O   UNL     1      38.496 -23.575 -12.235  0.00  0.00    -0.351 OA
ATOM     26  C   UNL     1      37.434 -24.007 -11.396  0.00  0.00    +0.174 C 
ENDBRANCH  24  25
ENDBRANCH  23  24
ENDBRANCH  21  23
ENDBRANCH   6  18
TORSDOF 5
ENDMDL
MODEL 6
REMARK VINA RESULT:      -9.8      1.127      2.266
REMARK  Name = 51352628
REMARK  5 active torsions:
REMARK  status: ('A' for Active; 'I' for Inactive)
REMARK    1  A    between atoms: C_4  and  N_12
REMARK    2  A    between atoms: C_6  and  C_18
REMARK    3  A    between atoms: C_21  and  C_23
REMARK    4  A    between atoms: C_23  and  C_24
REMARK    5  A    between atoms: C_24  and  O_25
REMARK                            x       y       z     vdW  Elec       q    Type
REMARK                         _______ _______ _______ _____ _____    ______ ____
ROOT
ATOM      1  N   UNL     1      34.747 -22.538 -16.304  0.00  0.00    -0.175 N 
ATOM      2  N   UNL     1      36.565 -22.181 -15.067  0.00  0.00    -0.391 NA
ATOM      3  N   UNL     1      33.546 -23.030 -16.711  0.00  0.00    -0.174 NA
ATOM      4  C   UNL     1      34.832 -23.779 -14.235  0.00  0.00    +0.096 C 
ATOM      5  C   UNL     1      35.427 -22.845 -15.136  0.00  0.00    +0.215 C 
ATOM      6  C   UNL     1      35.510 -21.632 -16.992  0.00  0.00    +0.170 C 
ATOM      7  C   UNL     1      36.622 -21.429 -16.211  0.00  0.00    +0.113 C 
ATOM      8  C   UNL     1      33.642 -24.300 -14.586  0.00  0.00    +0.041 C 
ATOM      9  C   UNL     1      33.038 -23.873 -15.870  0.00  0.00    +0.119 C 
ATOM     10  C   UNL     1      37.776 -20.550 -16.462  0.00  0.00    +0.064 C 
ENDROOT
BRANCH   4  12
ATOM     11  O   UNL     1      37.197 -24.285 -10.875  0.00  0.00    -0.350 OA
ATOM     12  N   UNL     1      35.461 -24.112 -13.072  0.00  0.00    -0.300 N 
ATOM     13  C   UNL     1      35.070 -23.547 -11.780  0.00  0.00    +0.123 C 
ATOM     14  C   UNL     1      36.441 -25.195 -12.993  0.00  0.00    +0.123 C 
ATOM     15  C   UNL     1      36.321 -23.161 -10.998  0.00  0.00    +0.164 C 
ATOM     16  C   UNL     1      37.633 -24.737 -12.160  0.00  0.00    +0.164 C 
ENDBRANCH   4  12
BRANCH   6  18
ATOM     17  N   UNL     1      35.780 -19.826 -20.241  0.00  0.00    -0.248 NA
ATOM     18  C   UNL     1      35.138 -21.064 -18.266  0.00  0.00    +0.023 C 
ATOM     19  C   UNL     1      33.843 -21.187 -18.755  0.00  0.00    +0.001 C 
ATOM     20  C   UNL     1      36.062 -20.381 -19.041  0.00  0.00    +0.096 C 
ATOM     21  C   UNL     1      34.511 -19.965 -20.684  0.00  0.00    +0.062 C 
ATOM     22  C   UNL     1      33.514 -20.630 -19.986  0.00  0.00    +0.015 C 
BRANCH  21  23
ATOM     23  C   UNL     1      34.194 -19.355 -22.008  0.00  0.00    +0.078 C 
BRANCH  23  24
ATOM     24  C   UNL     1      35.214 -18.296 -22.437  0.00  0.00    +0.149 C 
BRANCH  24  25
ATOM     25  O   UNL     1      34.534 -17.180 -22.997  0.00  0.00    -0.351 OA
ATOM     26  C   UNL     1      34.569 -16.058 -22.125  0.00  0.00    +0.174 C 
ENDBRANCH  24  25
ENDBRANCH  23  24
ENDBRANCH  21  23
ENDBRANCH   6  18
TORSDOF 5
ENDMDL
MODEL 7
REMARK VINA RESULT:      -9.7      6.662     13.280
REMARK  Name = 51352628
REMARK  5 active torsions:
REMARK  status: ('A' for Active; 'I' for Inactive)
REMARK    1  A    between atoms: C_4  and  N_12
REMARK    2  A    between atoms: C_6  and  C_18
REMARK    3  A    between atoms: C_21  and  C_23
REMARK    4  A    between atoms: C_23  and  C_24
REMARK    5  A    between atoms: C_24  and  O_25
REMARK                            x       y       z     vdW  Elec       q    Type
REMARK                         _______ _______ _______ _____ _____    ______ ____
ROOT
ATOM      1  N   UNL     1      32.482 -12.230 -21.894  0.00  0.00    -0.175 N 
ATOM      2  N   UNL     1      32.415 -10.834 -23.628  0.00  0.00    -0.391 NA
ATOM      3  N   UNL     1      32.326 -12.726 -20.637  0.00  0.00    -0.174 NA
ATOM      4  C   UNL     1      31.497 -10.074 -21.431  0.00  0.00    +0.096 C 
ATOM      5  C   UNL     1      32.113 -10.975 -22.352  0.00  0.00    +0.215 C 
ATOM      6  C   UNL     1      33.042 -12.899 -22.949  0.00  0.00    +0.170 C 
ATOM      7  C   UNL     1      32.989 -12.020 -24.003  0.00  0.00    +0.113 C 
ATOM      8  C   UNL     1      31.318 -10.512 -20.171  0.00  0.00    +0.041 C 
ATOM      9  C   UNL     1      31.766 -11.882 -19.830  0.00  0.00    +0.119 C 
ATOM     10  C   UNL     1      33.451 -12.213 -25.388  0.00  0.00    +0.064 C 
ENDROOT
BRANCH   4  12
ATOM     11  O   UNL     1      30.942  -6.286 -23.004  0.00  0.00    -0.350 OA
ATOM     12  N   UNL     1      31.114  -8.830 -21.834  0.00  0.00    -0.300 N 
ATOM     13  C   UNL     1      30.253  -8.613 -22.997  0.00  0.00    +0.123 C 
ATOM     14  C   UNL     1      31.371  -7.633 -21.033  0.00  0.00    +0.123 C 
ATOM     15  C   UNL     1      30.801  -7.452 -23.820  0.00  0.00    +0.164 C 
ATOM     16  C   UNL     1      31.871  -6.515 -21.942  0.00  0.00    +0.164 C 
ENDBRANCH   4  12
BRANCH   6  18
ATOM     17  N   UNL     1      34.556 -16.002 -21.545  0.00  0.00    -0.248 NA
ATOM     18  C   UNL     1      33.553 -14.247 -22.872  0.00  0.00    +0.023 C 
ATOM     19  C   UNL     1      33.550 -15.080 -23.985  0.00  0.00    +0.001 C 
ATOM     20  C   UNL     1      34.062 -14.751 -21.686  0.00  0.00    +0.096 C 
ATOM     21  C   UNL     1      34.537 -16.783 -22.648  0.00  0.00    +0.062 C 
ATOM     22  C   UNL     1      34.049 -16.374 -23.880  0.00  0.00    +0.015 C 
BRANCH  21  23
ATOM     23  C   UNL     1      35.080 -18.164 -22.499  0.00  0.00    +0.078 C 
BRANCH  23  24
ATOM     24  C   UNL     1      36.289 -18.233 -21.561  0.00  0.00    +0.149 C 
BRANCH  24  25
ATOM     25  O   UNL     1      35.939 -18.950 -20.385  0.00  0.00    -0.351 OA
ATOM     26  C   UNL     1      34.790 -19.760 -20.592  0.00  0.00    +0.174 C 
ENDBRANCH  24  25
ENDBRANCH  23  24
ENDBRANCH  21  23
ENDBRANCH   6  18
TORSDOF 5
ENDMDL
MODEL 8
REMARK VINA RESULT:      -9.5      4.094      8.165
REMARK  Name = 51352628
REMARK  5 active torsions:
REMARK  status: ('A' for Active; 'I' for Inactive)
REMARK    1  A    between atoms: C_4  and  N_12
REMARK    2  A    between atoms: C_6  and  C_18
REMARK    3  A    between atoms: C_21  and  C_23
REMARK    4  A    between atoms: C_23  and  C_24
REMARK    5  A    between atoms: C_24  and  O_25
REMARK                            x       y       z     vdW  Elec       q    Type
REMARK                         _______ _______ _______ _____ _____    ______ ____
ROOT
ATOM      1  N   UNL     1      32.557 -23.656 -14.518  0.00  0.00    -0.175 N 
ATOM      2  N   UNL     1      31.949 -22.606 -16.386  0.00  0.00    -0.391 NA
ATOM      3  N   UNL     1      32.481 -24.291 -13.317  0.00  0.00    -0.174 NA
ATOM      4  C   UNL     1      30.180 -23.315 -14.769  0.00  0.00    +0.096 C 
ATOM      5  C   UNL     1      31.507 -23.161 -15.274  0.00  0.00    +0.215 C 
ATOM      6  C   UNL     1      33.712 -23.391 -15.205  0.00  0.00    +0.170 C 
ATOM      7  C   UNL     1      33.312 -22.745 -16.349  0.00  0.00    +0.113 C 
ATOM      8  C   UNL     1      30.043 -23.936 -13.583  0.00  0.00    +0.041 C 
ATOM      9  C   UNL     1      31.264 -24.411 -12.891  0.00  0.00    +0.119 C 
ATOM     10  C   UNL     1      34.139 -22.230 -17.453  0.00  0.00    +0.064 C 
ENDROOT
BRANCH   4  12
ATOM     11  O   UNL     1      26.574 -22.382 -16.573  0.00  0.00    -0.350 OA
ATOM     12  N   UNL     1      29.114 -22.848 -15.477  0.00  0.00    -0.300 N 
ATOM     13  C   UNL     1      28.321 -21.700 -15.034  0.00  0.00    +0.123 C 
ATOM     14  C   UNL     1      28.794 -23.328 -16.821  0.00  0.00    +0.123 C 
ATOM     15  C   UNL     1      26.839 -22.009 -15.218  0.00  0.00    +0.164 C 
ATOM     16  C   UNL     1      27.292 -23.567 -16.928  0.00  0.00    +0.164 C 
ENDBRANCH   4  12
BRANCH   6  18
ATOM     17  N   UNL     1      37.148 -23.071 -13.795  0.00  0.00    -0.248 NA
ATOM     18  C   UNL     1      35.030 -23.755 -14.741  0.00  0.00    +0.023 C 
ATOM     19  C   UNL     1      35.464 -25.075 -14.777  0.00  0.00    +0.001 C 
ATOM     20  C   UNL     1      35.902 -22.799 -14.245  0.00  0.00    +0.096 C 
ATOM     21  C   UNL     1      37.535 -24.365 -13.846  0.00  0.00    +0.062 C 
ATOM     22  C   UNL     1      36.739 -25.395 -14.322  0.00  0.00    +0.015 C 
BRANCH  21  23
ATOM     23  C   UNL     1      38.908 -24.672 -13.350  0.00  0.00    +0.078 C 
BRANCH  23  24
ATOM     24  C   UNL     1      39.915 -24.898 -14.483  0.00  0.00    +0.149 C 
BRANCH  24  25
ATOM     25  O   UNL     1      40.179 -26.289 -14.613  0.00  0.00    -0.351 OA
ATOM     26  C   UNL     1      40.950 -26.777 -13.525  0.00  0.00    +0.174 C 
ENDBRANCH  24  25
ENDBRANCH  23  24
ENDBRANCH  21  23
ENDBRANCH   6  18
TORSDOF 5
ENDMDL
MODEL 9
REMARK VINA RESULT:      -9.5      7.808     11.822
REMARK  Name = 51352628
REMARK  5 active torsions:
REMARK  status: ('A' for Active; 'I' for Inactive)
REMARK    1  A    between atoms: C_4  and  N_12
REMARK    2  A    between atoms: C_6  and  C_18
REMARK    3  A    between atoms: C_21  and  C_23
REMARK    4  A    between atoms: C_23  and  C_24
REMARK    5  A    between atoms: C_24  and  O_25
REMARK                            x       y       z     vdW  Elec       q    Type
REMARK                         _______ _______ _______ _____ _____    ______ ____
ROOT
ATOM      1  N   UNL     1      32.852 -13.279 -23.396  0.00  0.00    -0.175 N 
ATOM      2  N   UNL     1      33.312 -14.454 -21.560  0.00  0.00    -0.391 NA
ATOM      3  N   UNL     1      32.720 -12.943 -24.708  0.00  0.00    -0.174 NA
ATOM      4  C   UNL     1      33.722 -15.496 -23.795  0.00  0.00    +0.096 C 
ATOM      5  C   UNL     1      33.321 -14.476 -22.879  0.00  0.00    +0.215 C 
ATOM      6  C   UNL     1      32.534 -12.475 -22.334  0.00  0.00    +0.170 C 
ATOM      7  C   UNL     1      32.826 -13.219 -21.217  0.00  0.00    +0.113 C 
ATOM      8  C   UNL     1      33.614 -15.219 -25.108  0.00  0.00    +0.041 C 
ATOM      9  C   UNL     1      33.094 -13.891 -25.507  0.00  0.00    +0.119 C 
ATOM     10  C   UNL     1      32.678 -12.851 -19.799  0.00  0.00    +0.064 C 
ENDROOT
BRANCH   4  12
ATOM     11  O   UNL     1      34.600 -19.096 -21.952  0.00  0.00    -0.350 OA
ATOM     12  N   UNL     1      34.188 -16.691 -23.336  0.00  0.00    -0.300 N 
ATOM     13  C   UNL     1      33.816 -17.966 -23.951  0.00  0.00    +0.123 C 
ATOM     14  C   UNL     1      35.239 -16.786 -22.323  0.00  0.00    +0.123 C 
ATOM     15  C   UNL     1      33.499 -18.980 -22.857  0.00  0.00    +0.164 C 
ATOM     16  C   UNL     1      34.860 -17.850 -21.300  0.00  0.00    +0.164 C 
ENDBRANCH   4  12
BRANCH   6  18
ATOM     17  N   UNL     1      32.242  -8.903 -23.358  0.00  0.00    -0.248 NA
ATOM     18  C   UNL     1      32.008 -11.137 -22.462  0.00  0.00    +0.023 C 
ATOM     19  C   UNL     1      30.812 -10.775 -21.852  0.00  0.00    +0.001 C 
ATOM     20  C   UNL     1      32.678 -10.173 -23.198  0.00  0.00    +0.096 C 
ATOM     21  C   UNL     1      31.076  -8.588 -22.751  0.00  0.00    +0.062 C 
ATOM     22  C   UNL     1      30.330  -9.478 -21.994  0.00  0.00    +0.015 C 
BRANCH  21  23
ATOM     23  C   UNL     1      30.589  -7.188 -22.924  0.00  0.00    +0.078 C 
BRANCH  23  24
ATOM     24  C   UNL     1      30.809  -6.321 -21.680  0.00  0.00    +0.149 C 
BRANCH  24  25
ATOM     25  O   UNL     1      32.203  -6.176 -21.442  0.00  0.00    -0.351 OA
ATOM     26  C   UNL     1      32.536  -6.490 -20.097  0.00  0.00    +0.174 C 
ENDBRANCH  24  25
ENDBRANCH  23  24
ENDBRANCH  21  23
ENDBRANCH   6  18
TORSDOF 5
ENDMDL
