MODEL 1
REMARK VINA RESULT:     -11.4      0.000      0.000
REMARK  Name = 4640
REMARK  6 active torsions:
REMARK  status: ('A' for Active; 'I' for Inactive)
REMARK    1  A    between atoms: C_1  and  C_3
REMARK    2  A    between atoms: C_1  and  C_17
REMARK    3  A    between atoms: C_10  and  O_13
REMARK    4  A    between atoms: C_11  and  O_15
REMARK    5  A    between atoms: C_17  and  N_18
REMARK    6  A    between atoms: N_19  and  C_25
REMARK                            x       y       z     vdW  Elec       q    Type
REMARK                         _______ _______ _______ _____ _____    ______ ____
ROOT
ATOM      1  C   UNL     1      35.683 -21.097 -17.967  0.00  0.00    +0.005 C 
ENDROOT
BRANCH   1   3
ATOM      2  N   UNL     1      33.457 -23.254 -16.034  0.00  0.00    -0.357 N 
ATOM      3  C   UNL     1      35.001 -22.040 -17.022  0.00  0.00    -0.011 A 
ATOM      4  C   UNL     1      35.622 -22.724 -15.956  0.00  0.00    +0.016 A 
ATOM      5  C   UNL     1      33.680 -22.373 -17.057  0.00  0.00    +0.030 A 
ATOM      6  C   UNL     1      34.625 -23.487 -15.345  0.00  0.00    +0.059 A 
ATOM      7  C   UNL     1      36.932 -22.780 -15.441  0.00  0.00    +0.041 C 
ATOM      8  C   UNL     1      32.584 -21.955 -17.953  0.00  0.00    +0.049 C 
ATOM      9  C   UNL     1      34.873 -24.306 -14.238  0.00  0.00    +0.057 C 
ATOM     10  C   UNL     1      37.195 -23.595 -14.334  0.00  0.00    +0.172 C 
ATOM     11  C   UNL     1      36.180 -24.345 -13.743  0.00  0.00    +0.174 C 
ATOM     12  H   UNL     1      32.586 -23.661 -15.822  0.00  0.00    +0.166 HD
BRANCH  10  13
ATOM     13  O   UNL     1      38.465 -23.646 -13.838  0.00  0.00    -0.468 OA
ATOM     14  C   UNL     1      39.324 -24.654 -14.365  0.00  0.00    +0.253 C 
ENDBRANCH  10  13
BRANCH  11  15
ATOM     15  O   UNL     1      36.451 -25.137 -12.665  0.00  0.00    -0.468 OA
ATOM     16  C   UNL     1      36.139 -24.607 -11.379  0.00  0.00    +0.253 C 
ENDBRANCH  11  15
ENDBRANCH   1   3
BRANCH   1  17
ATOM     17  C   UNL     1      35.634 -21.593 -19.414  0.00  0.00    -0.072 C 
BRANCH  17  18
ATOM     18  N   UNL     1      35.443 -20.482 -20.345  0.00  0.00    +0.389 N 
ATOM     19  N   UNL     1      34.812 -17.804 -21.115  0.00  0.00    -0.312 N 
ATOM     20  C   UNL     1      36.362 -19.382 -20.030  0.00  0.00    -0.055 C 
ATOM     21  C   UNL     1      34.056 -20.002 -20.296  0.00  0.00    -0.055 C 
ATOM     22  C   UNL     1      36.210 -18.234 -21.032  0.00  0.00    +0.068 C 
ATOM     23  C   UNL     1      33.827 -18.876 -21.308  0.00  0.00    +0.068 C 
ATOM     24  H   UNL     1      35.642 -20.818 -21.287  0.00  0.00    -0.080 HD
BRANCH  19  25
ATOM     25  C   UNL     1      34.505 -16.532 -21.612  0.00  0.00    +0.048 C 
ATOM     26  C   UNL     1      34.524 -16.271 -22.997  0.00  0.00    +0.015 C 
ATOM     27  C   UNL     1      34.168 -15.475 -20.744  0.00  0.00    +0.015 C 
ATOM     28  C   UNL     1      34.217 -15.004 -23.494  0.00  0.00    +0.001 C 
ATOM     29  C   UNL     1      33.861 -14.208 -21.240  0.00  0.00    +0.001 C 
ATOM     30  C   UNL     1      33.886 -13.972 -22.615  0.00  0.00    +0.000 C 
ENDBRANCH  19  25
ENDBRANCH  17  18
ENDBRANCH   1  17
TORSDOF 6
ENDMDL
MODEL 2
REMARK VINA RESULT:     -11.3      2.734      5.532
REMARK  Name = 4640
REMARK  6 active torsions:
REMARK  status: ('A' for Active; 'I' for Inactive)
REMARK    1  A    between atoms: C_1  and  C_3
REMARK    2  A    between atoms: C_1  and  C_17
REMARK    3  A    between atoms: C_10  and  O_13
REMARK    4  A    between atoms: C_11  and  O_15
REMARK    5  A    between atoms: C_17  and  N_18
REMARK    6  A    between atoms: N_19  and  C_25
REMARK                            x       y       z     vdW  Elec       q    Type
REMARK                         _______ _______ _______ _____ _____    ______ ____
ROOT
ATOM      1  C   UNL     1      33.825 -18.572 -22.094  0.00  0.00    +0.005 C 
ENDROOT
BRANCH   1   3
ATOM      2  N   UNL     1      36.506 -19.809 -19.942  0.00  0.00    -0.357 N 
ATOM      3  C   UNL     1      34.721 -19.233 -21.089  0.00  0.00    -0.011 A 
ATOM      4  C   UNL     1      34.311 -20.167 -20.115  0.00  0.00    +0.016 A 
ATOM      5  C   UNL     1      36.063 -19.024 -20.972  0.00  0.00    +0.030 A 
ATOM      6  C   UNL     1      35.458 -20.518 -19.400  0.00  0.00    +0.059 A 
ATOM      7  C   UNL     1      33.082 -20.756 -19.759  0.00  0.00    +0.041 C 
ATOM      8  C   UNL     1      36.993 -18.160 -21.724  0.00  0.00    +0.049 C 
ATOM      9  C   UNL     1      35.438 -21.434 -18.343  0.00  0.00    +0.057 C 
ATOM     10  C   UNL     1      33.046 -21.675 -18.704  0.00  0.00    +0.172 C 
ATOM     11  C   UNL     1      34.207 -22.007 -18.008  0.00  0.00    +0.174 C 
ATOM     12  H   UNL     1      37.440 -19.859 -19.634  0.00  0.00    +0.166 HD
BRANCH  10  13
ATOM     13  O   UNL     1      31.854 -22.243 -18.363  0.00  0.00    -0.468 OA
ATOM     14  C   UNL     1      31.379 -22.004 -17.041  0.00  0.00    +0.253 C 
ENDBRANCH  10  13
BRANCH  11  15
ATOM     15  O   UNL     1      34.157 -22.903 -16.980  0.00  0.00    -0.468 OA
ATOM     16  C   UNL     1      34.750 -22.506 -15.746  0.00  0.00    +0.253 C 
ENDBRANCH  11  15
ENDBRANCH   1   3
BRANCH   1  17
ATOM     17  C   UNL     1      34.617 -17.895 -23.216  0.00  0.00    -0.072 C 
BRANCH  17  18
ATOM     18  N   UNL     1      34.485 -16.440 -23.149  0.00  0.00    +0.389 N 
ATOM     19  N   UNL     1      33.142 -13.963 -22.679  0.00  0.00    -0.312 N 
ATOM     20  C   UNL     1      34.167 -16.015 -21.780  0.00  0.00    -0.055 C 
ATOM     21  C   UNL     1      33.441 -15.974 -24.071  0.00  0.00    -0.055 C 
ATOM     22  C   UNL     1      34.081 -14.489 -21.684  0.00  0.00    +0.068 C 
ATOM     23  C   UNL     1      33.333 -14.448 -24.052  0.00  0.00    +0.068 C 
ATOM     24  H   UNL     1      35.376 -16.027 -23.424  0.00  0.00    -0.080 HD
BRANCH  19  25
ATOM     25  C   UNL     1      32.585 -12.691 -22.502  0.00  0.00    +0.048 C 
ATOM     26  C   UNL     1      31.661 -12.441 -21.468  0.00  0.00    +0.015 C 
ATOM     27  C   UNL     1      32.930 -11.623 -23.354  0.00  0.00    +0.015 C 
ATOM     28  C   UNL     1      31.106 -11.174 -21.292  0.00  0.00    +0.001 C 
ATOM     29  C   UNL     1      32.375 -10.355 -23.178  0.00  0.00    +0.001 C 
ATOM     30  C   UNL     1      31.463 -10.131 -22.147  0.00  0.00    +0.000 C 
ENDBRANCH  19  25
ENDBRANCH  17  18
ENDBRANCH   1  17
TORSDOF 6
ENDMDL
MODEL 3
REMARK VINA RESULT:     -11.2      1.558      2.283
REMARK  Name = 4640
REMARK  6 active torsions:
REMARK  status: ('A' for Active; 'I' for Inactive)
REMARK    1  A    between atoms: C_1  and  C_3
REMARK    2  A    between atoms: C_1  and  C_17
REMARK    3  A    between atoms: C_10  and  O_13
REMARK    4  A    between atoms: C_11  and  O_15
REMARK    5  A    between atoms: C_17  and  N_18
REMARK    6  A    between atoms: N_19  and  C_25
REMARK                            x       y       z     vdW  Elec       q    Type
REMARK                         _______ _______ _______ _____ _____    ______ ____
ROOT
ATOM      1  C   UNL     1      33.300 -22.980 -17.511  0.00  0.00    +0.005 C 
ENDROOT
BRANCH   1   3
ATOM      2  N   UNL     1      31.794 -23.091 -14.184  0.00  0.00    -0.357 N 
ATOM      3  C   UNL     1      32.936 -23.116 -16.062  0.00  0.00    -0.011 A 
ATOM      4  C   UNL     1      33.803 -23.551 -15.038  0.00  0.00    +0.016 A 
ATOM      5  C   UNL     1      31.714 -22.839 -15.527  0.00  0.00    +0.030 A 
ATOM      6  C   UNL     1      33.058 -23.527 -13.857  0.00  0.00    +0.059 A 
ATOM      7  C   UNL     1      35.148 -23.965 -14.984  0.00  0.00    +0.041 C 
ATOM      8  C   UNL     1      30.459 -22.358 -16.137  0.00  0.00    +0.049 C 
ATOM      9  C   UNL     1      33.593 -23.898 -12.619  0.00  0.00    +0.057 C 
ATOM     10  C   UNL     1      35.697 -24.339 -13.752  0.00  0.00    +0.172 C 
ATOM     11  C   UNL     1      34.930 -24.306 -12.589  0.00  0.00    +0.174 C 
ATOM     12  H   UNL     1      31.054 -22.977 -13.545  0.00  0.00    +0.166 HD
BRANCH  10  13
ATOM     13  O   UNL     1      37.001 -24.741 -13.705  0.00  0.00    -0.468 OA
ATOM     14  C   UNL     1      37.291 -26.049 -14.189  0.00  0.00    +0.253 C 
ENDBRANCH  10  13
BRANCH  11  15
ATOM     15  O   UNL     1      35.479 -24.675 -11.395  0.00  0.00    -0.468 OA
ATOM     16  C   UNL     1      35.535 -23.681 -10.375  0.00  0.00    +0.253 C 
ENDBRANCH  11  15
ENDBRANCH   1   3
BRANCH   1  17
ATOM     17  C   UNL     1      34.548 -22.118 -17.715  0.00  0.00    -0.072 C 
BRANCH  17  18
ATOM     18  N   UNL     1      34.531 -21.468 -19.025  0.00  0.00    +0.389 N 
ATOM     19  N   UNL     1      34.425 -19.266 -20.842  0.00  0.00    -0.312 N 
ATOM     20  C   UNL     1      35.679 -20.565 -19.166  0.00  0.00    -0.055 C 
ATOM     21  C   UNL     1      33.282 -20.719 -19.212  0.00  0.00    -0.055 C 
ATOM     22  C   UNL     1      35.705 -19.920 -20.555  0.00  0.00    +0.068 C 
ATOM     23  C   UNL     1      33.227 -20.081 -20.602  0.00  0.00    +0.068 C 
ATOM     24  H   UNL     1      34.591 -22.192 -19.740  0.00  0.00    -0.080 HD
BRANCH  19  25
ATOM     25  C   UNL     1      34.358 -18.272 -21.825  0.00  0.00    +0.048 C 
ATOM     26  C   UNL     1      34.742 -16.947 -21.544  0.00  0.00    +0.015 C 
ATOM     27  C   UNL     1      33.904 -18.569 -23.125  0.00  0.00    +0.015 C 
ATOM     28  C   UNL     1      34.677 -15.956 -22.525  0.00  0.00    +0.001 C 
ATOM     29  C   UNL     1      33.838 -17.579 -24.107  0.00  0.00    +0.001 C 
ATOM     30  C   UNL     1      34.224 -16.273 -23.806  0.00  0.00    +0.000 C 
ENDBRANCH  19  25
ENDBRANCH  17  18
ENDBRANCH   1  17
TORSDOF 6
ENDMDL
MODEL 4
REMARK VINA RESULT:     -11.1      1.777      2.454
REMARK  Name = 4640
REMARK  6 active torsions:
REMARK  status: ('A' for Active; 'I' for Inactive)
REMARK    1  A    between atoms: C_1  and  C_3
REMARK    2  A    between atoms: C_1  and  C_17
REMARK    3  A    between atoms: C_10  and  O_13
REMARK    4  A    between atoms: C_11  and  O_15
REMARK    5  A    between atoms: C_17  and  N_18
REMARK    6  A    between atoms: N_19  and  C_25
REMARK                            x       y       z     vdW  Elec       q    Type
REMARK                         _______ _______ _______ _____ _____    ______ ____
ROOT
ATOM      1  C   UNL     1      32.271 -22.351 -17.165  0.00  0.00    +0.005 C 
ENDROOT
BRANCH   1   3
ATOM      2  N   UNL     1      31.649 -23.668 -13.814  0.00  0.00    -0.357 N 
ATOM      3  C   UNL     1      32.294 -22.857 -15.753  0.00  0.00    -0.011 A 
ATOM      4  C   UNL     1      33.440 -22.956 -14.938  0.00  0.00    +0.016 A 
ATOM      5  C   UNL     1      31.208 -23.294 -15.055  0.00  0.00    +0.030 A 
ATOM      6  C   UNL     1      33.008 -23.472 -13.715  0.00  0.00    +0.059 A 
ATOM      7  C   UNL     1      34.808 -22.663 -15.106  0.00  0.00    +0.041 C 
ATOM      8  C   UNL     1      29.783 -23.406 -15.421  0.00  0.00    +0.049 C 
ATOM      9  C   UNL     1      33.879 -23.710 -12.645  0.00  0.00    +0.057 C 
ATOM     10  C   UNL     1      35.691 -22.896 -14.045  0.00  0.00    +0.172 C 
ATOM     11  C   UNL     1      35.231 -23.411 -12.835  0.00  0.00    +0.174 C 
ATOM     12  H   UNL     1      31.077 -24.024 -13.097  0.00  0.00    +0.166 HD
BRANCH  10  13
ATOM     13  O   UNL     1      37.014 -22.610 -14.213  0.00  0.00    -0.468 OA
ATOM     14  C   UNL     1      37.461 -22.378 -15.546  0.00  0.00    +0.253 C 
ENDBRANCH  10  13
BRANCH  11  15
ATOM     15  O   UNL     1      36.104 -23.634 -11.809  0.00  0.00    -0.468 OA
ATOM     16  C   UNL     1      35.549 -23.749 -10.501  0.00  0.00    +0.253 C 
ENDBRANCH  11  15
ENDBRANCH   1   3
BRANCH   1  17
ATOM     17  C   UNL     1      33.539 -22.729 -17.935  0.00  0.00    -0.072 C 
BRANCH  17  18
ATOM     18  N   UNL     1      33.680 -21.921 -19.145  0.00  0.00    +0.389 N 
ATOM     19  N   UNL     1      34.051 -19.520 -20.649  0.00  0.00    -0.312 N 
ATOM     20  C   UNL     1      34.987 -21.252 -19.167  0.00  0.00    -0.055 C 
ATOM     21  C   UNL     1      32.607 -20.921 -19.226  0.00  0.00    -0.055 C 
ATOM     22  C   UNL     1      35.171 -20.446 -20.457  0.00  0.00    +0.068 C 
ATOM     23  C   UNL     1      32.711 -20.106 -20.517  0.00  0.00    +0.068 C 
ATOM     24  H   UNL     1      33.614 -22.541 -19.952  0.00  0.00    -0.080 HD
BRANCH  19  25
ATOM     25  C   UNL     1      34.204 -18.411 -21.489  0.00  0.00    +0.048 C 
ATOM     26  C   UNL     1      33.987 -18.518 -22.877  0.00  0.00    +0.015 C 
ATOM     27  C   UNL     1      34.580 -17.156 -20.973  0.00  0.00    +0.015 C 
ATOM     28  C   UNL     1      34.139 -17.413 -23.715  0.00  0.00    +0.001 C 
ATOM     29  C   UNL     1      34.732 -16.050 -21.810  0.00  0.00    +0.001 C 
ATOM     30  C   UNL     1      34.512 -16.179 -23.181  0.00  0.00    +0.000 C 
ENDBRANCH  19  25
ENDBRANCH  17  18
ENDBRANCH   1  17
TORSDOF 6
ENDMDL
MODEL 5
REMARK VINA RESULT:     -11.1      2.488      3.875
REMARK  Name = 4640
REMARK  6 active torsions:
REMARK  status: ('A' for Active; 'I' for Inactive)
REMARK    1  A    between atoms: C_1  and  C_3
REMARK    2  A    between atoms: C_1  and  C_17
REMARK    3  A    between atoms: C_10  and  O_13
REMARK    4  A    between atoms: C_11  and  O_15
REMARK    5  A    between atoms: C_17  and  N_18
REMARK    6  A    between atoms: N_19  and  C_25
REMARK                            x       y       z     vdW  Elec       q    Type
REMARK                         _______ _______ _______ _____ _____    ______ ____
ROOT
ATOM      1  C   UNL     1      34.487 -21.690 -18.498  0.00  0.00    +0.005 C 
ENDROOT
BRANCH   1   3
ATOM      2  N   UNL     1      35.268 -22.626 -15.054  0.00  0.00    -0.357 N 
ATOM      3  C   UNL     1      34.534 -22.146 -17.069  0.00  0.00    -0.011 A 
ATOM      4  C   UNL     1      33.443 -22.657 -16.337  0.00  0.00    +0.016 A 
ATOM      5  C   UNL     1      35.641 -22.133 -16.275  0.00  0.00    +0.030 A 
ATOM      6  C   UNL     1      33.931 -22.953 -15.062  0.00  0.00    +0.059 A 
ATOM      7  C   UNL     1      32.084 -22.900 -16.617  0.00  0.00    +0.041 C 
ATOM      8  C   UNL     1      37.031 -21.706 -16.530  0.00  0.00    +0.049 C 
ATOM      9  C   UNL     1      33.124 -23.485 -14.050  0.00  0.00    +0.057 C 
ATOM     10  C   UNL     1      31.265 -23.431 -15.614  0.00  0.00    +0.172 C 
ATOM     11  C   UNL     1      31.779 -23.718 -14.351  0.00  0.00    +0.174 C 
ATOM     12  H   UNL     1      35.869 -22.731 -14.281  0.00  0.00    +0.166 HD
BRANCH  10  13
ATOM     13  O   UNL     1      29.950 -23.665 -15.891  0.00  0.00    -0.468 OA
ATOM     14  C   UNL     1      29.138 -22.528 -16.173  0.00  0.00    +0.253 C 
ENDBRANCH  10  13
BRANCH  11  15
ATOM     15  O   UNL     1      30.969 -24.235 -13.382  0.00  0.00    -0.468 OA
ATOM     16  C   UNL     1      30.225 -23.306 -12.597  0.00  0.00    +0.253 C 
ENDBRANCH  11  15
ENDBRANCH   1   3
BRANCH   1  17
ATOM     17  C   UNL     1      35.773 -20.975 -18.918  0.00  0.00    -0.072 C 
BRANCH  17  18
ATOM     18  N   UNL     1      35.574 -20.213 -20.150  0.00  0.00    +0.389 N 
ATOM     19  N   UNL     1      34.784 -17.964 -21.726  0.00  0.00    -0.312 N 
ATOM     20  C   UNL     1      36.358 -18.973 -20.121  0.00  0.00    -0.055 C 
ATOM     21  C   UNL     1      34.151 -19.899 -20.336  0.00  0.00    -0.055 C 
ATOM     22  C   UNL     1      36.202 -18.192 -21.428  0.00  0.00    +0.068 C 
ATOM     23  C   UNL     1      33.921 -19.150 -21.651  0.00  0.00    +0.068 C 
ATOM     24  H   UNL     1      35.890 -20.785 -20.933  0.00  0.00    -0.080 HD
BRANCH  19  25
ATOM     25  C   UNL     1      34.415 -16.936 -22.600  0.00  0.00    +0.048 C 
ATOM     26  C   UNL     1      34.471 -15.587 -22.198  0.00  0.00    +0.015 C 
ATOM     27  C   UNL     1      33.975 -17.219 -23.908  0.00  0.00    +0.015 C 
ATOM     28  C   UNL     1      34.103 -14.561 -23.070  0.00  0.00    +0.001 C 
ATOM     29  C   UNL     1      33.607 -16.195 -24.781  0.00  0.00    +0.001 C 
ATOM     30  C   UNL     1      33.671 -14.866 -24.361  0.00  0.00    +0.000 C 
ENDBRANCH  19  25
ENDBRANCH  17  18
ENDBRANCH   1  17
TORSDOF 6
ENDMDL
MODEL 6
REMARK VINA RESULT:     -11.0      6.615     10.628
REMARK  Name = 4640
REMARK  6 active torsions:
REMARK  status: ('A' for Active; 'I' for Inactive)
REMARK    1  A    between atoms: C_1  and  C_3
REMARK    2  A    between atoms: C_1  and  C_17
REMARK    3  A    between atoms: C_10  and  O_13
REMARK    4  A    between atoms: C_11  and  O_15
REMARK    5  A    between atoms: C_17  and  N_18
REMARK    6  A    between atoms: N_19  and  C_25
REMARK                            x       y       z     vdW  Elec       q    Type
REMARK                         _______ _______ _______ _____ _____    ______ ____
ROOT
ATOM      1  C   UNL     1      33.626 -12.784 -22.420  0.00  0.00    +0.005 C 
ENDROOT
BRANCH   1   3
ATOM      2  N   UNL     1      33.120 -15.169 -25.141  0.00  0.00    -0.357 N 
ATOM      3  C   UNL     1      33.520 -13.954 -23.354  0.00  0.00    -0.011 A 
ATOM      4  C   UNL     1      33.884 -15.281 -23.048  0.00  0.00    +0.016 A 
ATOM      5  C   UNL     1      33.055 -13.900 -24.633  0.00  0.00    +0.030 A 
ATOM      6  C   UNL     1      33.623 -16.033 -24.195  0.00  0.00    +0.059 A 
ATOM      7  C   UNL     1      34.412 -15.931 -21.915  0.00  0.00    +0.041 C 
ATOM      8  C   UNL     1      32.550 -12.779 -25.451  0.00  0.00    +0.049 C 
ATOM      9  C   UNL     1      33.863 -17.410 -24.266  0.00  0.00    +0.057 C 
ATOM     10  C   UNL     1      34.658 -17.308 -21.971  0.00  0.00    +0.172 C 
ATOM     11  C   UNL     1      34.387 -18.034 -23.130  0.00  0.00    +0.174 C 
ATOM     12  H   UNL     1      32.847 -15.427 -26.051  0.00  0.00    +0.166 HD
BRANCH  10  13
ATOM     13  O   UNL     1      35.169 -17.933 -20.872  0.00  0.00    -0.468 OA
ATOM     14  C   UNL     1      36.523 -18.372 -20.950  0.00  0.00    +0.253 C 
ENDBRANCH  10  13
BRANCH  11  15
ATOM     15  O   UNL     1      34.632 -19.376 -23.171  0.00  0.00    -0.468 OA
ATOM     16  C   UNL     1      34.470 -20.025 -24.429  0.00  0.00    +0.253 C 
ENDBRANCH  11  15
ENDBRANCH   1   3
BRANCH   1  17
ATOM     17  C   UNL     1      32.404 -12.663 -21.505  0.00  0.00    -0.072 C 
BRANCH  17  18
ATOM     18  N   UNL     1      31.718 -11.389 -21.710  0.00  0.00    +0.389 N 
ATOM     19  N   UNL     1      31.420  -8.548 -21.647  0.00  0.00    -0.312 N 
ATOM     20  C   UNL     1      32.473 -10.541 -22.640  0.00  0.00    -0.055 C 
ATOM     21  C   UNL     1      31.538 -10.689 -20.432  0.00  0.00    -0.055 C 
ATOM     22  C   UNL     1      31.737  -9.225 -22.908  0.00  0.00    +0.068 C 
ATOM     23  C   UNL     1      30.770  -9.379 -20.625  0.00  0.00    +0.068 C 
ATOM     24  H   UNL     1      30.800 -11.582 -22.111  0.00  0.00    -0.080 HD
BRANCH  19  25
ATOM     25  C   UNL     1      31.151  -7.174 -21.645  0.00  0.00    +0.048 C 
ATOM     26  C   UNL     1      30.505  -6.561 -22.737  0.00  0.00    +0.015 C 
ATOM     27  C   UNL     1      31.519  -6.365 -20.553  0.00  0.00    +0.015 C 
ATOM     28  C   UNL     1      30.236  -5.191 -22.735  0.00  0.00    +0.001 C 
ATOM     29  C   UNL     1      31.250  -4.995 -20.551  0.00  0.00    +0.001 C 
ATOM     30  C   UNL     1      30.609  -4.409 -21.642  0.00  0.00    +0.000 C 
ENDBRANCH  19  25
ENDBRANCH  17  18
ENDBRANCH   1  17
TORSDOF 6
ENDMDL
MODEL 7
REMARK VINA RESULT:     -11.0      8.833     14.801
REMARK  Name = 4640
REMARK  6 active torsions:
REMARK  status: ('A' for Active; 'I' for Inactive)
REMARK    1  A    between atoms: C_1  and  C_3
REMARK    2  A    between atoms: C_1  and  C_17
REMARK    3  A    between atoms: C_10  and  O_13
REMARK    4  A    between atoms: C_11  and  O_15
REMARK    5  A    between atoms: C_17  and  N_18
REMARK    6  A    between atoms: N_19  and  C_25
REMARK                            x       y       z     vdW  Elec       q    Type
REMARK                         _______ _______ _______ _____ _____    ______ ____
ROOT
ATOM      1  C   UNL     1      30.877  -9.938 -21.873  0.00  0.00    +0.005 C 
ENDROOT
BRANCH   1   3
ATOM      2  N   UNL     1      31.621  -7.243 -19.521  0.00  0.00    -0.357 N 
ATOM      3  C   UNL     1      31.156  -8.663 -21.133  0.00  0.00    -0.011 A 
ATOM      4  C   UNL     1      31.179  -7.374 -21.704  0.00  0.00    +0.016 A 
ATOM      5  C   UNL     1      31.426  -8.569 -19.801  0.00  0.00    +0.030 A 
ATOM      6  C   UNL     1      31.476  -6.490 -20.664  0.00  0.00    +0.059 A 
ATOM      7  C   UNL     1      30.981  -6.856 -22.999  0.00  0.00    +0.041 C 
ATOM      8  C   UNL     1      31.527  -9.592 -18.743  0.00  0.00    +0.049 C 
ATOM      9  C   UNL     1      31.583  -5.108 -20.855  0.00  0.00    +0.057 C 
ATOM     10  C   UNL     1      31.085  -5.476 -23.205  0.00  0.00    +0.172 C 
ATOM     11  C   UNL     1      31.382  -4.617 -22.148  0.00  0.00    +0.174 C 
ATOM     12  H   UNL     1      31.833  -6.881 -18.630  0.00  0.00    +0.166 HD
BRANCH  10  13
ATOM     13  O   UNL     1      30.892  -4.979 -24.461  0.00  0.00    -0.468 OA
ATOM     14  C   UNL     1      31.590  -5.623 -25.524  0.00  0.00    +0.253 C 
ENDBRANCH  10  13
BRANCH  11  15
ATOM     15  O   UNL     1      31.482  -3.273 -22.364  0.00  0.00    -0.468 OA
ATOM     16  C   UNL     1      30.282  -2.511 -22.266  0.00  0.00    +0.253 C 
ENDBRANCH  11  15
ENDBRANCH   1   3
BRANCH   1  17
ATOM     17  C   UNL     1      32.091 -10.419 -22.672  0.00  0.00    -0.072 C 
BRANCH  17  18
ATOM     18  N   UNL     1      32.203 -11.876 -22.632  0.00  0.00    +0.389 N 
ATOM     19  N   UNL     1      33.558 -14.382 -22.416  0.00  0.00    -0.312 N 
ATOM     20  C   UNL     1      32.753 -12.315 -21.344  0.00  0.00    -0.055 C 
ATOM     21  C   UNL     1      33.056 -12.357 -23.727  0.00  0.00    -0.055 C 
ATOM     22  C   UNL     1      32.823 -13.843 -21.268  0.00  0.00    +0.068 C 
ATOM     23  C   UNL     1      33.135 -13.886 -23.731  0.00  0.00    +0.068 C 
ATOM     24  H   UNL     1      31.270 -12.270 -22.744  0.00  0.00    -0.080 HD
BRANCH  19  25
ATOM     25  C   UNL     1      34.113 -15.665 -22.344  0.00  0.00    +0.048 C 
ATOM     26  C   UNL     1      34.572 -16.190 -21.120  0.00  0.00    +0.015 C 
ATOM     27  C   UNL     1      34.229 -16.470 -23.495  0.00  0.00    +0.015 C 
ATOM     28  C   UNL     1      35.125 -17.469 -21.049  0.00  0.00    +0.001 C 
ATOM     29  C   UNL     1      34.781 -17.749 -23.424  0.00  0.00    +0.001 C 
ATOM     30  C   UNL     1      35.229 -18.248 -22.201  0.00  0.00    +0.000 C 
ENDBRANCH  19  25
ENDBRANCH  17  18
ENDBRANCH   1  17
TORSDOF 6
ENDMDL
MODEL 8
REMARK VINA RESULT:     -10.7      2.496      3.771
REMARK  Name = 4640
REMARK  6 active torsions:
REMARK  status: ('A' for Active; 'I' for Inactive)
REMARK    1  A    between atoms: C_1  and  C_3
REMARK    2  A    between atoms: C_1  and  C_17
REMARK    3  A    between atoms: C_10  and  O_13
REMARK    4  A    between atoms: C_11  and  O_15
REMARK    5  A    between atoms: C_17  and  N_18
REMARK    6  A    between atoms: N_19  and  C_25
REMARK                            x       y       z     vdW  Elec       q    Type
REMARK                         _______ _______ _______ _____ _____    ______ ____
ROOT
ATOM      1  C   UNL     1      35.351 -21.711 -17.227  0.00  0.00    +0.005 C 
ENDROOT
BRANCH   1   3
ATOM      2  N   UNL     1      35.675 -23.505 -14.060  0.00  0.00    -0.357 N 
ATOM      3  C   UNL     1      35.203 -22.423 -15.914  0.00  0.00    -0.011 A 
ATOM      4  C   UNL     1      33.984 -22.659 -15.245  0.00  0.00    +0.016 A 
ATOM      5  C   UNL     1      36.226 -22.945 -15.181  0.00  0.00    +0.030 A 
ATOM      6  C   UNL     1      34.308 -23.345 -14.072  0.00  0.00    +0.059 A 
ATOM      7  C   UNL     1      32.633 -22.362 -15.506  0.00  0.00    +0.041 C 
ATOM      8  C   UNL     1      37.683 -22.980 -15.411  0.00  0.00    +0.049 C 
ATOM      9  C   UNL     1      33.343 -23.752 -13.145  0.00  0.00    +0.057 C 
ATOM     10  C   UNL     1      31.656 -22.762 -14.587  0.00  0.00    +0.172 C 
ATOM     11  C   UNL     1      32.008 -23.447 -13.425  0.00  0.00    +0.174 C 
ATOM     12  H   UNL     1      36.184 -23.957 -13.349  0.00  0.00    +0.166 HD
BRANCH  10  13
ATOM     13  O   UNL     1      30.348 -22.472 -14.845  0.00  0.00    -0.468 OA
ATOM     14  C   UNL     1      29.929 -22.534 -16.206  0.00  0.00    +0.253 C 
ENDBRANCH  10  13
BRANCH  11  15
ATOM     15  O   UNL     1      31.045 -23.830 -12.537  0.00  0.00    -0.468 OA
ATOM     16  C   UNL     1      30.070 -24.760 -13.002  0.00  0.00    +0.253 C 
ENDBRANCH  11  15
ENDBRANCH   1   3
BRANCH   1  17
ATOM     17  C   UNL     1      34.367 -22.229 -18.278  0.00  0.00    -0.072 C 
BRANCH  17  18
ATOM     18  N   UNL     1      34.393 -21.394 -19.479  0.00  0.00    +0.389 N 
ATOM     19  N   UNL     1      34.373 -18.948 -20.955  0.00  0.00    -0.312 N 
ATOM     20  C   UNL     1      35.562 -20.507 -19.464  0.00  0.00    -0.055 C 
ATOM     21  C   UNL     1      33.164 -20.597 -19.579  0.00  0.00    -0.055 C 
ATOM     22  C   UNL     1      35.632 -19.667 -20.742  0.00  0.00    +0.068 C 
ATOM     23  C   UNL     1      33.153 -19.761 -20.861  0.00  0.00    +0.068 C 
ATOM     24  H   UNL     1      34.454 -22.007 -20.291  0.00  0.00    -0.080 HD
BRANCH  19  25
ATOM     25  C   UNL     1      34.349 -17.820 -21.784  0.00  0.00    +0.048 C 
ATOM     26  C   UNL     1      34.168 -17.947 -23.175  0.00  0.00    +0.015 C 
ATOM     27  C   UNL     1      34.506 -16.526 -21.252  0.00  0.00    +0.015 C 
ATOM     28  C   UNL     1      34.143 -16.823 -24.002  0.00  0.00    +0.001 C 
ATOM     29  C   UNL     1      34.481 -15.401 -22.077  0.00  0.00    +0.001 C 
ATOM     30  C   UNL     1      34.300 -15.550 -23.452  0.00  0.00    +0.000 C 
ENDBRANCH  19  25
ENDBRANCH  17  18
ENDBRANCH   1  17
TORSDOF 6
ENDMDL
MODEL 9
REMARK VINA RESULT:     -10.1      8.492     14.396
REMARK  Name = 4640
REMARK  6 active torsions:
REMARK  status: ('A' for Active; 'I' for Inactive)
REMARK    1  A    between atoms: C_1  and  C_3
REMARK    2  A    between atoms: C_1  and  C_17
REMARK    3  A    between atoms: C_10  and  O_13
REMARK    4  A    between atoms: C_11  and  O_15
REMARK    5  A    between atoms: C_17  and  N_18
REMARK    6  A    between atoms: N_19  and  C_25
REMARK                            x       y       z     vdW  Elec       q    Type
REMARK                         _______ _______ _______ _____ _____    ______ ____
ROOT
ATOM      1  C   UNL     1      33.362 -10.471 -23.272  0.00  0.00    +0.005 C 
ENDROOT
BRANCH   1   3
ATOM      2  N   UNL     1      30.404  -8.903 -21.810  0.00  0.00    -0.357 N 
ATOM      3  C   UNL     1      32.225  -9.601 -22.823  0.00  0.00    -0.011 A 
ATOM      4  C   UNL     1      32.004  -8.269 -23.230  0.00  0.00    +0.016 A 
ATOM      5  C   UNL     1      31.242  -9.975 -21.957  0.00  0.00    +0.030 A 
ATOM      6  C   UNL     1      30.846  -7.847 -22.575  0.00  0.00    +0.059 A 
ATOM      7  C   UNL     1      32.666  -7.369 -24.087  0.00  0.00    +0.041 C 
ATOM      8  C   UNL     1      30.991 -11.240 -21.239  0.00  0.00    +0.049 C 
ATOM      9  C   UNL     1      30.312  -6.563 -22.737  0.00  0.00    +0.057 C 
ATOM     10  C   UNL     1      32.145  -6.082 -24.258  0.00  0.00    +0.172 C 
ATOM     11  C   UNL     1      30.986  -5.687 -23.592  0.00  0.00    +0.174 C 
ATOM     12  H   UNL     1      29.602  -8.889 -21.239  0.00  0.00    +0.166 HD
BRANCH  10  13
ATOM     13  O   UNL     1      32.790  -5.213 -25.090  0.00  0.00    -0.468 OA
ATOM     14  C   UNL     1      34.053  -4.719 -24.653  0.00  0.00    +0.253 C 
ENDBRANCH  10  13
BRANCH  11  15
ATOM     15  O   UNL     1      30.489  -4.428 -23.768  0.00  0.00    -0.468 OA
ATOM     16  C   UNL     1      30.655  -3.510 -22.690  0.00  0.00    +0.253 C 
ENDBRANCH  11  15
ENDBRANCH   1   3
BRANCH   1  17
ATOM     17  C   UNL     1      32.931 -11.480 -24.338  0.00  0.00    -0.072 C 
BRANCH  17  18
ATOM     18  N   UNL     1      32.881 -12.836 -23.791  0.00  0.00    +0.389 N 
ATOM     19  N   UNL     1      33.929 -15.389 -23.052  0.00  0.00    -0.312 N 
ATOM     20  C   UNL     1      33.792 -12.962 -22.647  0.00  0.00    -0.055 C 
ATOM     21  C   UNL     1      33.236 -13.820 -24.822  0.00  0.00    -0.055 C 
ATOM     22  C   UNL     1      33.708 -14.361 -22.030  0.00  0.00    +0.068 C 
ATOM     23  C   UNL     1      33.132 -15.247 -24.277  0.00  0.00    +0.068 C 
ATOM     24  H   UNL     1      31.929 -13.017 -23.476  0.00  0.00    -0.080 HD
BRANCH  19  25
ATOM     25  C   UNL     1      34.321 -16.676 -22.668  0.00  0.00    +0.048 C 
ATOM     26  C   UNL     1      34.055 -17.790 -23.489  0.00  0.00    +0.015 C 
ATOM     27  C   UNL     1      34.993 -16.897 -21.450  0.00  0.00    +0.015 C 
ATOM     28  C   UNL     1      34.447 -19.074 -23.107  0.00  0.00    +0.001 C 
ATOM     29  C   UNL     1      35.385 -18.180 -21.068  0.00  0.00    +0.001 C 
ATOM     30  C   UNL     1      35.112 -19.268 -21.896  0.00  0.00    +0.000 C 
ENDBRANCH  19  25
ENDBRANCH  17  18
ENDBRANCH   1  17
TORSDOF 6
ENDMDL
