MODEL 1
REMARK VINA RESULT:     -11.6      0.000      0.000
REMARK  Name = 9869229
REMARK  8 active torsions:
REMARK  status: ('A' for Active; 'I' for Inactive)
REMARK    1  A    between atoms: N_1  and  C_23
REMARK    2  A    between atoms: C_7  and  C_13
REMARK    3  A    between atoms: N_12  and  S_15
REMARK    4  A    between atoms: S_15  and  C_18
REMARK    5  A    between atoms: C_18  and  C_19
REMARK    6  A    between atoms: C_19  and  C_20
REMARK    7  A    between atoms: C_20  and  C_21
REMARK    8  A    between atoms: C_23  and  C_26
REMARK                            x       y       z     vdW  Elec       q    Type
REMARK                         _______ _______ _______ _____ _____    ______ ____
ROOT
ATOM      1  N   UNL     1      33.957 -14.884 -23.688  0.00  0.00    -0.260 N 
ATOM      2  N   UNL     1      32.961 -16.002 -25.330  0.00  0.00    -0.394 NA
ATOM      3  C   UNL     1      34.054 -16.207 -23.340  0.00  0.00    +0.080 C 
ATOM      4  C   UNL     1      33.425 -16.885 -24.382  0.00  0.00    +0.128 C 
ATOM      5  C   UNL     1      33.297 -14.813 -24.883  0.00  0.00    +0.164 C 
ATOM      6  C   UNL     1      34.620 -16.850 -22.240  0.00  0.00    +0.021 C 
ATOM      7  C   UNL     1      34.522 -18.231 -22.235  0.00  0.00    +0.052 C 
ATOM      8  C   UNL     1      33.347 -18.287 -24.339  0.00  0.00    +0.086 C 
ATOM      9  C   UNL     1      33.909 -18.954 -23.242  0.00  0.00    -0.014 C 
ATOM     10  C   UNL     1      33.018 -13.525 -25.552  0.00  0.00    +0.084 C 
ENDROOT
BRANCH   7  13
ATOM     11  O   UNL     1      36.125 -18.575 -20.540  0.00  0.00    -0.269 OA
ATOM     12  N   UNL     1      34.404 -20.158 -20.699  0.00  0.00    -0.185 N 
ATOM     13  C   UNL     1      35.105 -18.974 -21.090  0.00  0.00    +0.264 C 
ATOM     14  H   UNL     1      33.594 -20.399 -21.205  0.00  0.00    +0.176 HD
BRANCH  12  15
ATOM     15  S   UNL     1      34.873 -21.187 -19.410  0.00  0.00    +0.056 S 
ATOM     16  O   UNL     1      35.170 -22.514 -19.922  0.00  0.00    -0.154 OA
ATOM     17  O   UNL     1      35.839 -20.480 -18.587  0.00  0.00    -0.154 OA
BRANCH  15  18
ATOM     18  C   UNL     1      33.353 -21.263 -18.515  0.00  0.00    +0.172 C 
BRANCH  18  19
ATOM     19  C   UNL     1      33.138 -22.642 -17.909  0.00  0.00    +0.027 C 
BRANCH  19  20
ATOM     20  C   UNL     1      33.644 -22.757 -16.471  0.00  0.00    +0.002 C 
BRANCH  20  21
ATOM     21  C   UNL     1      32.521 -22.886 -15.441  0.00  0.00    +0.000 C 
ATOM     22  C   UNL     1      31.152 -22.798 -16.100  0.00  0.00    +0.000 C 
ENDBRANCH  20  21
ENDBRANCH  19  20
ENDBRANCH  18  19
ENDBRANCH  15  18
ENDBRANCH  12  15
ENDBRANCH   7  13
BRANCH   1  23
ATOM     23  C   UNL     1      34.464 -13.768 -22.923  0.00  0.00    +0.125 C 
BRANCH  23  26
ATOM     24 CL   UNL     1      33.160 -14.574 -20.249  0.00  0.00    -0.082 Cl
ATOM     25 CL   UNL     1      30.013 -10.261 -20.934  0.00  0.00    -0.082 Cl
ATOM     26  C   UNL     1      33.345 -12.908 -22.398  0.00  0.00    +0.009 C 
ATOM     27  C   UNL     1      32.708 -13.207 -21.200  0.00  0.00    +0.056 C 
ATOM     28  C   UNL     1      32.965 -11.802 -23.149  0.00  0.00    -0.001 C 
ATOM     29  C   UNL     1      31.675 -12.386 -20.746  0.00  0.00    +0.023 C 
ATOM     30  C   UNL     1      31.933 -10.983 -22.695  0.00  0.00    +0.011 C 
ATOM     31  C   UNL     1      31.288 -11.274 -21.493  0.00  0.00    +0.058 C 
ENDBRANCH  23  26
ENDBRANCH   1  23
TORSDOF 8
ENDMDL
MODEL 2
REMARK VINA RESULT:     -11.5      4.778     10.966
REMARK  Name = 9869229
REMARK  8 active torsions:
REMARK  status: ('A' for Active; 'I' for Inactive)
REMARK    1  A    between atoms: N_1  and  C_23
REMARK    2  A    between atoms: C_7  and  C_13
REMARK    3  A    between atoms: N_12  and  S_15
REMARK    4  A    between atoms: S_15  and  C_18
REMARK    5  A    between atoms: C_18  and  C_19
REMARK    6  A    between atoms: C_19  and  C_20
REMARK    7  A    between atoms: C_20  and  C_21
REMARK    8  A    between atoms: C_23  and  C_26
REMARK                            x       y       z     vdW  Elec       q    Type
REMARK                         _______ _______ _______ _____ _____    ______ ____
ROOT
ATOM      1  N   UNL     1      34.785 -22.379 -15.123  0.00  0.00    -0.260 N 
ATOM      2  N   UNL     1      32.918 -23.467 -15.645  0.00  0.00    -0.394 NA
ATOM      3  C   UNL     1      34.590 -22.150 -16.461  0.00  0.00    +0.080 C 
ATOM      4  C   UNL     1      33.419 -22.840 -16.763  0.00  0.00    +0.128 C 
ATOM      5  C   UNL     1      33.760 -23.170 -14.681  0.00  0.00    +0.164 C 
ATOM      6  C   UNL     1      35.316 -21.422 -17.403  0.00  0.00    +0.021 C 
ATOM      7  C   UNL     1      34.798 -21.420 -18.687  0.00  0.00    +0.052 C 
ATOM      8  C   UNL     1      32.928 -22.812 -18.079  0.00  0.00    +0.086 C 
ATOM      9  C   UNL     1      33.640 -22.086 -19.043  0.00  0.00    -0.014 C 
ATOM     10  C   UNL     1      33.658 -23.613 -13.275  0.00  0.00    +0.084 C 
ENDROOT
BRANCH   7  13
ATOM     11  O   UNL     1      36.591 -21.072 -20.179  0.00  0.00    -0.269 OA
ATOM     12  N   UNL     1      34.900 -19.449 -20.169  0.00  0.00    -0.185 N 
ATOM     13  C   UNL     1      35.525 -20.662 -19.737  0.00  0.00    +0.264 C 
ATOM     14  H   UNL     1      34.044 -19.201 -19.751  0.00  0.00    +0.176 HD
BRANCH  12  15
ATOM     15  S   UNL     1      35.537 -18.398 -21.365  0.00  0.00    +0.056 S 
ATOM     16  O   UNL     1      36.943 -18.147 -21.103  0.00  0.00    -0.154 OA
ATOM     17  O   UNL     1      35.101 -18.870 -22.669  0.00  0.00    -0.154 OA
BRANCH  15  18
ATOM     18  C   UNL     1      34.630 -16.930 -20.990  0.00  0.00    +0.172 C 
BRANCH  18  19
ATOM     19  C   UNL     1      34.587 -15.988 -22.184  0.00  0.00    +0.027 C 
BRANCH  19  20
ATOM     20  C   UNL     1      33.986 -14.621 -21.855  0.00  0.00    +0.002 C 
BRANCH  20  21
ATOM     21  C   UNL     1      33.458 -14.520 -20.424  0.00  0.00    +0.000 C 
ATOM     22  C   UNL     1      32.258 -13.588 -20.339  0.00  0.00    +0.000 C 
ENDBRANCH  20  21
ENDBRANCH  19  20
ENDBRANCH  18  19
ENDBRANCH  15  18
ENDBRANCH  12  15
ENDBRANCH   7  13
BRANCH   1  23
ATOM     23  C   UNL     1      35.878 -21.873 -14.325  0.00  0.00    +0.125 C 
BRANCH  23  26
ATOM     24 CL   UNL     1      36.417 -23.024 -11.517  0.00  0.00    -0.082 Cl
ATOM     25 CL   UNL     1      40.272 -25.942 -13.883  0.00  0.00    -0.082 Cl
ATOM     26  C   UNL     1      36.973 -22.895 -14.182  0.00  0.00    +0.009 C 
ATOM     27  C   UNL     1      37.276 -23.460 -12.949  0.00  0.00    +0.056 C 
ATOM     28  C   UNL     1      37.678 -23.260 -15.323  0.00  0.00    -0.001 C 
ATOM     29  C   UNL     1      38.298 -24.405 -12.857  0.00  0.00    +0.023 C 
ATOM     30  C   UNL     1      38.700 -24.204 -15.230  0.00  0.00    +0.011 C 
ATOM     31  C   UNL     1      39.010 -24.777 -13.997  0.00  0.00    +0.058 C 
ENDBRANCH  23  26
ENDBRANCH   1  23
TORSDOF 8
ENDMDL
MODEL 3
REMARK VINA RESULT:     -10.9      3.874     10.321
REMARK  Name = 9869229
REMARK  8 active torsions:
REMARK  status: ('A' for Active; 'I' for Inactive)
REMARK    1  A    between atoms: N_1  and  C_23
REMARK    2  A    between atoms: C_7  and  C_13
REMARK    3  A    between atoms: N_12  and  S_15
REMARK    4  A    between atoms: S_15  and  C_18
REMARK    5  A    between atoms: C_18  and  C_19
REMARK    6  A    between atoms: C_19  and  C_20
REMARK    7  A    between atoms: C_20  and  C_21
REMARK    8  A    between atoms: C_23  and  C_26
REMARK                            x       y       z     vdW  Elec       q    Type
REMARK                         _______ _______ _______ _____ _____    ______ ____
ROOT
ATOM      1  N   UNL     1      35.302 -23.221 -15.203  0.00  0.00    -0.260 N 
ATOM      2  N   UNL     1      36.945 -22.105 -14.208  0.00  0.00    -0.394 NA
ATOM      3  C   UNL     1      35.715 -22.287 -16.118  0.00  0.00    +0.080 C 
ATOM      4  C   UNL     1      36.742 -21.602 -15.473  0.00  0.00    +0.128 C 
ATOM      5  C   UNL     1      36.066 -23.073 -14.079  0.00  0.00    +0.164 C 
ATOM      6  C   UNL     1      35.293 -21.991 -17.414  0.00  0.00    +0.021 C 
ATOM      7  C   UNL     1      35.964 -20.955 -18.042  0.00  0.00    +0.052 C 
ATOM      8  C   UNL     1      37.397 -20.558 -16.146  0.00  0.00    +0.086 C 
ATOM      9  C   UNL     1      36.990 -20.242 -17.449  0.00  0.00    -0.014 C 
ATOM     10  C   UNL     1      35.885 -23.925 -12.887  0.00  0.00    +0.084 C 
ENDROOT
BRANCH   7  13
ATOM     11  O   UNL     1      34.903 -21.366 -20.108  0.00  0.00    -0.269 OA
ATOM     12  N   UNL     1      35.994 -19.305 -19.876  0.00  0.00    -0.185 N 
ATOM     13  C   UNL     1      35.560 -20.591 -19.423  0.00  0.00    +0.264 C 
ATOM     14  H   UNL     1      36.521 -18.754 -19.253  0.00  0.00    +0.176 HD
BRANCH  12  15
ATOM     15  S   UNL     1      35.659 -18.653 -21.426  0.00  0.00    +0.056 S 
ATOM     16  O   UNL     1      36.903 -18.353 -22.114  0.00  0.00    -0.154 OA
ATOM     17  O   UNL     1      34.645 -19.479 -22.061  0.00  0.00    -0.154 OA
BRANCH  15  18
ATOM     18  C   UNL     1      34.900 -17.130 -20.957  0.00  0.00    +0.172 C 
BRANCH  18  19
ATOM     19  C   UNL     1      34.543 -16.293 -22.176  0.00  0.00    +0.027 C 
BRANCH  19  20
ATOM     20  C   UNL     1      34.132 -14.861 -21.828  0.00  0.00    +0.002 C 
BRANCH  20  21
ATOM     21  C   UNL     1      33.816 -14.006 -23.056  0.00  0.00    +0.000 C 
ATOM     22  C   UNL     1      33.560 -12.556 -22.672  0.00  0.00    +0.000 C 
ENDBRANCH  20  21
ENDBRANCH  19  20
ENDBRANCH  18  19
ENDBRANCH  15  18
ENDBRANCH  12  15
ENDBRANCH   7  13
BRANCH   1  23
ATOM     23  C   UNL     1      34.245 -24.188 -15.398  0.00  0.00    +0.125 C 
BRANCH  23  26
ATOM     24 CL   UNL     1      32.718 -23.221 -17.895  0.00  0.00    -0.082 Cl
ATOM     25 CL   UNL     1      28.845 -21.732 -14.466  0.00  0.00    -0.082 Cl
ATOM     26  C   UNL     1      32.889 -23.568 -15.197  0.00  0.00    +0.009 C 
ATOM     27  C   UNL     1      32.139 -23.109 -16.272  0.00  0.00    +0.056 C 
ATOM     28  C   UNL     1      32.404 -23.466 -13.898  0.00  0.00    -0.001 C 
ATOM     29  C   UNL     1      30.886 -22.539 -16.046  0.00  0.00    +0.023 C 
ATOM     30  C   UNL     1      31.152 -22.897 -13.672  0.00  0.00    +0.011 C 
ATOM     31  C   UNL     1      30.392 -22.434 -14.746  0.00  0.00    +0.058 C 
ENDBRANCH  23  26
ENDBRANCH   1  23
TORSDOF 8
ENDMDL
MODEL 4
REMARK VINA RESULT:     -10.4      4.123      6.880
REMARK  Name = 9869229
REMARK  8 active torsions:
REMARK  status: ('A' for Active; 'I' for Inactive)
REMARK    1  A    between atoms: N_1  and  C_23
REMARK    2  A    between atoms: C_7  and  C_13
REMARK    3  A    between atoms: N_12  and  S_15
REMARK    4  A    between atoms: S_15  and  C_18
REMARK    5  A    between atoms: C_18  and  C_19
REMARK    6  A    between atoms: C_19  and  C_20
REMARK    7  A    between atoms: C_20  and  C_21
REMARK    8  A    between atoms: C_23  and  C_26
REMARK                            x       y       z     vdW  Elec       q    Type
REMARK                         _______ _______ _______ _____ _____    ______ ____
ROOT
ATOM      1  N   UNL     1      31.092  -9.674 -21.342  0.00  0.00    -0.260 N 
ATOM      2  N   UNL     1      31.629 -10.376 -19.303  0.00  0.00    -0.394 NA
ATOM      3  C   UNL     1      31.656 -10.911 -21.518  0.00  0.00    +0.080 C 
ATOM      4  C   UNL     1      31.983 -11.329 -20.231  0.00  0.00    +0.128 C 
ATOM      5  C   UNL     1      31.098  -9.399 -20.002  0.00  0.00    +0.164 C 
ATOM      6  C   UNL     1      31.901 -11.677 -22.658  0.00  0.00    +0.021 C 
ATOM      7  C   UNL     1      32.502 -12.905 -22.437  0.00  0.00    +0.052 C 
ATOM      8  C   UNL     1      32.591 -12.582 -20.051  0.00  0.00    +0.086 C 
ATOM      9  C   UNL     1      32.847 -13.369 -21.181  0.00  0.00    -0.014 C 
ATOM     10  C   UNL     1      30.559  -8.136 -19.456  0.00  0.00    +0.084 C 
ENDROOT
BRANCH   7  13
ATOM     11  O   UNL     1      32.594 -13.360 -24.749  0.00  0.00    -0.269 OA
ATOM     12  N   UNL     1      33.290 -15.074 -23.310  0.00  0.00    -0.185 N 
ATOM     13  C   UNL     1      32.789 -13.768 -23.611  0.00  0.00    +0.264 C 
ATOM     14  H   UNL     1      33.410 -15.312 -22.362  0.00  0.00    +0.176 HD
BRANCH  12  15
ATOM     15  S   UNL     1      33.696 -16.256 -24.485  0.00  0.00    +0.056 S 
ATOM     16  O   UNL     1      32.486 -16.843 -25.032  0.00  0.00    -0.154 OA
ATOM     17  O   UNL     1      34.710 -15.698 -25.364  0.00  0.00    -0.154 OA
BRANCH  15  18
ATOM     18  C   UNL     1      34.478 -17.454 -23.450  0.00  0.00    +0.172 C 
BRANCH  18  19
ATOM     19  C   UNL     1      34.846 -16.859 -22.098  0.00  0.00    +0.027 C 
BRANCH  19  20
ATOM     20  C   UNL     1      35.242 -17.911 -21.061  0.00  0.00    +0.002 C 
BRANCH  20  21
ATOM     21  C   UNL     1      34.288 -19.107 -21.017  0.00  0.00    +0.000 C 
ATOM     22  C   UNL     1      34.851 -20.234 -20.164  0.00  0.00    +0.000 C 
ENDBRANCH  20  21
ENDBRANCH  19  20
ENDBRANCH  18  19
ENDBRANCH  15  18
ENDBRANCH  12  15
ENDBRANCH   7  13
BRANCH   1  23
ATOM     23  C   UNL     1      30.582  -8.817 -22.388  0.00  0.00    +0.125 C 
BRANCH  23  26
ATOM     24 CL   UNL     1      29.798  -5.837 -22.473  0.00  0.00    -0.082 Cl
ATOM     25 CL   UNL     1      34.815  -4.972 -24.222  0.00  0.00    -0.082 Cl
ATOM     26  C   UNL     1      31.622  -7.828 -22.843  0.00  0.00    +0.009 C 
ATOM     27  C   UNL     1      31.345  -6.469 -22.908  0.00  0.00    +0.056 C 
ATOM     28  C   UNL     1      32.874  -8.316 -23.200  0.00  0.00    -0.001 C 
ATOM     29  C   UNL     1      32.334  -5.583 -23.335  0.00  0.00    +0.023 C 
ATOM     30  C   UNL     1      33.862  -7.431 -23.627  0.00  0.00    +0.011 C 
ATOM     31  C   UNL     1      33.593  -6.064 -23.694  0.00  0.00    +0.058 C 
ENDBRANCH  23  26
ENDBRANCH   1  23
TORSDOF 8
ENDMDL
MODEL 5
REMARK VINA RESULT:      -9.9      4.746      7.400
REMARK  Name = 9869229
REMARK  8 active torsions:
REMARK  status: ('A' for Active; 'I' for Inactive)
REMARK    1  A    between atoms: N_1  and  C_23
REMARK    2  A    between atoms: C_7  and  C_13
REMARK    3  A    between atoms: N_12  and  S_15
REMARK    4  A    between atoms: S_15  and  C_18
REMARK    5  A    between atoms: C_18  and  C_19
REMARK    6  A    between atoms: C_19  and  C_20
REMARK    7  A    between atoms: C_20  and  C_21
REMARK    8  A    between atoms: C_23  and  C_26
REMARK                            x       y       z     vdW  Elec       q    Type
REMARK                         _______ _______ _______ _____ _____    ______ ____
ROOT
ATOM      1  N   UNL     1      32.596  -8.410 -22.380  0.00  0.00    -0.260 N 
ATOM      2  N   UNL     1      31.276  -8.912 -20.664  0.00  0.00    -0.394 NA
ATOM      3  C   UNL     1      32.362  -9.758 -22.481  0.00  0.00    +0.080 C 
ATOM      4  C   UNL     1      31.536 -10.047 -21.398  0.00  0.00    +0.128 C 
ATOM      5  C   UNL     1      31.926  -7.950 -21.280  0.00  0.00    +0.164 C 
ATOM      6  C   UNL     1      32.789 -10.719 -23.397  0.00  0.00    +0.021 C 
ATOM      7  C   UNL     1      32.338 -12.008 -23.168  0.00  0.00    +0.052 C 
ATOM      8  C   UNL     1      31.099 -11.368 -21.203  0.00  0.00    +0.086 C 
ATOM      9  C   UNL     1      31.516 -12.350 -22.110  0.00  0.00    -0.014 C 
ATOM     10  C   UNL     1      31.962  -6.531 -20.874  0.00  0.00    +0.084 C 
ENDROOT
BRANCH   7  13
ATOM     11  O   UNL     1      32.695 -12.905 -25.320  0.00  0.00    -0.269 OA
ATOM     12  N   UNL     1      33.222 -14.287 -23.502  0.00  0.00    -0.185 N 
ATOM     13  C   UNL     1      32.758 -13.077 -24.109  0.00  0.00    +0.264 C 
ATOM     14  H   UNL     1      33.233 -14.331 -22.519  0.00  0.00    +0.176 HD
BRANCH  12  15
ATOM     15  S   UNL     1      33.761 -15.666 -24.367  0.00  0.00    +0.056 S 
ATOM     16  O   UNL     1      32.619 -16.434 -24.831  0.00  0.00    -0.154 OA
ATOM     17  O   UNL     1      34.797 -15.247 -25.297  0.00  0.00    -0.154 OA
BRANCH  15  18
ATOM     18  C   UNL     1      34.540 -16.558 -23.058  0.00  0.00    +0.172 C 
BRANCH  18  19
ATOM     19  C   UNL     1      34.128 -18.023 -23.068  0.00  0.00    +0.027 C 
BRANCH  19  20
ATOM     20  C   UNL     1      34.813 -18.852 -21.980  0.00  0.00    +0.002 C 
BRANCH  20  21
ATOM     21  C   UNL     1      33.832 -19.473 -20.985  0.00  0.00    +0.000 C 
ATOM     22  C   UNL     1      34.539 -20.422 -20.028  0.00  0.00    +0.000 C 
ENDBRANCH  20  21
ENDBRANCH  19  20
ENDBRANCH  18  19
ENDBRANCH  15  18
ENDBRANCH  12  15
ENDBRANCH   7  13
BRANCH   1  23
ATOM     23  C   UNL     1      33.407  -7.621 -23.279  0.00  0.00    +0.125 C 
BRANCH  23  26
ATOM     24 CL   UNL     1      30.684  -7.972 -24.681  0.00  0.00    -0.082 Cl
ATOM     25 CL   UNL     1      30.610  -2.601 -25.023  0.00  0.00    -0.082 Cl
ATOM     26  C   UNL     1      32.681  -6.381 -23.728  0.00  0.00    +0.009 C 
ATOM     27  C   UNL     1      31.449  -6.457 -24.366  0.00  0.00    +0.056 C 
ATOM     28  C   UNL     1      33.280  -5.151 -23.485  0.00  0.00    -0.001 C 
ATOM     29  C   UNL     1      30.807  -5.286 -24.767  0.00  0.00    +0.023 C 
ATOM     30  C   UNL     1      32.638  -3.980 -23.887  0.00  0.00    +0.011 C 
ATOM     31  C   UNL     1      31.401  -4.048 -24.527  0.00  0.00    +0.058 C 
ENDBRANCH  23  26
ENDBRANCH   1  23
TORSDOF 8
ENDMDL
MODEL 6
REMARK VINA RESULT:      -9.9      6.614     10.104
REMARK  Name = 9869229
REMARK  8 active torsions:
REMARK  status: ('A' for Active; 'I' for Inactive)
REMARK    1  A    between atoms: N_1  and  C_23
REMARK    2  A    between atoms: C_7  and  C_13
REMARK    3  A    between atoms: N_12  and  S_15
REMARK    4  A    between atoms: S_15  and  C_18
REMARK    5  A    between atoms: C_18  and  C_19
REMARK    6  A    between atoms: C_19  and  C_20
REMARK    7  A    between atoms: C_20  and  C_21
REMARK    8  A    between atoms: C_23  and  C_26
REMARK                            x       y       z     vdW  Elec       q    Type
REMARK                         _______ _______ _______ _____ _____    ______ ____
ROOT
ATOM      1  N   UNL     1      31.175  -5.326 -23.028  0.00  0.00    -0.260 N 
ATOM      2  N   UNL     1      31.485  -4.574 -20.960  0.00  0.00    -0.394 NA
ATOM      3  C   UNL     1      31.284  -6.446 -22.244  0.00  0.00    +0.080 C 
ATOM      4  C   UNL     1      31.477  -5.950 -20.957  0.00  0.00    +0.128 C 
ATOM      5  C   UNL     1      31.302  -4.233 -22.215  0.00  0.00    +0.164 C 
ATOM      6  C   UNL     1      31.231  -7.808 -22.541  0.00  0.00    +0.021 C 
ATOM      7  C   UNL     1      31.385  -8.663 -21.463  0.00  0.00    +0.052 C 
ATOM      8  C   UNL     1      31.628  -6.852 -19.891  0.00  0.00    +0.086 C 
ATOM      9  C   UNL     1      31.579  -8.225 -20.166  0.00  0.00    -0.014 C 
ATOM     10  C   UNL     1      31.234  -2.853 -22.737  0.00  0.00    +0.084 C 
ENDROOT
BRANCH   7  13
ATOM     11  O   UNL     1      30.484 -10.824 -21.184  0.00  0.00    -0.269 OA
ATOM     12  N   UNL     1      32.348 -10.634 -22.591  0.00  0.00    -0.185 N 
ATOM     13  C   UNL     1      31.339 -10.125 -21.714  0.00  0.00    +0.264 C 
ATOM     14  H   UNL     1      32.995  -9.994 -22.965  0.00  0.00    +0.176 HD
BRANCH  12  15
ATOM     15  S   UNL     1      32.510 -12.282 -23.037  0.00  0.00    +0.056 S 
ATOM     16  O   UNL     1      31.350 -13.031 -22.587  0.00  0.00    -0.154 OA
ATOM     17  O   UNL     1      32.934 -12.341 -24.426  0.00  0.00    -0.154 OA
BRANCH  15  18
ATOM     18  C   UNL     1      33.890 -12.733 -22.031  0.00  0.00    +0.172 C 
BRANCH  18  19
ATOM     19  C   UNL     1      33.664 -14.079 -21.357  0.00  0.00    +0.027 C 
BRANCH  19  20
ATOM     20  C   UNL     1      34.276 -15.251 -22.126  0.00  0.00    +0.002 C 
BRANCH  20  21
ATOM     21  C   UNL     1      34.609 -16.450 -21.238  0.00  0.00    +0.000 C 
ATOM     22  C   UNL     1      35.415 -17.495 -21.996  0.00  0.00    +0.000 C 
ENDBRANCH  20  21
ENDBRANCH  19  20
ENDBRANCH  18  19
ENDBRANCH  15  18
ENDBRANCH  12  15
ENDBRANCH   7  13
BRANCH   1  23
ATOM     23  C   UNL     1      30.964  -5.308 -24.457  0.00  0.00    +0.125 C 
BRANCH  23  26
ATOM     24 CL   UNL     1      31.213  -2.816 -26.255  0.00  0.00    -0.082 Cl
ATOM     25 CL   UNL     1      36.167  -4.601 -27.372  0.00  0.00    -0.082 Cl
ATOM     26  C   UNL     1      32.256  -5.103 -25.201  0.00  0.00    +0.009 C 
ATOM     27  C   UNL     1      32.445  -4.004 -26.030  0.00  0.00    +0.056 C 
ATOM     28  C   UNL     1      33.261  -6.049 -25.035  0.00  0.00    -0.001 C 
ATOM     29  C   UNL     1      33.657  -3.849 -26.703  0.00  0.00    +0.023 C 
ATOM     30  C   UNL     1      34.472  -5.893 -25.708  0.00  0.00    +0.011 C 
ATOM     31  C   UNL     1      34.670  -4.792 -26.541  0.00  0.00    +0.058 C 
ENDBRANCH  23  26
ENDBRANCH   1  23
TORSDOF 8
ENDMDL
MODEL 7
REMARK VINA RESULT:      -9.9      8.185     12.994
REMARK  Name = 9869229
REMARK  8 active torsions:
REMARK  status: ('A' for Active; 'I' for Inactive)
REMARK    1  A    between atoms: N_1  and  C_23
REMARK    2  A    between atoms: C_7  and  C_13
REMARK    3  A    between atoms: N_12  and  S_15
REMARK    4  A    between atoms: S_15  and  C_18
REMARK    5  A    between atoms: C_18  and  C_19
REMARK    6  A    between atoms: C_19  and  C_20
REMARK    7  A    between atoms: C_20  and  C_21
REMARK    8  A    between atoms: C_23  and  C_26
REMARK                            x       y       z     vdW  Elec       q    Type
REMARK                         _______ _______ _______ _____ _____    ______ ____
ROOT
ATOM      1  N   UNL     1      31.309  -9.119 -21.052  0.00  0.00    -0.260 N 
ATOM      2  N   UNL     1      32.150  -7.727 -19.536  0.00  0.00    -0.394 NA
ATOM      3  C   UNL     1      31.795  -8.052 -21.764  0.00  0.00    +0.080 C 
ATOM      4  C   UNL     1      32.315  -7.198 -20.796  0.00  0.00    +0.128 C 
ATOM      5  C   UNL     1      31.545  -8.878 -19.726  0.00  0.00    +0.164 C 
ATOM      6  C   UNL     1      31.824  -7.771 -23.130  0.00  0.00    +0.021 C 
ATOM      7  C   UNL     1      32.410  -6.567 -23.482  0.00  0.00    +0.052 C 
ATOM      8  C   UNL     1      32.902  -5.986 -21.196  0.00  0.00    +0.086 C 
ATOM      9  C   UNL     1      32.942  -5.682 -22.563  0.00  0.00    -0.014 C 
ATOM     10  C   UNL     1      31.145  -9.831 -18.671  0.00  0.00    +0.084 C 
ENDROOT
BRANCH   7  13
ATOM     11  O   UNL     1      31.503  -6.385 -25.651  0.00  0.00    -0.269 OA
ATOM     12  N   UNL     1      33.716  -5.668 -25.372  0.00  0.00    -0.185 N 
ATOM     13  C   UNL     1      32.471  -6.210 -24.922  0.00  0.00    +0.264 C 
ATOM     14  H   UNL     1      34.439  -5.568 -24.710  0.00  0.00    +0.176 HD
BRANCH  12  15
ATOM     15  S   UNL     1      34.040  -5.179 -26.984  0.00  0.00    +0.056 S 
ATOM     16  O   UNL     1      35.451  -5.359 -27.280  0.00  0.00    -0.154 OA
ATOM     17  O   UNL     1      33.024  -5.753 -27.850  0.00  0.00    -0.154 OA
BRANCH  15  18
ATOM     18  C   UNL     1      33.717  -3.448 -26.844  0.00  0.00    +0.172 C 
BRANCH  18  19
ATOM     19  C   UNL     1      32.223  -3.162 -26.873  0.00  0.00    +0.027 C 
BRANCH  19  20
ATOM     20  C   UNL     1      31.786  -2.126 -25.836  0.00  0.00    +0.002 C 
BRANCH  20  21
ATOM     21  C   UNL     1      31.862  -2.639 -24.397  0.00  0.00    +0.000 C 
ATOM     22  C   UNL     1      30.534  -3.231 -23.948  0.00  0.00    +0.000 C 
ENDBRANCH  20  21
ENDBRANCH  19  20
ENDBRANCH  18  19
ENDBRANCH  15  18
ENDBRANCH  12  15
ENDBRANCH   7  13
BRANCH   1  23
ATOM     23  C   UNL     1      30.664 -10.287 -21.607  0.00  0.00    +0.125 C 
BRANCH  23  26
ATOM     24 CL   UNL     1      32.679 -10.644 -23.912  0.00  0.00    -0.082 Cl
ATOM     25 CL   UNL     1      34.230 -15.111 -21.340  0.00  0.00    -0.082 Cl
ATOM     26  C   UNL     1      31.572 -11.486 -21.568  0.00  0.00    +0.009 C 
ATOM     27  C   UNL     1      32.507 -11.716 -22.570  0.00  0.00    +0.056 C 
ATOM     28  C   UNL     1      31.448 -12.363 -20.497  0.00  0.00    -0.001 C 
ATOM     29  C   UNL     1      33.331 -12.840 -22.499  0.00  0.00    +0.023 C 
ATOM     30  C   UNL     1      32.272 -13.486 -20.427  0.00  0.00    +0.011 C 
ATOM     31  C   UNL     1      33.214 -13.724 -21.428  0.00  0.00    +0.058 C 
ENDBRANCH  23  26
ENDBRANCH   1  23
TORSDOF 8
ENDMDL
MODEL 8
REMARK VINA RESULT:      -9.7      3.804      6.571
REMARK  Name = 9869229
REMARK  8 active torsions:
REMARK  status: ('A' for Active; 'I' for Inactive)
REMARK    1  A    between atoms: N_1  and  C_23
REMARK    2  A    between atoms: C_7  and  C_13
REMARK    3  A    between atoms: N_12  and  S_15
REMARK    4  A    between atoms: S_15  and  C_18
REMARK    5  A    between atoms: C_18  and  C_19
REMARK    6  A    between atoms: C_19  and  C_20
REMARK    7  A    between atoms: C_20  and  C_21
REMARK    8  A    between atoms: C_23  and  C_26
REMARK                            x       y       z     vdW  Elec       q    Type
REMARK                         _______ _______ _______ _____ _____    ______ ____
ROOT
ATOM      1  N   UNL     1      34.387 -20.451 -19.994  0.00  0.00    -0.260 N 
ATOM      2  N   UNL     1      32.351 -21.026 -19.313  0.00  0.00    -0.394 NA
ATOM      3  C   UNL     1      34.570 -21.092 -18.795  0.00  0.00    +0.080 C 
ATOM      4  C   UNL     1      33.284 -21.441 -18.391  0.00  0.00    +0.128 C 
ATOM      5  C   UNL     1      33.046 -20.437 -20.261  0.00  0.00    +0.164 C 
ATOM      6  C   UNL     1      35.714 -21.387 -18.054  0.00  0.00    +0.021 C 
ATOM      7  C   UNL     1      35.499 -22.062 -16.864  0.00  0.00    +0.052 C 
ATOM      8  C   UNL     1      33.111 -22.127 -17.177  0.00  0.00    +0.086 C 
ATOM      9  C   UNL     1      34.246 -22.433 -16.415  0.00  0.00    -0.014 C 
ATOM     10  C   UNL     1      32.493 -19.819 -21.483  0.00  0.00    +0.084 C 
ENDROOT
BRANCH   7  13
ATOM     11  O   UNL     1      37.634 -21.643 -15.953  0.00  0.00    -0.269 OA
ATOM     12  N   UNL     1      36.608 -23.661 -15.346  0.00  0.00    -0.185 N 
ATOM     13  C   UNL     1      36.678 -22.405 -16.028  0.00  0.00    +0.264 C 
ATOM     14  H   UNL     1      35.797 -24.206 -15.472  0.00  0.00    +0.176 HD
BRANCH  12  15
ATOM     15  S   UNL     1      37.835 -24.284 -14.324  0.00  0.00    +0.056 S 
ATOM     16  O   UNL     1      37.610 -25.699 -14.089  0.00  0.00    -0.154 OA
ATOM     17  O   UNL     1      39.121 -23.812 -14.811  0.00  0.00    -0.154 OA
BRANCH  15  18
ATOM     18  C   UNL     1      37.465 -23.406 -12.838  0.00  0.00    +0.172 C 
BRANCH  18  19
ATOM     19  C   UNL     1      37.150 -24.362 -11.696  0.00  0.00    +0.027 C 
BRANCH  19  20
ATOM     20  C   UNL     1      35.673 -24.363 -11.298  0.00  0.00    +0.002 C 
BRANCH  20  21
ATOM     21  C   UNL     1      34.853 -23.286 -12.009  0.00  0.00    +0.000 C 
ATOM     22  C   UNL     1      33.838 -23.900 -12.962  0.00  0.00    +0.000 C 
ENDBRANCH  20  21
ENDBRANCH  19  20
ENDBRANCH  18  19
ENDBRANCH  15  18
ENDBRANCH  12  15
ENDBRANCH   7  13
BRANCH   1  23
ATOM     23  C   UNL     1      35.429 -19.892 -20.824  0.00  0.00    +0.125 C 
BRANCH  23  26
ATOM     24 CL   UNL     1      34.850 -19.712 -23.847  0.00  0.00    -0.082 Cl
ATOM     25 CL   UNL     1      33.832 -14.504 -22.942  0.00  0.00    -0.082 Cl
ATOM     26  C   UNL     1      35.026 -18.554 -21.385  0.00  0.00    +0.009 C 
ATOM     27  C   UNL     1      34.749 -18.393 -22.737  0.00  0.00    +0.056 C 
ATOM     28  C   UNL     1      34.939 -17.479 -20.509  0.00  0.00    -0.001 C 
ATOM     29  C   UNL     1      34.378 -17.138 -23.220  0.00  0.00    +0.023 C 
ATOM     30  C   UNL     1      34.569 -16.225 -20.992  0.00  0.00    +0.011 C 
ATOM     31  C   UNL     1      34.288 -16.054 -22.348  0.00  0.00    +0.058 C 
ENDBRANCH  23  26
ENDBRANCH   1  23
TORSDOF 8
ENDMDL
MODEL 9
REMARK VINA RESULT:      -9.7      8.293     13.331
REMARK  Name = 9869229
REMARK  8 active torsions:
REMARK  status: ('A' for Active; 'I' for Inactive)
REMARK    1  A    between atoms: N_1  and  C_23
REMARK    2  A    between atoms: C_7  and  C_13
REMARK    3  A    between atoms: N_12  and  S_15
REMARK    4  A    between atoms: S_15  and  C_18
REMARK    5  A    between atoms: C_18  and  C_19
REMARK    6  A    between atoms: C_19  and  C_20
REMARK    7  A    between atoms: C_20  and  C_21
REMARK    8  A    between atoms: C_23  and  C_26
REMARK                            x       y       z     vdW  Elec       q    Type
REMARK                         _______ _______ _______ _____ _____    ______ ____
ROOT
ATOM      1  N   UNL     1      31.204  -9.024 -20.965  0.00  0.00    -0.260 N 
ATOM      2  N   UNL     1      32.116  -7.655 -19.471  0.00  0.00    -0.394 NA
ATOM      3  C   UNL     1      31.587  -7.914 -21.673  0.00  0.00    +0.080 C 
ATOM      4  C   UNL     1      32.154  -7.074 -20.718  0.00  0.00    +0.128 C 
ATOM      5  C   UNL     1      31.541  -8.822 -19.655  0.00  0.00    +0.164 C 
ATOM      6  C   UNL     1      31.490  -7.583 -23.024  0.00  0.00    +0.021 C 
ATOM      7  C   UNL     1      31.999  -6.344 -23.376  0.00  0.00    +0.052 C 
ATOM      8  C   UNL     1      32.659  -5.826 -21.117  0.00  0.00    +0.086 C 
ATOM      9  C   UNL     1      32.572  -5.471 -22.470  0.00  0.00    -0.014 C 
ATOM     10  C   UNL     1      31.268  -9.829 -18.608  0.00  0.00    +0.084 C 
ENDROOT
BRANCH   7  13
ATOM     11  O   UNL     1      31.128  -6.464 -25.564  0.00  0.00    -0.269 OA
ATOM     12  N   UNL     1      32.836  -4.902 -25.195  0.00  0.00    -0.185 N 
ATOM     13  C   UNL     1      31.924  -5.932 -24.800  0.00  0.00    +0.264 C 
ATOM     14  H   UNL     1      33.441  -4.539 -24.508  0.00  0.00    +0.176 HD
BRANCH  12  15
ATOM     15  S   UNL     1      32.948  -4.254 -26.778  0.00  0.00    +0.056 S 
ATOM     16  O   UNL     1      33.188  -5.323 -27.732  0.00  0.00    -0.154 OA
ATOM     17  O   UNL     1      31.847  -3.325 -26.972  0.00  0.00    -0.154 OA
BRANCH  15  18
ATOM     18  C   UNL     1      34.431  -3.310 -26.614  0.00  0.00    +0.172 C 
BRANCH  18  19
ATOM     19  C   UNL     1      35.616  -4.200 -26.270  0.00  0.00    +0.027 C 
BRANCH  19  20
ATOM     20  C   UNL     1      36.837  -3.954 -27.157  0.00  0.00    +0.002 C 
BRANCH  20  21
ATOM     21  C   UNL     1      37.711  -2.794 -26.677  0.00  0.00    +0.000 C 
ATOM     22  C   UNL     1      39.033  -3.292 -26.113  0.00  0.00    +0.000 C 
ENDBRANCH  20  21
ENDBRANCH  19  20
ENDBRANCH  18  19
ENDBRANCH  15  18
ENDBRANCH  12  15
ENDBRANCH   7  13
BRANCH   1  23
ATOM     23  C   UNL     1      30.558 -10.197 -21.510  0.00  0.00    +0.125 C 
BRANCH  23  26
ATOM     24 CL   UNL     1      32.583 -10.422 -23.823  0.00  0.00    -0.082 Cl
ATOM     25 CL   UNL     1      34.209 -14.964 -21.436  0.00  0.00    -0.082 Cl
ATOM     26  C   UNL     1      31.488 -11.381 -21.519  0.00  0.00    +0.009 C 
ATOM     27  C   UNL     1      32.428 -11.552 -22.528  0.00  0.00    +0.056 C 
ATOM     28  C   UNL     1      31.378 -12.304 -20.486  0.00  0.00    -0.001 C 
ATOM     29  C   UNL     1      33.271 -12.663 -22.502  0.00  0.00    +0.023 C 
ATOM     30  C   UNL     1      32.221 -13.414 -20.460  0.00  0.00    +0.011 C 
ATOM     31  C   UNL     1      33.168 -13.593 -21.468  0.00  0.00    +0.058 C 
ENDBRANCH  23  26
ENDBRANCH   1  23
TORSDOF 8
ENDMDL
