MODEL 1
REMARK VINA RESULT:     -10.8      0.000      0.000
REMARK  Name = 448968
REMARK  5 active torsions:
REMARK  status: ('A' for Active; 'I' for Inactive)
REMARK    1  A    between atoms: N_1  and  C_13
REMARK    2  A    between atoms: C_5  and  C_17
REMARK    3  A    between atoms: C_13  and  C_14
REMARK    4  A    between atoms: C_14  and  C_15
REMARK    5  A    between atoms: C_17  and  C_20
REMARK                            x       y       z     vdW  Elec       q    Type
REMARK                         _______ _______ _______ _____ _____    ______ ____
ROOT
ATOM      1  N   UNL     1      33.210 -23.002 -16.062  0.00  0.00    -0.249 N 
ATOM      2  N   UNL     1      31.537 -22.579 -17.471  0.00  0.00    -0.385 NA
ATOM      3  N   UNL     1      32.001 -22.969 -13.955  0.00  0.00    -0.227 NA
ATOM      4  N   UNL     1      29.628 -22.516 -14.303  0.00  0.00    -0.227 NA
ATOM      5  C   UNL     1      32.802 -22.817 -17.334  0.00  0.00    +0.169 C 
ATOM      6  C   UNL     1      32.092 -22.869 -15.290  0.00  0.00    +0.167 C 
ATOM      7  C   UNL     1      31.064 -22.608 -16.183  0.00  0.00    +0.195 C 
ATOM      8  C   UNL     1      29.794 -22.429 -15.645  0.00  0.00    +0.155 C 
ATOM      9  C   UNL     1      30.726 -22.776 -13.552  0.00  0.00    +0.253 C 
ATOM     10  N   UNL     1      28.694 -22.159 -16.477  0.00  0.00    -0.341 N 
ATOM     11  H   UNL     1      27.799 -22.034 -16.085  0.00  0.00    +0.144 HD
ATOM     12  H   UNL     1      28.817 -22.097 -17.452  0.00  0.00    +0.144 HD
ENDROOT
BRANCH   1  13
ATOM     13  C   UNL     1      34.546 -23.281 -15.586  0.00  0.00    +0.099 C 
BRANCH  13  14
ATOM     14  C   UNL     1      35.349 -22.004 -15.347  0.00  0.00    +0.022 C 
BRANCH  14  15
ATOM     15  C   UNL     1      36.654 -22.016 -16.141  0.00  0.00    +0.002 C 
ATOM     16  C   UNL     1      37.106 -20.606 -16.491  0.00  0.00    +0.000 C 
ENDBRANCH  14  15
ENDBRANCH  13  14
ENDBRANCH   1  13
BRANCH   5  17
ATOM     17  C   UNL     1      33.789 -22.892 -18.483  0.00  0.00    +0.102 C 
BRANCH  17  20
ATOM     18  O   UNL     1      36.369 -19.173 -20.456  0.00  0.00    -0.435 OA
ATOM     19  O   UNL     1      34.389 -18.107 -21.322  0.00  0.00    -0.435 OA
ATOM     20  C   UNL     1      33.913 -21.615 -19.245  0.00  0.00    -0.011 C 
ATOM     21  C   UNL     1      35.173 -21.049 -19.450  0.00  0.00    +0.036 C 
ATOM     22  C   UNL     1      32.758 -20.993 -19.751  0.00  0.00    -0.000 C 
ATOM     23  C   UNL     1      35.237 -19.868 -20.160  0.00  0.00    +0.176 C 
ATOM     24  C   UNL     1      34.106 -19.259 -20.656  0.00  0.00    +0.176 C 
ATOM     25  C   UNL     1      32.850 -19.797 -20.467  0.00  0.00    +0.040 C 
ATOM     26  C   UNL     1      35.825 -18.059 -21.192  0.00  0.00    +0.429 C 
ENDBRANCH  17  20
ENDBRANCH   5  17
TORSDOF 5
ENDMDL
MODEL 2
REMARK VINA RESULT:     -10.5      3.589      6.793
REMARK  Name = 448968
REMARK  5 active torsions:
REMARK  status: ('A' for Active; 'I' for Inactive)
REMARK    1  A    between atoms: N_1  and  C_13
REMARK    2  A    between atoms: C_5  and  C_17
REMARK    3  A    between atoms: C_13  and  C_14
REMARK    4  A    between atoms: C_14  and  C_15
REMARK    5  A    between atoms: C_17  and  C_20
REMARK                            x       y       z     vdW  Elec       q    Type
REMARK                         _______ _______ _______ _____ _____    ______ ____
ROOT
ATOM      1  N   UNL     1      32.710 -22.794 -16.447  0.00  0.00    -0.249 N 
ATOM      2  N   UNL     1      34.904 -22.489 -16.696  0.00  0.00    -0.385 NA
ATOM      3  N   UNL     1      31.904 -21.695 -18.458  0.00  0.00    -0.227 NA
ATOM      4  N   UNL     1      33.752 -20.801 -19.778  0.00  0.00    -0.227 NA
ATOM      5  C   UNL     1      33.956 -22.980 -15.963  0.00  0.00    +0.169 C 
ATOM      6  C   UNL     1      32.865 -22.109 -17.617  0.00  0.00    +0.167 C 
ATOM      7  C   UNL     1      34.233 -21.930 -17.754  0.00  0.00    +0.195 C 
ATOM      8  C   UNL     1      34.668 -21.248 -18.886  0.00  0.00    +0.155 C 
ATOM      9  C   UNL     1      32.446 -21.048 -19.513  0.00  0.00    +0.253 C 
ATOM     10  N   UNL     1      36.037 -21.021 -19.105  0.00  0.00    -0.341 N 
ATOM     11  H   UNL     1      36.334 -20.536 -19.910  0.00  0.00    +0.144 HD
ATOM     12  H   UNL     1      36.701 -21.347 -18.455  0.00  0.00    +0.144 HD
ENDROOT
BRANCH   1  13
ATOM     13  C   UNL     1      31.456 -23.219 -15.867  0.00  0.00    +0.099 C 
BRANCH  13  14
ATOM     14  C   UNL     1      31.025 -22.318 -14.711  0.00  0.00    +0.022 C 
BRANCH  14  15
ATOM     15  C   UNL     1      30.503 -23.143 -13.535  0.00  0.00    +0.002 C 
ATOM     16  C   UNL     1      30.668 -24.634 -13.784  0.00  0.00    +0.000 C 
ENDBRANCH  14  15
ENDBRANCH  13  14
ENDBRANCH   1  13
BRANCH   5  17
ATOM     17  C   UNL     1      34.177 -23.715 -14.655  0.00  0.00    +0.102 C 
BRANCH  17  20
ATOM     18  O   UNL     1      39.020 -23.960 -13.728  0.00  0.00    -0.435 OA
ATOM     19  O   UNL     1      39.141 -26.282 -14.363  0.00  0.00    -0.435 OA
ATOM     20  C   UNL     1      35.484 -24.431 -14.589  0.00  0.00    -0.011 C 
ATOM     21  C   UNL     1      36.626 -23.751 -14.160  0.00  0.00    +0.036 C 
ATOM     22  C   UNL     1      35.555 -25.785 -14.958  0.00  0.00    -0.000 C 
ATOM     23  C   UNL     1      37.812 -24.454 -14.116  0.00  0.00    +0.176 C 
ATOM     24  C   UNL     1      37.881 -25.781 -14.478  0.00  0.00    +0.176 C 
ATOM     25  C   UNL     1      36.768 -26.475 -14.904  0.00  0.00    +0.040 C 
ATOM     26  C   UNL     1      39.857 -25.124 -13.887  0.00  0.00    +0.429 C 
ENDBRANCH  17  20
ENDBRANCH   5  17
TORSDOF 5
ENDMDL
MODEL 3
REMARK VINA RESULT:     -10.2      1.843      4.269
REMARK  Name = 448968
REMARK  5 active torsions:
REMARK  status: ('A' for Active; 'I' for Inactive)
REMARK    1  A    between atoms: N_1  and  C_13
REMARK    2  A    between atoms: C_5  and  C_17
REMARK    3  A    between atoms: C_13  and  C_14
REMARK    4  A    between atoms: C_14  and  C_15
REMARK    5  A    between atoms: C_17  and  C_20
REMARK                            x       y       z     vdW  Elec       q    Type
REMARK                         _______ _______ _______ _____ _____    ______ ____
ROOT
ATOM      1  N   UNL     1      32.699 -23.017 -15.009  0.00  0.00    -0.249 N 
ATOM      2  N   UNL     1      34.547 -23.456 -16.174  0.00  0.00    -0.385 NA
ATOM      3  N   UNL     1      33.466 -23.591 -12.776  0.00  0.00    -0.227 NA
ATOM      4  N   UNL     1      35.787 -24.347 -12.805  0.00  0.00    -0.227 NA
ATOM      5  C   UNL     1      33.318 -23.049 -16.207  0.00  0.00    +0.169 C 
ATOM      6  C   UNL     1      33.622 -23.451 -14.101  0.00  0.00    +0.167 C 
ATOM      7  C   UNL     1      34.762 -23.718 -14.844  0.00  0.00    +0.195 C 
ATOM      8  C   UNL     1      35.873 -24.181 -14.147  0.00  0.00    +0.155 C 
ATOM      9  C   UNL     1      34.606 -24.046 -12.212  0.00  0.00    +0.253 C 
ATOM     10  N   UNL     1      37.071 -24.478 -14.819  0.00  0.00    -0.341 N 
ATOM     11  H   UNL     1      37.851 -24.806 -14.315  0.00  0.00    +0.144 HD
ATOM     12  H   UNL     1      37.131 -24.357 -15.795  0.00  0.00    +0.144 HD
ENDROOT
BRANCH   1  13
ATOM     13  C   UNL     1      31.342 -22.615 -14.718  0.00  0.00    +0.099 C 
BRANCH  13  14
ATOM     14  C   UNL     1      30.422 -23.815 -14.497  0.00  0.00    +0.022 C 
BRANCH  14  15
ATOM     15  C   UNL     1      29.164 -23.711 -15.357  0.00  0.00    +0.002 C 
ATOM     16  C   UNL     1      29.133 -22.410 -16.144  0.00  0.00    +0.000 C 
ENDBRANCH  14  15
ENDBRANCH  13  14
ENDBRANCH   1  13
BRANCH   5  17
ATOM     17  C   UNL     1      32.588 -22.629 -17.468  0.00  0.00    +0.102 C 
BRANCH  17  20
ATOM     18  O   UNL     1      33.170 -19.471 -21.218  0.00  0.00    -0.435 OA
ATOM     19  O   UNL     1      35.564 -19.413 -20.948  0.00  0.00    -0.435 OA
ATOM     20  C   UNL     1      33.412 -21.782 -18.378  0.00  0.00    -0.011 C 
ATOM     21  C   UNL     1      32.791 -21.030 -19.378  0.00  0.00    +0.036 C 
ATOM     22  C   UNL     1      34.809 -21.747 -18.220  0.00  0.00    -0.000 C 
ATOM     23  C   UNL     1      33.594 -20.262 -20.195  0.00  0.00    +0.176 C 
ATOM     24  C   UNL     1      34.962 -20.229 -20.041  0.00  0.00    +0.176 C 
ATOM     25  C   UNL     1      35.600 -20.961 -19.061  0.00  0.00    +0.040 C 
ATOM     26  C   UNL     1      34.423 -18.936 -21.690  0.00  0.00    +0.429 C 
ENDBRANCH  17  20
ENDBRANCH   5  17
TORSDOF 5
ENDMDL
MODEL 4
REMARK VINA RESULT:     -10.1      2.110      4.430
REMARK  Name = 448968
REMARK  5 active torsions:
REMARK  status: ('A' for Active; 'I' for Inactive)
REMARK    1  A    between atoms: N_1  and  C_13
REMARK    2  A    between atoms: C_5  and  C_17
REMARK    3  A    between atoms: C_13  and  C_14
REMARK    4  A    between atoms: C_14  and  C_15
REMARK    5  A    between atoms: C_17  and  C_20
REMARK                            x       y       z     vdW  Elec       q    Type
REMARK                         _______ _______ _______ _____ _____    ______ ____
ROOT
ATOM      1  N   UNL     1      33.612 -22.989 -14.844  0.00  0.00    -0.249 N 
ATOM      2  N   UNL     1      35.230 -22.930 -16.375  0.00  0.00    -0.385 NA
ATOM      3  N   UNL     1      34.954 -23.107 -12.822  0.00  0.00    -0.227 NA
ATOM      4  N   UNL     1      37.339 -23.106 -13.342  0.00  0.00    -0.227 NA
ATOM      5  C   UNL     1      33.956 -22.928 -16.147  0.00  0.00    +0.169 C 
ATOM      6  C   UNL     1      34.788 -23.037 -14.152  0.00  0.00    +0.167 C 
ATOM      7  C   UNL     1      35.780 -22.999 -15.120  0.00  0.00    +0.195 C 
ATOM      8  C   UNL     1      37.097 -23.035 -14.672  0.00  0.00    +0.155 C 
ATOM      9  C   UNL     1      36.268 -23.138 -12.511  0.00  0.00    +0.253 C 
ATOM     10  N   UNL     1      38.166 -23.001 -15.584  0.00  0.00    -0.341 N 
ATOM     11  H   UNL     1      39.094 -23.028 -15.256  0.00  0.00    +0.144 HD
ATOM     12  H   UNL     1      37.987 -22.950 -16.551  0.00  0.00    +0.144 HD
ENDROOT
BRANCH   1  13
ATOM     13  C   UNL     1      32.286 -23.004 -14.272  0.00  0.00    +0.099 C 
BRANCH  13  14
ATOM     14  C   UNL     1      31.940 -24.360 -13.660  0.00  0.00    +0.022 C 
BRANCH  14  15
ATOM     15  C   UNL     1      30.452 -24.450 -13.322  0.00  0.00    +0.002 C 
ATOM     16  C   UNL     1      29.647 -24.991 -14.494  0.00  0.00    +0.000 C 
ENDBRANCH  14  15
ENDBRANCH  13  14
ENDBRANCH   1  13
BRANCH   5  17
ATOM     17  C   UNL     1      32.892 -22.862 -17.226  0.00  0.00    +0.102 C 
BRANCH  17  20
ATOM     18  O   UNL     1      35.913 -20.107 -19.994  0.00  0.00    -0.435 OA
ATOM     19  O   UNL     1      34.078 -19.044 -21.141  0.00  0.00    -0.435 OA
ATOM     20  C   UNL     1      33.173 -21.840 -18.276  0.00  0.00    -0.011 C 
ATOM     21  C   UNL     1      34.493 -21.508 -18.586  0.00  0.00    +0.036 C 
ATOM     22  C   UNL     1      32.103 -21.221 -18.946  0.00  0.00    -0.000 C 
ATOM     23  C   UNL     1      34.703 -20.557 -19.563  0.00  0.00    +0.176 C 
ATOM     24  C   UNL     1      33.655 -19.950 -20.219  0.00  0.00    +0.176 C 
ATOM     25  C   UNL     1      32.342 -20.261 -19.933  0.00  0.00    +0.040 C 
ATOM     26  C   UNL     1      35.510 -19.149 -20.994  0.00  0.00    +0.429 C 
ENDBRANCH  17  20
ENDBRANCH   5  17
TORSDOF 5
ENDMDL
MODEL 5
REMARK VINA RESULT:     -10.1      5.064      8.364
REMARK  Name = 448968
REMARK  5 active torsions:
REMARK  status: ('A' for Active; 'I' for Inactive)
REMARK    1  A    between atoms: N_1  and  C_13
REMARK    2  A    between atoms: C_5  and  C_17
REMARK    3  A    between atoms: C_13  and  C_14
REMARK    4  A    between atoms: C_14  and  C_15
REMARK    5  A    between atoms: C_17  and  C_20
REMARK                            x       y       z     vdW  Elec       q    Type
REMARK                         _______ _______ _______ _____ _____    ______ ____
ROOT
ATOM      1  N   UNL     1      34.774 -17.351 -22.827  0.00  0.00    -0.249 N 
ATOM      2  N   UNL     1      34.855 -16.510 -20.765  0.00  0.00    -0.385 NA
ATOM      3  N   UNL     1      33.851 -15.447 -24.020  0.00  0.00    -0.227 NA
ATOM      4  N   UNL     1      33.448 -13.569 -22.513  0.00  0.00    -0.227 NA
ATOM      5  C   UNL     1      35.085 -17.532 -21.527  0.00  0.00    +0.169 C 
ATOM      6  C   UNL     1      34.290 -16.078 -22.921  0.00  0.00    +0.167 C 
ATOM      7  C   UNL     1      34.348 -15.573 -21.631  0.00  0.00    +0.195 C 
ATOM      8  C   UNL     1      33.906 -14.267 -21.447  0.00  0.00    +0.155 C 
ATOM      9  C   UNL     1      33.449 -14.194 -23.717  0.00  0.00    +0.253 C 
ATOM     10  N   UNL     1      33.929 -13.674 -20.172  0.00  0.00    -0.341 N 
ATOM     11  H   UNL     1      33.613 -12.749 -20.054  0.00  0.00    +0.144 HD
ATOM     12  H   UNL     1      34.262 -14.184 -19.398  0.00  0.00    +0.144 HD
ENDROOT
BRANCH   1  13
ATOM     13  C   UNL     1      34.913 -18.292 -23.915  0.00  0.00    +0.099 C 
BRANCH  13  14
ATOM     14  C   UNL     1      33.613 -19.047 -24.190  0.00  0.00    +0.022 C 
BRANCH  14  15
ATOM     15  C   UNL     1      32.544 -18.114 -24.760  0.00  0.00    +0.002 C 
ATOM     16  C   UNL     1      31.469 -18.890 -25.506  0.00  0.00    +0.000 C 
ENDBRANCH  14  15
ENDBRANCH  13  14
ENDBRANCH   1  13
BRANCH   5  17
ATOM     17  C   UNL     1      35.658 -18.849 -21.043  0.00  0.00    +0.102 C 
BRANCH  17  20
ATOM     18  O   UNL     1      34.378 -22.414 -17.875  0.00  0.00    -0.435 OA
ATOM     19  O   UNL     1      32.027 -22.127 -18.324  0.00  0.00    -0.435 OA
ATOM     20  C   UNL     1      34.662 -19.706 -20.335  0.00  0.00    -0.011 C 
ATOM     21  C   UNL     1      35.099 -20.666 -19.420  0.00  0.00    +0.036 C 
ATOM     22  C   UNL     1      33.291 -19.539 -20.596  0.00  0.00    -0.000 C 
ATOM     23  C   UNL     1      34.142 -21.435 -18.791  0.00  0.00    +0.176 C 
ATOM     24  C   UNL     1      32.799 -21.271 -19.047  0.00  0.00    +0.176 C 
ATOM     25  C   UNL     1      32.341 -20.330 -19.946  0.00  0.00    +0.040 C 
ATOM     26  C   UNL     1      33.034 -22.849 -17.584  0.00  0.00    +0.429 C 
ENDBRANCH  17  20
ENDBRANCH   5  17
TORSDOF 5
ENDMDL
MODEL 6
REMARK VINA RESULT:      -9.7      3.235      5.712
REMARK  Name = 448968
REMARK  5 active torsions:
REMARK  status: ('A' for Active; 'I' for Inactive)
REMARK    1  A    between atoms: N_1  and  C_13
REMARK    2  A    between atoms: C_5  and  C_17
REMARK    3  A    between atoms: C_13  and  C_14
REMARK    4  A    between atoms: C_14  and  C_15
REMARK    5  A    between atoms: C_17  and  C_20
REMARK                            x       y       z     vdW  Elec       q    Type
REMARK                         _______ _______ _______ _____ _____    ______ ____
ROOT
ATOM      1  N   UNL     1      32.774 -22.704 -16.582  0.00  0.00    -0.249 N 
ATOM      2  N   UNL     1      32.931 -22.654 -14.360  0.00  0.00    -0.385 NA
ATOM      3  N   UNL     1      30.406 -23.190 -16.823  0.00  0.00    -0.227 NA
ATOM      4  N   UNL     1      29.319 -23.395 -14.647  0.00  0.00    -0.227 NA
ATOM      5  C   UNL     1      33.550 -22.537 -15.491  0.00  0.00    +0.169 C 
ATOM      6  C   UNL     1      31.518 -22.957 -16.110  0.00  0.00    +0.167 C 
ATOM      7  C   UNL     1      31.637 -22.922 -14.729  0.00  0.00    +0.195 C 
ATOM      8  C   UNL     1      30.479 -23.152 -13.992  0.00  0.00    +0.155 C 
ATOM      9  C   UNL     1      29.354 -23.400 -16.002  0.00  0.00    +0.253 C 
ATOM     10  N   UNL     1      30.507 -23.135 -12.587  0.00  0.00    -0.341 N 
ATOM     11  H   UNL     1      29.682 -23.300 -12.076  0.00  0.00    +0.144 HD
ATOM     12  H   UNL     1      31.352 -22.958 -12.113  0.00  0.00    +0.144 HD
ENDROOT
BRANCH   1  13
ATOM     13  C   UNL     1      33.164 -22.635 -17.972  0.00  0.00    +0.099 C 
BRANCH  13  14
ATOM     14  C   UNL     1      32.674 -21.353 -18.643  0.00  0.00    +0.022 C 
BRANCH  14  15
ATOM     15  C   UNL     1      33.725 -20.796 -19.601  0.00  0.00    +0.002 C 
ATOM     16  C   UNL     1      35.128 -21.229 -19.202  0.00  0.00    +0.000 C 
ENDBRANCH  14  15
ENDBRANCH  13  14
ENDBRANCH   1  13
BRANCH   5  17
ATOM     17  C   UNL     1      35.029 -22.237 -15.632  0.00  0.00    +0.102 C 
BRANCH  17  20
ATOM     18  O   UNL     1      39.378 -24.214 -14.384  0.00  0.00    -0.435 OA
ATOM     19  O   UNL     1      38.431 -26.415 -14.121  0.00  0.00    -0.435 OA
ATOM     20  C   UNL     1      35.908 -23.373 -15.230  0.00  0.00    -0.011 C 
ATOM     21  C   UNL     1      37.269 -23.154 -15.009  0.00  0.00    +0.036 C 
ATOM     22  C   UNL     1      35.356 -24.657 -15.075  0.00  0.00    -0.000 C 
ATOM     23  C   UNL     1      38.041 -24.236 -14.639  0.00  0.00    +0.176 C 
ATOM     24  C   UNL     1      37.500 -25.493 -14.487  0.00  0.00    +0.176 C 
ATOM     25  C   UNL     1      36.159 -25.737 -14.699  0.00  0.00    +0.040 C 
ATOM     26  C   UNL     1      39.619 -25.598 -14.057  0.00  0.00    +0.429 C 
ENDBRANCH  17  20
ENDBRANCH   5  17
TORSDOF 5
ENDMDL
MODEL 7
REMARK VINA RESULT:      -9.6      4.125      6.226
REMARK  Name = 448968
REMARK  5 active torsions:
REMARK  status: ('A' for Active; 'I' for Inactive)
REMARK    1  A    between atoms: N_1  and  C_13
REMARK    2  A    between atoms: C_5  and  C_17
REMARK    3  A    between atoms: C_13  and  C_14
REMARK    4  A    between atoms: C_14  and  C_15
REMARK    5  A    between atoms: C_17  and  C_20
REMARK                            x       y       z     vdW  Elec       q    Type
REMARK                         _______ _______ _______ _____ _____    ______ ____
ROOT
ATOM      1  N   UNL     1      33.628 -22.828 -14.307  0.00  0.00    -0.249 N 
ATOM      2  N   UNL     1      32.554 -24.197 -12.914  0.00  0.00    -0.385 NA
ATOM      3  N   UNL     1      31.885 -22.462 -15.959  0.00  0.00    -0.227 NA
ATOM      4  N   UNL     1      29.852 -23.687 -15.388  0.00  0.00    -0.227 NA
ATOM      5  C   UNL     1      33.654 -23.565 -13.177  0.00  0.00    +0.169 C 
ATOM      6  C   UNL     1      32.380 -22.999 -14.834  0.00  0.00    +0.167 C 
ATOM      7  C   UNL     1      31.730 -23.852 -13.955  0.00  0.00    +0.195 C 
ATOM      8  C   UNL     1      30.417 -24.193 -14.265  0.00  0.00    +0.155 C 
ATOM      9  C   UNL     1      30.611 -22.865 -16.154  0.00  0.00    +0.253 C 
ATOM     10  N   UNL     1      29.682 -25.052 -13.431  0.00  0.00    -0.341 N 
ATOM     11  H   UNL     1      28.754 -25.287 -13.661  0.00  0.00    +0.144 HD
ATOM     12  H   UNL     1      30.095 -25.419 -12.615  0.00  0.00    +0.144 HD
ENDROOT
BRANCH   1  13
ATOM     13  C   UNL     1      34.685 -22.017 -14.866  0.00  0.00    +0.099 C 
BRANCH  13  14
ATOM     14  C   UNL     1      35.456 -22.755 -15.959  0.00  0.00    +0.022 C 
BRANCH  14  15
ATOM     15  C   UNL     1      36.894 -22.247 -16.058  0.00  0.00    +0.002 C 
ATOM     16  C   UNL     1      36.940 -20.777 -16.445  0.00  0.00    +0.000 C 
ENDBRANCH  14  15
ENDBRANCH  13  14
ENDBRANCH   1  13
BRANCH   5  17
ATOM     17  C   UNL     1      34.900 -23.617 -12.314  0.00  0.00    +0.102 C 
BRANCH  17  20
ATOM     18  O   UNL     1      39.659 -24.299 -13.438  0.00  0.00    -0.435 OA
ATOM     19  O   UNL     1      39.205 -26.354 -14.614  0.00  0.00    -0.435 OA
ATOM     20  C   UNL     1      36.024 -24.372 -12.939  0.00  0.00    -0.011 C 
ATOM     21  C   UNL     1      37.328 -23.884 -12.838  0.00  0.00    +0.036 C 
ATOM     22  C   UNL     1      35.760 -25.571 -13.624  0.00  0.00    -0.000 C 
ATOM     23  C   UNL     1      38.335 -24.617 -13.432  0.00  0.00    +0.176 C 
ATOM     24  C   UNL     1      38.076 -25.791 -14.103  0.00  0.00    +0.176 C 
ATOM     25  C   UNL     1      36.798 -26.296 -14.217  0.00  0.00    +0.040 C 
ATOM     26  C   UNL     1      40.204 -25.403 -14.189  0.00  0.00    +0.429 C 
ENDBRANCH  17  20
ENDBRANCH   5  17
TORSDOF 5
ENDMDL
MODEL 8
REMARK VINA RESULT:      -9.3      3.607      6.386
REMARK  Name = 448968
REMARK  5 active torsions:
REMARK  status: ('A' for Active; 'I' for Inactive)
REMARK    1  A    between atoms: N_1  and  C_13
REMARK    2  A    between atoms: C_5  and  C_17
REMARK    3  A    between atoms: C_13  and  C_14
REMARK    4  A    between atoms: C_14  and  C_15
REMARK    5  A    between atoms: C_17  and  C_20
REMARK                            x       y       z     vdW  Elec       q    Type
REMARK                         _______ _______ _______ _____ _____    ______ ____
ROOT
ATOM      1  N   UNL     1      34.640 -22.930 -14.225  0.00  0.00    -0.249 N 
ATOM      2  N   UNL     1      33.213 -22.866 -15.935  0.00  0.00    -0.385 NA
ATOM      3  N   UNL     1      36.642 -22.095 -15.319  0.00  0.00    -0.227 NA
ATOM      4  N   UNL     1      36.219 -21.586 -17.669  0.00  0.00    -0.227 NA
ATOM      5  C   UNL     1      33.391 -23.149 -14.684  0.00  0.00    +0.169 C 
ATOM      6  C   UNL     1      35.349 -22.455 -15.290  0.00  0.00    +0.167 C 
ATOM      7  C   UNL     1      34.446 -22.422 -16.342  0.00  0.00    +0.195 C 
ATOM      8  C   UNL     1      34.923 -21.966 -17.566  0.00  0.00    +0.155 C 
ATOM      9  C   UNL     1      36.987 -21.674 -16.555  0.00  0.00    +0.253 C 
ATOM     10  N   UNL     1      34.077 -21.900 -18.686  0.00  0.00    -0.341 N 
ATOM     11  H   UNL     1      34.425 -21.576 -19.549  0.00  0.00    +0.144 HD
ATOM     12  H   UNL     1      33.135 -22.176 -18.609  0.00  0.00    +0.144 HD
ENDROOT
BRANCH   1  13
ATOM     13  C   UNL     1      35.149 -23.146 -12.890  0.00  0.00    +0.099 C 
BRANCH  13  14
ATOM     14  C   UNL     1      35.872 -24.486 -12.762  0.00  0.00    +0.022 C 
BRANCH  14  15
ATOM     15  C   UNL     1      37.245 -24.312 -12.115  0.00  0.00    +0.002 C 
ATOM     16  C   UNL     1      38.364 -24.702 -13.069  0.00  0.00    +0.000 C 
ENDBRANCH  14  15
ENDBRANCH  13  14
ENDBRANCH   1  13
BRANCH   5  17
ATOM     17  C   UNL     1      32.311 -23.688 -13.766  0.00  0.00    +0.102 C 
BRANCH  17  20
ATOM     18  O   UNL     1      28.672 -21.752 -16.483  0.00  0.00    -0.435 OA
ATOM     19  O   UNL     1      27.258 -23.679 -16.171  0.00  0.00    -0.435 OA
ATOM     20  C   UNL     1      30.958 -23.719 -14.393  0.00  0.00    -0.011 C 
ATOM     21  C   UNL     1      30.522 -22.634 -15.156  0.00  0.00    +0.036 C 
ATOM     22  C   UNL     1      30.133 -24.844 -14.212  0.00  0.00    -0.000 C 
ATOM     23  C   UNL     1      29.263 -22.708 -15.716  0.00  0.00    +0.176 C 
ATOM     24  C   UNL     1      28.456 -23.809 -15.538  0.00  0.00    +0.176 C 
ATOM     25  C   UNL     1      28.863 -24.894 -14.790  0.00  0.00    +0.040 C 
ATOM     26  C   UNL     1      27.402 -22.373 -16.768  0.00  0.00    +0.429 C 
ENDBRANCH  17  20
ENDBRANCH   5  17
TORSDOF 5
ENDMDL
MODEL 9
REMARK VINA RESULT:      -9.2      3.269      5.762
REMARK  Name = 448968
REMARK  5 active torsions:
REMARK  status: ('A' for Active; 'I' for Inactive)
REMARK    1  A    between atoms: N_1  and  C_13
REMARK    2  A    between atoms: C_5  and  C_17
REMARK    3  A    between atoms: C_13  and  C_14
REMARK    4  A    between atoms: C_14  and  C_15
REMARK    5  A    between atoms: C_17  and  C_20
REMARK                            x       y       z     vdW  Elec       q    Type
REMARK                         _______ _______ _______ _____ _____    ______ ____
ROOT
ATOM      1  N   UNL     1      31.828 -22.326 -16.804  0.00  0.00    -0.249 N 
ATOM      2  N   UNL     1      32.237 -23.498 -14.953  0.00  0.00    -0.385 NA
ATOM      3  N   UNL     1      29.399 -22.351 -16.787  0.00  0.00    -0.227 NA
ATOM      4  N   UNL     1      28.541 -23.578 -14.859  0.00  0.00    -0.227 NA
ATOM      5  C   UNL     1      32.738 -22.856 -15.961  0.00  0.00    +0.169 C 
ATOM      6  C   UNL     1      30.607 -22.658 -16.291  0.00  0.00    +0.167 C 
ATOM      7  C   UNL     1      30.883 -23.385 -15.142  0.00  0.00    +0.195 C 
ATOM      8  C   UNL     1      29.792 -23.850 -14.416  0.00  0.00    +0.155 C 
ATOM      9  C   UNL     1      28.424 -22.856 -16.000  0.00  0.00    +0.253 C 
ATOM     10  N   UNL     1      29.978 -24.596 -13.240  0.00  0.00    -0.341 N 
ATOM     11  H   UNL     1      29.198 -24.921 -12.734  0.00  0.00    +0.144 HD
ATOM     12  H   UNL     1      30.888 -24.793 -12.920  0.00  0.00    +0.144 HD
ENDROOT
BRANCH   1  13
ATOM     13  C   UNL     1      32.067 -21.562 -18.007  0.00  0.00    +0.099 C 
BRANCH  13  14
ATOM     14  C   UNL     1      33.257 -22.099 -18.800  0.00  0.00    +0.022 C 
BRANCH  14  15
ATOM     15  C   UNL     1      34.001 -20.970 -19.513  0.00  0.00    +0.002 C 
ATOM     16  C   UNL     1      35.503 -21.066 -19.293  0.00  0.00    +0.000 C 
ENDBRANCH  14  15
ENDBRANCH  13  14
ENDBRANCH   1  13
BRANCH   5  17
ATOM     17  C   UNL     1      34.223 -22.686 -16.216  0.00  0.00    +0.102 C 
BRANCH  17  20
ATOM     18  O   UNL     1      37.257 -22.473 -12.328  0.00  0.00    -0.435 OA
ATOM     19  O   UNL     1      37.475 -24.871 -12.221  0.00  0.00    -0.435 OA
ATOM     20  C   UNL     1      35.081 -23.302 -15.164  0.00  0.00    -0.011 C 
ATOM     21  C   UNL     1      35.751 -22.486 -14.250  0.00  0.00    +0.036 C 
ATOM     22  C   UNL     1      35.208 -24.701 -15.100  0.00  0.00    -0.000 C 
ATOM     23  C   UNL     1      36.534 -23.101 -13.294  0.00  0.00    +0.176 C 
ATOM     24  C   UNL     1      36.658 -24.471 -13.232  0.00  0.00    +0.176 C 
ATOM     25  C   UNL     1      36.006 -25.300 -14.123  0.00  0.00    +0.040 C 
ATOM     26  C   UNL     1      37.851 -23.600 -11.651  0.00  0.00    +0.429 C 
ENDBRANCH  17  20
ENDBRANCH   5  17
TORSDOF 5
ENDMDL
