MODEL 1
REMARK VINA RESULT:     -12.0      0.000      0.000
REMARK  Name = 11442891
REMARK  5 active torsions:
REMARK  status: ('A' for Active; 'I' for Inactive)
REMARK    1  A    between atoms: C_12  and  C_30
REMARK    2  A    between atoms: C_13  and  C_19
REMARK    3  A    between atoms: C_16  and  N_22
REMARK    4  A    between atoms: C_30  and  C_31
REMARK    5  A    between atoms: C_30  and  O_37
REMARK                            x       y       z     vdW  Elec       q    Type
REMARK                         _______ _______ _______ _____ _____    ______ ____
ROOT
ATOM      1  O   UNL     1      32.042 -11.497 -20.893  0.00  0.00    -0.271 OA
ATOM      2  O   UNL     1      34.805 -19.030 -23.462  0.00  0.00    -0.270 OA
ATOM      3  N   UNL     1      32.787 -12.739 -22.696  0.00  0.00    -0.231 N 
ATOM      4  N   UNL     1      33.996 -15.174 -25.049  0.00  0.00    -0.273 N 
ATOM      5  N   UNL     1      34.214 -16.388 -24.482  0.00  0.00    -0.157 NA
ATOM      6  N   UNL     1      33.954 -17.207 -22.243  0.00  0.00    -0.264 N 
ATOM      7  C   UNL     1      32.970 -14.000 -21.905  0.00  0.00    +0.077 C 
ATOM      8  C   UNL     1      33.455 -14.905 -22.947  0.00  0.00    +0.067 A 
ATOM      9  C   UNL     1      33.145 -12.874 -24.148  0.00  0.00    +0.091 C 
ATOM     10  C   UNL     1      33.543 -14.279 -24.151  0.00  0.00    +0.093 A 
ATOM     11  C   UNL     1      33.879 -16.208 -23.191  0.00  0.00    +0.157 A 
ATOM     12  C   UNL     1      32.327 -11.581 -22.088  0.00  0.00    +0.265 C 
ATOM     13  C   UNL     1      34.398 -18.524 -22.422  0.00  0.00    +0.251 C 
ATOM     14  H   UNL     1      34.148 -14.973 -26.000  0.00  0.00    +0.189 HD
ATOM     15  H   UNL     1      33.659 -16.968 -21.334  0.00  0.00    +0.157 HD
ENDROOT
BRANCH  13  19
ATOM     16  C   UNL     1      34.378 -20.955 -18.904  0.00  0.00    +0.048 C 
ATOM     17  C   UNL     1      33.175 -20.611 -19.521  0.00  0.00    +0.015 C 
ATOM     18  C   UNL     1      35.588 -20.506 -19.434  0.00  0.00    +0.015 C 
ATOM     19  C   UNL     1      34.391 -19.369 -21.199  0.00  0.00    +0.054 C 
ATOM     20  C   UNL     1      33.182 -19.818 -20.668  0.00  0.00    +0.006 C 
ATOM     21  C   UNL     1      35.594 -19.713 -20.582  0.00  0.00    +0.006 C 
BRANCH  16  22
ATOM     22  N   UNL     1      34.372 -21.749 -17.752  0.00  0.00    -0.312 N 
ATOM     23  N   UNL     1      34.425 -23.571 -15.553  0.00  0.00    +0.388 N 
ATOM     24  C   UNL     1      35.628 -22.002 -17.037  0.00  0.00    +0.068 C 
ATOM     25  C   UNL     1      33.358 -22.806 -17.647  0.00  0.00    +0.068 C 
ATOM     26  C   UNL     1      35.347 -22.430 -15.595  0.00  0.00    -0.056 C 
ATOM     27  C   UNL     1      33.151 -23.206 -16.184  0.00  0.00    -0.056 C 
ATOM     28  C   UNL     1      34.207 -24.005 -14.173  0.00  0.00    -0.101 C 
ATOM     29  H   UNL     1      34.837 -24.348 -16.068  0.00  0.00    -0.080 HD
ENDBRANCH  16  22
ENDBRANCH  13  19
BRANCH  12  30
ATOM     30  C   UNL     1      32.188 -10.384 -22.995  0.00  0.00    +0.214 C 
BRANCH  30  31
ATOM     31  C   UNL     1      31.770  -9.167 -22.220  0.00  0.00    +0.013 C 
ATOM     32  C   UNL     1      31.207  -8.077 -22.883  0.00  0.00    -0.001 C 
ATOM     33  C   UNL     1      31.944  -9.127 -20.836  0.00  0.00    -0.001 C 
ATOM     34  C   UNL     1      30.818  -6.947 -22.164  0.00  0.00    -0.000 C 
ATOM     35  C   UNL     1      31.556  -7.997 -20.116  0.00  0.00    -0.000 C 
ATOM     36  C   UNL     1      30.993  -6.907 -20.780  0.00  0.00    -0.000 C 
ENDBRANCH  30  31
BRANCH  30  37
ATOM     37  O   UNL     1      33.444 -10.179 -23.614  0.00  0.00    -0.340 OA
ATOM     38  C   UNL     1      33.886  -8.832 -23.479  0.00  0.00    +0.175 C 
ENDBRANCH  30  37
ENDBRANCH  12  30
TORSDOF 5
ENDMDL
MODEL 2
REMARK VINA RESULT:     -12.0      0.011      1.155
REMARK  Name = 11442891
REMARK  5 active torsions:
REMARK  status: ('A' for Active; 'I' for Inactive)
REMARK    1  A    between atoms: C_12  and  C_30
REMARK    2  A    between atoms: C_13  and  C_19
REMARK    3  A    between atoms: C_16  and  N_22
REMARK    4  A    between atoms: C_30  and  C_31
REMARK    5  A    between atoms: C_30  and  O_37
REMARK                            x       y       z     vdW  Elec       q    Type
REMARK                         _______ _______ _______ _____ _____    ______ ____
ROOT
ATOM      1  O   UNL     1      32.042 -11.494 -20.895  0.00  0.00    -0.271 OA
ATOM      2  O   UNL     1      34.799 -19.031 -23.459  0.00  0.00    -0.270 OA
ATOM      3  N   UNL     1      32.788 -12.738 -22.697  0.00  0.00    -0.231 N 
ATOM      4  N   UNL     1      33.996 -15.175 -25.048  0.00  0.00    -0.273 N 
ATOM      5  N   UNL     1      34.212 -16.389 -24.481  0.00  0.00    -0.157 NA
ATOM      6  N   UNL     1      33.948 -17.208 -22.241  0.00  0.00    -0.264 N 
ATOM      7  C   UNL     1      32.968 -13.999 -21.905  0.00  0.00    +0.077 C 
ATOM      8  C   UNL     1      33.454 -14.905 -22.946  0.00  0.00    +0.067 A 
ATOM      9  C   UNL     1      33.147 -12.874 -24.149  0.00  0.00    +0.091 C 
ATOM     10  C   UNL     1      33.543 -14.279 -24.150  0.00  0.00    +0.093 A 
ATOM     11  C   UNL     1      33.876 -16.208 -23.190  0.00  0.00    +0.157 A 
ATOM     12  C   UNL     1      32.329 -11.579 -22.090  0.00  0.00    +0.265 C 
ATOM     13  C   UNL     1      34.392 -18.524 -22.420  0.00  0.00    +0.251 C 
ATOM     14  H   UNL     1      34.150 -14.974 -25.999  0.00  0.00    +0.189 HD
ATOM     15  H   UNL     1      33.653 -16.968 -21.333  0.00  0.00    +0.157 HD
ENDROOT
BRANCH  13  19
ATOM     16  C   UNL     1      34.366 -20.956 -18.902  0.00  0.00    +0.048 C 
ATOM     17  C   UNL     1      35.576 -20.506 -19.430  0.00  0.00    +0.015 C 
ATOM     18  C   UNL     1      33.164 -20.613 -19.521  0.00  0.00    +0.015 C 
ATOM     19  C   UNL     1      34.383 -19.370 -21.197  0.00  0.00    +0.054 C 
ATOM     20  C   UNL     1      35.584 -19.713 -20.577  0.00  0.00    +0.006 C 
ATOM     21  C   UNL     1      33.172 -19.819 -20.669  0.00  0.00    +0.006 C 
BRANCH  16  22
ATOM     22  N   UNL     1      34.357 -21.753 -17.752  0.00  0.00    -0.312 N 
ATOM     23  N   UNL     1      34.403 -23.580 -15.557  0.00  0.00    +0.388 N 
ATOM     24  C   UNL     1      35.612 -22.011 -17.038  0.00  0.00    +0.068 C 
ATOM     25  C   UNL     1      33.339 -22.805 -17.649  0.00  0.00    +0.068 C 
ATOM     26  C   UNL     1      35.330 -22.442 -15.596  0.00  0.00    -0.056 C 
ATOM     27  C   UNL     1      33.130 -23.208 -16.187  0.00  0.00    -0.056 C 
ATOM     28  C   UNL     1      34.184 -24.016 -14.178  0.00  0.00    -0.101 C 
ATOM     29  H   UNL     1      34.813 -24.357 -16.074  0.00  0.00    -0.080 HD
ENDBRANCH  16  22
ENDBRANCH  13  19
BRANCH  12  30
ATOM     30  C   UNL     1      32.192 -10.382 -22.997  0.00  0.00    +0.214 C 
BRANCH  30  31
ATOM     31  C   UNL     1      31.774  -9.165 -22.222  0.00  0.00    +0.013 C 
ATOM     32  C   UNL     1      31.949  -9.124 -20.839  0.00  0.00    -0.001 C 
ATOM     33  C   UNL     1      31.211  -8.075 -22.885  0.00  0.00    -0.001 C 
ATOM     34  C   UNL     1      31.561  -7.995 -20.119  0.00  0.00    -0.000 C 
ATOM     35  C   UNL     1      30.822  -6.945 -22.166  0.00  0.00    -0.000 C 
ATOM     36  C   UNL     1      30.996  -6.905 -20.783  0.00  0.00    -0.000 C 
ENDBRANCH  30  31
BRANCH  30  37
ATOM     37  O   UNL     1      33.449 -10.179 -23.614  0.00  0.00    -0.340 OA
ATOM     38  C   UNL     1      33.891  -8.831 -23.481  0.00  0.00    +0.175 C 
ENDBRANCH  30  37
ENDBRANCH  12  30
TORSDOF 5
ENDMDL
MODEL 3
REMARK VINA RESULT:     -11.2      1.516      2.367
REMARK  Name = 11442891
REMARK  5 active torsions:
REMARK  status: ('A' for Active; 'I' for Inactive)
REMARK    1  A    between atoms: C_12  and  C_30
REMARK    2  A    between atoms: C_13  and  C_19
REMARK    3  A    between atoms: C_16  and  N_22
REMARK    4  A    between atoms: C_30  and  C_31
REMARK    5  A    between atoms: C_30  and  O_37
REMARK                            x       y       z     vdW  Elec       q    Type
REMARK                         _______ _______ _______ _____ _____    ______ ____
ROOT
ATOM      1  O   UNL     1      32.261 -12.846 -19.884  0.00  0.00    -0.271 OA
ATOM      2  O   UNL     1      35.948 -20.219 -21.624  0.00  0.00    -0.270 OA
ATOM      3  N   UNL     1      33.211 -14.158 -21.534  0.00  0.00    -0.231 N 
ATOM      4  N   UNL     1      34.777 -16.647 -23.603  0.00  0.00    -0.273 N 
ATOM      5  N   UNL     1      35.107 -17.769 -22.914  0.00  0.00    -0.157 NA
ATOM      6  N   UNL     1      34.851 -18.400 -20.614  0.00  0.00    -0.264 N 
ATOM      7  C   UNL     1      33.502 -15.310 -20.619  0.00  0.00    +0.077 C 
ATOM      8  C   UNL     1      34.127 -16.247 -21.553  0.00  0.00    +0.067 A 
ATOM      9  C   UNL     1      33.640 -14.386 -22.956  0.00  0.00    +0.091 C 
ATOM     10  C   UNL     1      34.192 -15.730 -22.809  0.00  0.00    +0.093 A 
ATOM     11  C   UNL     1      34.703 -17.509 -21.657  0.00  0.00    +0.157 A 
ATOM     12  C   UNL     1      32.601 -13.008 -21.056  0.00  0.00    +0.265 C 
ATOM     13  C   UNL     1      35.447 -19.667 -20.651  0.00  0.00    +0.251 C 
ATOM     14  H   UNL     1      34.944 -16.520 -24.564  0.00  0.00    +0.189 HD
ATOM     15  H   UNL     1      34.496 -18.112 -19.741  0.00  0.00    +0.157 HD
ENDROOT
BRANCH  13  19
ATOM     16  C   UNL     1      35.559 -21.745 -16.914  0.00  0.00    +0.048 C 
ATOM     17  C   UNL     1      34.510 -21.969 -17.806  0.00  0.00    +0.015 C 
ATOM     18  C   UNL     1      36.571 -20.843 -17.241  0.00  0.00    +0.015 C 
ATOM     19  C   UNL     1      35.486 -20.390 -19.352  0.00  0.00    +0.054 C 
ATOM     20  C   UNL     1      34.473 -21.292 -19.025  0.00  0.00    +0.006 C 
ATOM     21  C   UNL     1      36.535 -20.165 -18.460  0.00  0.00    +0.006 C 
BRANCH  16  22
ATOM     22  N   UNL     1      35.595 -22.423 -15.691  0.00  0.00    -0.312 N 
ATOM     23  N   UNL     1      35.690 -23.576 -13.079  0.00  0.00    +0.388 N 
ATOM     24  C   UNL     1      34.360 -22.595 -14.919  0.00  0.00    +0.068 C 
ATOM     25  C   UNL     1      36.833 -22.363 -14.905  0.00  0.00    +0.068 C 
ATOM     26  C   UNL     1      34.504 -23.751 -13.926  0.00  0.00    -0.056 C 
ATOM     27  C   UNL     1      36.897 -23.528 -13.915  0.00  0.00    -0.056 C 
ATOM     28  C   UNL     1      35.786 -24.658 -12.100  0.00  0.00    -0.101 C 
ATOM     29  H   UNL     1      35.606 -22.696 -12.572  0.00  0.00    -0.080 HD
ENDBRANCH  16  22
ENDBRANCH  13  19
BRANCH  12  30
ATOM     30  C   UNL     1      32.365 -11.925 -22.079  0.00  0.00    +0.214 C 
BRANCH  30  31
ATOM     31  C   UNL     1      31.909 -10.654 -21.421  0.00  0.00    +0.013 C 
ATOM     32  C   UNL     1      31.899  -9.460 -22.143  0.00  0.00    -0.001 C 
ATOM     33  C   UNL     1      31.496 -10.667 -20.089  0.00  0.00    -0.001 C 
ATOM     34  C   UNL     1      31.476  -8.280 -21.533  0.00  0.00    -0.000 C 
ATOM     35  C   UNL     1      31.074  -9.487 -19.478  0.00  0.00    -0.000 C 
ATOM     36  C   UNL     1      31.063  -8.293 -20.200  0.00  0.00    -0.000 C 
ENDBRANCH  30  31
BRANCH  30  37
ATOM     37  O   UNL     1      33.585 -11.727 -22.767  0.00  0.00    -0.340 OA
ATOM     38  C   UNL     1      33.378 -11.524 -24.161  0.00  0.00    +0.175 C 
ENDBRANCH  30  37
ENDBRANCH  12  30
TORSDOF 5
ENDMDL
MODEL 4
REMARK VINA RESULT:     -11.1      5.033      8.926
REMARK  Name = 11442891
REMARK  5 active torsions:
REMARK  status: ('A' for Active; 'I' for Inactive)
REMARK    1  A    between atoms: C_12  and  C_30
REMARK    2  A    between atoms: C_13  and  C_19
REMARK    3  A    between atoms: C_16  and  N_22
REMARK    4  A    between atoms: C_30  and  C_31
REMARK    5  A    between atoms: C_30  and  O_37
REMARK                            x       y       z     vdW  Elec       q    Type
REMARK                         _______ _______ _______ _____ _____    ______ ____
ROOT
ATOM      1  O   UNL     1      35.033  -5.489 -27.137  0.00  0.00    -0.271 OA
ATOM      2  O   UNL     1      30.634  -9.727 -21.334  0.00  0.00    -0.270 OA
ATOM      3  N   UNL     1      33.340  -5.368 -25.566  0.00  0.00    -0.231 N 
ATOM      4  N   UNL     1      30.853  -5.830 -23.010  0.00  0.00    -0.273 N 
ATOM      5  N   UNL     1      30.851  -7.089 -22.503  0.00  0.00    -0.157 NA
ATOM      6  N   UNL     1      32.166  -9.038 -22.980  0.00  0.00    -0.264 N 
ATOM      7  C   UNL     1      33.480  -6.795 -25.129  0.00  0.00    +0.077 C 
ATOM      8  C   UNL     1      32.438  -6.868 -24.105  0.00  0.00    +0.067 A 
ATOM      9  C   UNL     1      32.263  -4.612 -24.841  0.00  0.00    +0.091 C 
ATOM     10  C   UNL     1      31.792  -5.679 -23.964  0.00  0.00    +0.093 A 
ATOM     11  C   UNL     1      31.828  -7.716 -23.185  0.00  0.00    +0.157 A 
ATOM     12  C   UNL     1      34.157  -4.846 -26.557  0.00  0.00    +0.265 C 
ATOM     13  C   UNL     1      31.571  -9.945 -22.094  0.00  0.00    +0.251 C 
ATOM     14  H   UNL     1      30.245  -5.115 -22.716  0.00  0.00    +0.189 HD
ATOM     15  H   UNL     1      32.914  -9.384 -23.520  0.00  0.00    +0.157 HD
ENDROOT
BRANCH  13  19
ATOM     16  C   UNL     1      33.200 -13.899 -22.157  0.00  0.00    +0.048 C 
ATOM     17  C   UNL     1      33.438 -13.029 -23.221  0.00  0.00    +0.015 C 
ATOM     18  C   UNL     1      32.430 -13.479 -21.072  0.00  0.00    +0.015 C 
ATOM     19  C   UNL     1      32.137 -11.319 -22.116  0.00  0.00    +0.054 C 
ATOM     20  C   UNL     1      32.907 -11.739 -23.201  0.00  0.00    +0.006 C 
ATOM     21  C   UNL     1      31.899 -12.189 -21.051  0.00  0.00    +0.006 C 
BRANCH  16  22
ATOM     22  N   UNL     1      33.731 -15.193 -22.178  0.00  0.00    -0.312 N 
ATOM     23  N   UNL     1      35.045 -17.727 -22.278  0.00  0.00    +0.388 N 
ATOM     24  C   UNL     1      34.384 -15.729 -20.979  0.00  0.00    +0.068 C 
ATOM     25  C   UNL     1      34.224 -15.717 -23.458  0.00  0.00    +0.068 C 
ATOM     26  C   UNL     1      34.428 -17.259 -21.030  0.00  0.00    -0.056 C 
ATOM     27  C   UNL     1      34.271 -17.246 -23.429  0.00  0.00    -0.056 C 
ATOM     28  C   UNL     1      35.130 -19.187 -22.291  0.00  0.00    -0.101 C 
ATOM     29  H   UNL     1      35.992 -17.353 -22.338  0.00  0.00    -0.080 HD
ENDBRANCH  16  22
ENDBRANCH  13  19
BRANCH  12  30
ATOM     30  C   UNL     1      33.913  -3.398 -26.903  0.00  0.00    +0.214 C 
BRANCH  30  31
ATOM     31  C   UNL     1      35.059  -2.834 -27.695  0.00  0.00    +0.013 C 
ATOM     32  C   UNL     1      34.970  -2.746 -29.084  0.00  0.00    -0.001 C 
ATOM     33  C   UNL     1      36.211  -2.399 -27.041  0.00  0.00    -0.001 C 
ATOM     34  C   UNL     1      36.033  -2.222 -29.819  0.00  0.00    -0.000 C 
ATOM     35  C   UNL     1      37.275  -1.876 -27.776  0.00  0.00    -0.000 C 
ATOM     36  C   UNL     1      37.187  -1.787 -29.165  0.00  0.00    -0.000 C 
ENDBRANCH  30  31
BRANCH  30  37
ATOM     37  O   UNL     1      32.711  -3.343 -27.648  0.00  0.00    -0.340 OA
ATOM     38  C   UNL     1      31.918  -2.217 -27.286  0.00  0.00    +0.175 C 
ENDBRANCH  30  37
ENDBRANCH  12  30
TORSDOF 5
ENDMDL
MODEL 5
REMARK VINA RESULT:     -11.0      2.797     12.044
REMARK  Name = 11442891
REMARK  5 active torsions:
REMARK  status: ('A' for Active; 'I' for Inactive)
REMARK    1  A    between atoms: C_12  and  C_30
REMARK    2  A    between atoms: C_13  and  C_19
REMARK    3  A    between atoms: C_16  and  N_22
REMARK    4  A    between atoms: C_30  and  C_31
REMARK    5  A    between atoms: C_30  and  O_37
REMARK                            x       y       z     vdW  Elec       q    Type
REMARK                         _______ _______ _______ _____ _____    ______ ____
ROOT
ATOM      1  O   UNL     1      30.250 -21.533 -16.822  0.00  0.00    -0.271 OA
ATOM      2  O   UNL     1      36.024 -18.212 -21.981  0.00  0.00    -0.270 OA
ATOM      3  N   UNL     1      32.251 -21.892 -17.925  0.00  0.00    -0.231 N 
ATOM      4  N   UNL     1      35.276 -21.819 -19.867  0.00  0.00    -0.273 N 
ATOM      5  N   UNL     1      35.464 -20.633 -20.499  0.00  0.00    -0.157 NA
ATOM      6  N   UNL     1      34.183 -18.606 -20.570  0.00  0.00    -0.264 N 
ATOM      7  C   UNL     1      32.293 -20.526 -18.544  0.00  0.00    +0.077 C 
ATOM      8  C   UNL     1      33.545 -20.610 -19.297  0.00  0.00    +0.067 A 
ATOM      9  C   UNL     1      33.421 -22.761 -18.287  0.00  0.00    +0.091 C 
ATOM     10  C   UNL     1      34.138 -21.824 -19.146  0.00  0.00    +0.093 A 
ATOM     11  C   UNL     1      34.394 -19.900 -20.141  0.00  0.00    +0.157 A 
ATOM     12  C   UNL     1      31.199 -22.266 -17.102  0.00  0.00    +0.265 C 
ATOM     13  C   UNL     1      34.983 -17.853 -21.440  0.00  0.00    +0.251 C 
ATOM     14  H   UNL     1      35.895 -22.582 -19.927  0.00  0.00    +0.189 HD
ATOM     15  H   UNL     1      33.377 -18.158 -20.224  0.00  0.00    +0.157 HD
ENDROOT
BRANCH  13  19
ATOM     16  C   UNL     1      33.542 -13.923 -22.311  0.00  0.00    +0.048 C 
ATOM     17  C   UNL     1      33.684 -14.335 -20.986  0.00  0.00    +0.015 C 
ATOM     18  C   UNL     1      33.869 -14.792 -23.352  0.00  0.00    +0.015 C 
ATOM     19  C   UNL     1      34.482 -16.487 -21.743  0.00  0.00    +0.054 C 
ATOM     20  C   UNL     1      34.154 -15.618 -20.702  0.00  0.00    +0.006 C 
ATOM     21  C   UNL     1      34.340 -16.074 -23.067  0.00  0.00    +0.006 C 
BRANCH  16  22
ATOM     22  N   UNL     1      33.068 -12.638 -22.597  0.00  0.00    -0.312 N 
ATOM     23  N   UNL     1      31.975 -10.118 -23.382  0.00  0.00    +0.388 N 
ATOM     24  C   UNL     1      31.753 -12.221 -22.100  0.00  0.00    +0.068 C 
ATOM     25  C   UNL     1      33.506 -12.002 -23.846  0.00  0.00    +0.068 C 
ATOM     26  C   UNL     1      31.649 -10.694 -22.071  0.00  0.00    -0.056 C 
ATOM     27  C   UNL     1      33.347 -10.483 -23.759  0.00  0.00    -0.056 C 
ATOM     28  C   UNL     1      31.820  -8.664 -23.357  0.00  0.00    -0.101 C 
ATOM     29  H   UNL     1      31.331 -10.494 -24.077  0.00  0.00    -0.080 HD
ENDBRANCH  16  22
ENDBRANCH  13  19
BRANCH  12  30
ATOM     30  C   UNL     1      31.277 -23.665 -16.545  0.00  0.00    +0.214 C 
BRANCH  30  31
ATOM     31  C   UNL     1      32.106 -23.701 -15.293  0.00  0.00    +0.013 C 
ATOM     32  C   UNL     1      31.597 -23.175 -14.105  0.00  0.00    -0.001 C 
ATOM     33  C   UNL     1      33.384 -24.258 -15.317  0.00  0.00    -0.001 C 
ATOM     34  C   UNL     1      32.366 -23.208 -12.942  0.00  0.00    -0.000 C 
ATOM     35  C   UNL     1      34.154 -24.290 -14.155  0.00  0.00    -0.000 C 
ATOM     36  C   UNL     1      33.645 -23.765 -12.967  0.00  0.00    -0.000 C 
ENDBRANCH  30  31
BRANCH  30  37
ATOM     37  O   UNL     1      29.952 -24.086 -16.284  0.00  0.00    -0.340 OA
ATOM     38  C   UNL     1      29.908 -25.111 -15.296  0.00  0.00    +0.175 C 
ENDBRANCH  30  37
ENDBRANCH  12  30
TORSDOF 5
ENDMDL
MODEL 6
REMARK VINA RESULT:     -10.8      1.370      2.330
REMARK  Name = 11442891
REMARK  5 active torsions:
REMARK  status: ('A' for Active; 'I' for Inactive)
REMARK    1  A    between atoms: C_12  and  C_30
REMARK    2  A    between atoms: C_13  and  C_19
REMARK    3  A    between atoms: C_16  and  N_22
REMARK    4  A    between atoms: C_30  and  C_31
REMARK    5  A    between atoms: C_30  and  O_37
REMARK                            x       y       z     vdW  Elec       q    Type
REMARK                         _______ _______ _______ _____ _____    ______ ____
ROOT
ATOM      1  O   UNL     1      31.876  -9.935 -21.226  0.00  0.00    -0.271 OA
ATOM      2  O   UNL     1      34.122 -17.192 -24.867  0.00  0.00    -0.270 OA
ATOM      3  N   UNL     1      32.263 -11.020 -23.231  0.00  0.00    -0.231 N 
ATOM      4  N   UNL     1      33.002 -13.244 -25.958  0.00  0.00    -0.273 N 
ATOM      5  N   UNL     1      33.332 -14.492 -25.542  0.00  0.00    -0.157 NA
ATOM      6  N   UNL     1      33.516 -15.486 -23.366  0.00  0.00    -0.264 N 
ATOM      7  C   UNL     1      32.602 -12.334 -22.592  0.00  0.00    +0.077 C 
ATOM      8  C   UNL     1      32.879 -13.147 -23.776  0.00  0.00    +0.067 A 
ATOM      9  C   UNL     1      32.332 -11.037 -24.731  0.00  0.00    +0.091 C 
ATOM     10  C   UNL     1      32.728 -12.429 -24.921  0.00  0.00    +0.093 A 
ATOM     11  C   UNL     1      33.254 -14.419 -24.200  0.00  0.00    +0.157 A 
ATOM     12  C   UNL     1      31.924  -9.921 -22.456  0.00  0.00    +0.265 C 
ATOM     13  C   UNL     1      33.923 -16.776 -23.731  0.00  0.00    +0.251 C 
ATOM     14  H   UNL     1      32.966 -12.967 -26.902  0.00  0.00    +0.189 HD
ATOM     15  H   UNL     1      33.403 -15.323 -22.401  0.00  0.00    +0.157 HD
ENDROOT
BRANCH  13  19
ATOM     16  C   UNL     1      34.600 -19.469 -20.479  0.00  0.00    +0.048 C 
ATOM     17  C   UNL     1      35.294 -18.261 -20.540  0.00  0.00    +0.015 C 
ATOM     18  C   UNL     1      33.685 -19.799 -21.479  0.00  0.00    +0.015 C 
ATOM     19  C   UNL     1      34.158 -17.712 -22.601  0.00  0.00    +0.054 C 
ATOM     20  C   UNL     1      35.073 -17.382 -21.600  0.00  0.00    +0.006 C 
ATOM     21  C   UNL     1      33.464 -18.920 -22.540  0.00  0.00    +0.006 C 
BRANCH  16  22
ATOM     22  N   UNL     1      34.822 -20.352 -19.416  0.00  0.00    -0.312 N 
ATOM     23  N   UNL     1      35.295 -22.343 -17.423  0.00  0.00    +0.388 N 
ATOM     24  C   UNL     1      36.195 -20.691 -19.029  0.00  0.00    +0.068 C 
ATOM     25  C   UNL     1      33.814 -21.387 -19.156  0.00  0.00    +0.068 C 
ATOM     26  C   UNL     1      36.232 -21.225 -17.594  0.00  0.00    -0.056 C 
ATOM     27  C   UNL     1      33.927 -21.897 -17.718  0.00  0.00    -0.056 C 
ATOM     28  C   UNL     1      35.378 -22.879 -16.065  0.00  0.00    -0.101 C 
ATOM     29  H   UNL     1      35.547 -23.086 -18.074  0.00  0.00    -0.080 HD
ENDBRANCH  16  22
ENDBRANCH  13  19
BRANCH  12  30
ATOM     30  C   UNL     1      31.606  -8.661 -23.222  0.00  0.00    +0.214 C 
BRANCH  30  31
ATOM     31  C   UNL     1      31.313  -7.523 -22.286  0.00  0.00    +0.013 C 
ATOM     32  C   UNL     1      31.851  -7.522 -20.999  0.00  0.00    -0.001 C 
ATOM     33  C   UNL     1      30.503  -6.467 -22.704  0.00  0.00    -0.001 C 
ATOM     34  C   UNL     1      31.579  -6.466 -20.130  0.00  0.00    -0.000 C 
ATOM     35  C   UNL     1      30.230  -5.411 -21.835  0.00  0.00    -0.000 C 
ATOM     36  C   UNL     1      30.768  -5.410 -20.548  0.00  0.00    -0.000 C 
ENDBRANCH  30  31
BRANCH  30  37
ATOM     37  O   UNL     1      32.728  -8.370 -24.033  0.00  0.00    -0.340 OA
ATOM     38  C   UNL     1      33.795  -7.807 -23.277  0.00  0.00    +0.175 C 
ENDBRANCH  30  37
ENDBRANCH  12  30
TORSDOF 5
ENDMDL
