MODEL 1
REMARK VINA RESULT:     -12.7      0.000      0.000
REMARK  Name = 2352168
REMARK  5 active torsions:
REMARK  status: ('A' for Active; 'I' for Inactive)
REMARK    1  A    between atoms: C_1  and  C_9
REMARK    2  A    between atoms: C_2  and  O_18
REMARK    3  A    between atoms: N_8  and  C_11
REMARK    4  A    between atoms: C_11  and  C_13
REMARK    5  A    between atoms: O_18  and  C_19
REMARK                            x       y       z     vdW  Elec       q    Type
REMARK                         _______ _______ _______ _____ _____    ______ ____
ROOT
ATOM      1  C   UNL     1      34.702 -19.785 -20.278  0.00  0.00    +0.054 C 
ATOM      2  C   UNL     1      33.547 -21.964 -18.975  0.00  0.00    +0.145 C 
ATOM      3  C   UNL     1      33.318 -19.952 -20.293  0.00  0.00    +0.008 C 
ATOM      4  C   UNL     1      35.509 -20.706 -19.611  0.00  0.00    +0.008 C 
ATOM      5  C   UNL     1      32.741 -21.042 -19.643  0.00  0.00    +0.038 C 
ATOM      6  C   UNL     1      34.932 -21.797 -18.961  0.00  0.00    +0.038 C 
ENDROOT
BRANCH   1   9
ATOM      7  O   UNL     1      36.435 -18.245 -20.631  0.00  0.00    -0.270 OA
ATOM      8  N   UNL     1      34.568 -18.063 -21.994  0.00  0.00    -0.296 N 
ATOM      9  C   UNL     1      35.305 -18.649 -20.958  0.00  0.00    +0.246 C 
ATOM     10  H   UNL     1      33.680 -18.433 -22.199  0.00  0.00    +0.150 HD
BRANCH   8  11
ATOM     11  C   UNL     1      35.041 -16.945 -22.778  0.00  0.00    +0.136 C 
BRANCH  11  13
ATOM     12  N   UNL     1      34.282 -15.526 -20.969  0.00  0.00    -0.246 NA
ATOM     13  C   UNL     1      34.468 -15.642 -22.299  0.00  0.00    +0.079 C 
ATOM     14  C   UNL     1      34.171 -14.660 -23.223  0.00  0.00    +0.016 C 
ATOM     15  C   UNL     1      33.642 -13.466 -22.747  0.00  0.00    +0.003 C 
ATOM     16  C   UNL     1      33.766 -14.351 -20.543  0.00  0.00    +0.099 C 
ATOM     17  C   UNL     1      33.432 -13.300 -21.382  0.00  0.00    +0.021 C 
ENDBRANCH  11  13
ENDBRANCH   8  11
ENDBRANCH   1   9
BRANCH   2  18
ATOM     18  O   UNL     1      32.984 -23.028 -18.342  0.00  0.00    -0.453 OA
BRANCH  18  19
ATOM     19  C   UNL     1      32.604 -22.864 -17.020  0.00  0.00    +0.145 C 
ATOM     20  C   UNL     1      31.272 -22.633 -16.726  0.00  0.00    +0.037 C 
ATOM     21  C   UNL     1      33.565 -22.936 -16.029  0.00  0.00    +0.037 C 
ATOM     22  C   UNL     1      30.890 -22.466 -15.395  0.00  0.00    +0.003 C 
ATOM     23  C   UNL     1      33.182 -22.770 -14.698  0.00  0.00    +0.003 C 
ATOM     24  C   UNL     1      31.844 -22.535 -14.381  0.00  0.00    +0.000 C 
ENDBRANCH  18  19
ENDBRANCH   2  18
TORSDOF 5
ENDMDL
MODEL 2
REMARK VINA RESULT:     -12.7      0.058      1.009
REMARK  Name = 2352168
REMARK  5 active torsions:
REMARK  status: ('A' for Active; 'I' for Inactive)
REMARK    1  A    between atoms: C_1  and  C_9
REMARK    2  A    between atoms: C_2  and  O_18
REMARK    3  A    between atoms: N_8  and  C_11
REMARK    4  A    between atoms: C_11  and  C_13
REMARK    5  A    between atoms: O_18  and  C_19
REMARK                            x       y       z     vdW  Elec       q    Type
REMARK                         _______ _______ _______ _____ _____    ______ ____
ROOT
ATOM      1  C   UNL     1      34.709 -19.806 -20.258  0.00  0.00    +0.054 C 
ATOM      2  C   UNL     1      33.568 -21.985 -18.944  0.00  0.00    +0.145 C 
ATOM      3  C   UNL     1      33.328 -19.990 -20.285  0.00  0.00    +0.008 C 
ATOM      4  C   UNL     1      35.521 -20.710 -19.574  0.00  0.00    +0.008 C 
ATOM      5  C   UNL     1      32.757 -21.080 -19.629  0.00  0.00    +0.038 C 
ATOM      6  C   UNL     1      34.951 -21.800 -18.918  0.00  0.00    +0.038 C 
ENDROOT
BRANCH   1   9
ATOM      7  O   UNL     1      36.436 -18.262 -20.625  0.00  0.00    -0.270 OA
ATOM      8  N   UNL     1      34.560 -18.087 -21.976  0.00  0.00    -0.296 N 
ATOM      9  C   UNL     1      35.305 -18.669 -20.944  0.00  0.00    +0.246 C 
ATOM     10  H   UNL     1      33.671 -18.460 -22.175  0.00  0.00    +0.150 HD
BRANCH   8  11
ATOM     11  C   UNL     1      35.024 -16.969 -22.765  0.00  0.00    +0.136 C 
BRANCH  11  13
ATOM     12  N   UNL     1      34.270 -15.564 -20.944  0.00  0.00    -0.246 NA
ATOM     13  C   UNL     1      34.466 -15.665 -22.273  0.00  0.00    +0.079 C 
ATOM     14  C   UNL     1      34.190 -14.667 -23.187  0.00  0.00    +0.016 C 
ATOM     15  C   UNL     1      33.674 -13.472 -22.699  0.00  0.00    +0.003 C 
ATOM     16  C   UNL     1      33.768 -14.387 -20.506  0.00  0.00    +0.099 C 
ATOM     17  C   UNL     1      33.455 -13.321 -21.334  0.00  0.00    +0.021 C 
ENDBRANCH  11  13
ENDBRANCH   8  11
ENDBRANCH   1   9
BRANCH   2  18
ATOM     18  O   UNL     1      33.012 -23.050 -18.305  0.00  0.00    -0.453 OA
BRANCH  18  19
ATOM     19  C   UNL     1      32.648 -22.887 -16.979  0.00  0.00    +0.145 C 
ATOM     20  C   UNL     1      33.615 -23.002 -15.997  0.00  0.00    +0.037 C 
ATOM     21  C   UNL     1      31.328 -22.615 -16.671  0.00  0.00    +0.037 C 
ATOM     22  C   UNL     1      33.248 -22.839 -14.660  0.00  0.00    +0.003 C 
ATOM     23  C   UNL     1      30.962 -22.452 -15.335  0.00  0.00    +0.003 C 
ATOM     24  C   UNL     1      31.922 -22.564 -14.330  0.00  0.00    +0.000 C 
ENDBRANCH  18  19
ENDBRANCH   2  18
TORSDOF 5
ENDMDL
MODEL 3
REMARK VINA RESULT:     -12.4      2.588      4.899
REMARK  Name = 2352168
REMARK  5 active torsions:
REMARK  status: ('A' for Active; 'I' for Inactive)
REMARK    1  A    between atoms: C_1  and  C_9
REMARK    2  A    between atoms: C_2  and  O_18
REMARK    3  A    between atoms: N_8  and  C_11
REMARK    4  A    between atoms: C_11  and  C_13
REMARK    5  A    between atoms: O_18  and  C_19
REMARK                            x       y       z     vdW  Elec       q    Type
REMARK                         _______ _______ _______ _____ _____    ______ ____
ROOT
ATOM      1  C   UNL     1      34.114 -16.222 -23.263  0.00  0.00    +0.054 C 
ATOM      2  C   UNL     1      35.059 -18.382 -21.773  0.00  0.00    +0.145 C 
ATOM      3  C   UNL     1      34.131 -17.499 -23.820  0.00  0.00    +0.008 C 
ATOM      4  C   UNL     1      34.570 -16.024 -21.959  0.00  0.00    +0.008 C 
ATOM      5  C   UNL     1      34.604 -18.579 -23.076  0.00  0.00    +0.038 C 
ATOM      6  C   UNL     1      35.044 -17.104 -21.215  0.00  0.00    +0.038 C 
ENDROOT
BRANCH   1   9
ATOM      7  O   UNL     1      33.288 -15.246 -25.228  0.00  0.00    -0.270 OA
ATOM      8  N   UNL     1      33.524 -13.863 -23.382  0.00  0.00    -0.296 N 
ATOM      9  C   UNL     1      33.622 -15.095 -24.040  0.00  0.00    +0.246 C 
ATOM     10  H   UNL     1      33.806 -13.815 -22.440  0.00  0.00    +0.150 HD
BRANCH   8  11
ATOM     11  C   UNL     1      33.031 -12.659 -24.011  0.00  0.00    +0.136 C 
BRANCH  11  13
ATOM     12  N   UNL     1      32.237 -10.459 -23.386  0.00  0.00    -0.246 NA
ATOM     13  C   UNL     1      32.344 -11.754 -23.030  0.00  0.00    +0.079 C 
ATOM     14  C   UNL     1      31.871 -12.285 -21.846  0.00  0.00    +0.016 C 
ATOM     15  C   UNL     1      31.239 -11.421 -20.958  0.00  0.00    +0.003 C 
ATOM     16  C   UNL     1      31.617  -9.648 -22.499  0.00  0.00    +0.099 C 
ATOM     17  C   UNL     1      31.106 -10.075 -21.284  0.00  0.00    +0.021 C 
ENDBRANCH  11  13
ENDBRANCH   8  11
ENDBRANCH   1   9
BRANCH   2  18
ATOM     18  O   UNL     1      35.523 -19.436 -21.047  0.00  0.00    -0.453 OA
BRANCH  18  19
ATOM     19  C   UNL     1      34.613 -20.134 -20.271  0.00  0.00    +0.145 C 
ATOM     20  C   UNL     1      35.078 -21.081 -19.377  0.00  0.00    +0.037 C 
ATOM     21  C   UNL     1      33.264 -19.867 -20.411  0.00  0.00    +0.037 C 
ATOM     22  C   UNL     1      34.160 -21.786 -18.596  0.00  0.00    +0.003 C 
ATOM     23  C   UNL     1      32.347 -20.571 -19.630  0.00  0.00    +0.003 C 
ATOM     24  C   UNL     1      32.796 -21.531 -18.723  0.00  0.00    +0.000 C 
ENDBRANCH  18  19
ENDBRANCH   2  18
TORSDOF 5
ENDMDL
MODEL 4
REMARK VINA RESULT:     -11.8      2.988      8.794
REMARK  Name = 2352168
REMARK  5 active torsions:
REMARK  status: ('A' for Active; 'I' for Inactive)
REMARK    1  A    between atoms: C_1  and  C_9
REMARK    2  A    between atoms: C_2  and  O_18
REMARK    3  A    between atoms: N_8  and  C_11
REMARK    4  A    between atoms: C_11  and  C_13
REMARK    5  A    between atoms: O_18  and  C_19
REMARK                            x       y       z     vdW  Elec       q    Type
REMARK                         _______ _______ _______ _____ _____    ______ ____
ROOT
ATOM      1  C   UNL     1      33.581 -21.054 -19.114  0.00  0.00    +0.054 C 
ATOM      2  C   UNL     1      34.614 -19.473 -21.167  0.00  0.00    +0.145 C 
ATOM      3  C   UNL     1      34.961 -20.935 -19.275  0.00  0.00    +0.008 C 
ATOM      4  C   UNL     1      32.717 -20.383 -19.979  0.00  0.00    +0.008 C 
ATOM      5  C   UNL     1      35.477 -20.145 -20.302  0.00  0.00    +0.038 C 
ATOM      6  C   UNL     1      33.234 -19.593 -21.006  0.00  0.00    +0.038 C 
ENDROOT
BRANCH   1   9
ATOM      7  O   UNL     1      31.829 -22.153 -18.009  0.00  0.00    -0.270 OA
ATOM      8  N   UNL     1      33.949 -22.356 -17.090  0.00  0.00    -0.296 N 
ATOM      9  C   UNL     1      33.042 -21.879 -18.044  0.00  0.00    +0.246 C 
ATOM     10  H   UNL     1      34.895 -22.098 -17.179  0.00  0.00    +0.150 HD
BRANCH   8  11
ATOM     11  C   UNL     1      33.571 -23.204 -15.983  0.00  0.00    +0.136 C 
BRANCH  11  13
ATOM     12  N   UNL     1      35.168 -24.870 -15.252  0.00  0.00    -0.246 NA
ATOM     13  C   UNL     1      34.755 -23.592 -15.145  0.00  0.00    +0.079 C 
ATOM     14  C   UNL     1      35.339 -22.643 -14.329  0.00  0.00    +0.016 C 
ATOM     15  C   UNL     1      36.433 -23.035 -13.566  0.00  0.00    +0.003 C 
ATOM     16  C   UNL     1      36.234 -25.215 -14.495  0.00  0.00    +0.099 C 
ATOM     17  C   UNL     1      36.895 -24.344 -13.644  0.00  0.00    +0.021 C 
ENDBRANCH  11  13
ENDBRANCH   8  11
ENDBRANCH   1   9
BRANCH   2  18
ATOM     18  O   UNL     1      35.118 -18.704 -22.170  0.00  0.00    -0.453 OA
BRANCH  18  19
ATOM     19  C   UNL     1      34.723 -17.377 -22.225  0.00  0.00    +0.145 C 
ATOM     20  C   UNL     1      34.621 -16.657 -21.048  0.00  0.00    +0.037 C 
ATOM     21  C   UNL     1      34.441 -16.808 -23.453  0.00  0.00    +0.037 C 
ATOM     22  C   UNL     1      34.223 -15.321 -21.103  0.00  0.00    +0.003 C 
ATOM     23  C   UNL     1      34.043 -15.472 -23.507  0.00  0.00    +0.003 C 
ATOM     24  C   UNL     1      33.934 -14.729 -22.332  0.00  0.00    +0.000 C 
ENDBRANCH  18  19
ENDBRANCH   2  18
TORSDOF 5
ENDMDL
MODEL 5
REMARK VINA RESULT:     -11.7      2.925      8.681
REMARK  Name = 2352168
REMARK  5 active torsions:
REMARK  status: ('A' for Active; 'I' for Inactive)
REMARK    1  A    between atoms: C_1  and  C_9
REMARK    2  A    between atoms: C_2  and  O_18
REMARK    3  A    between atoms: N_8  and  C_11
REMARK    4  A    between atoms: C_11  and  C_13
REMARK    5  A    between atoms: O_18  and  C_19
REMARK                            x       y       z     vdW  Elec       q    Type
REMARK                         _______ _______ _______ _____ _____    ______ ____
ROOT
ATOM      1  C   UNL     1      33.526 -20.978 -19.244  0.00  0.00    +0.054 C 
ATOM      2  C   UNL     1      34.587 -19.387 -21.275  0.00  0.00    +0.145 C 
ATOM      3  C   UNL     1      32.675 -20.325 -20.136  0.00  0.00    +0.008 C 
ATOM      4  C   UNL     1      34.908 -20.837 -19.368  0.00  0.00    +0.008 C 
ATOM      5  C   UNL     1      33.206 -19.530 -21.150  0.00  0.00    +0.038 C 
ATOM      6  C   UNL     1      35.439 -20.040 -20.383  0.00  0.00    +0.038 C 
ENDROOT
BRANCH   1   9
ATOM      7  O   UNL     1      31.745 -21.996 -18.108  0.00  0.00    -0.270 OA
ATOM      8  N   UNL     1      33.880 -22.389 -17.292  0.00  0.00    -0.296 N 
ATOM      9  C   UNL     1      32.972 -21.808 -18.185  0.00  0.00    +0.246 C 
ATOM     10  H   UNL     1      34.838 -22.196 -17.412  0.00  0.00    +0.150 HD
BRANCH   8  11
ATOM     11  C   UNL     1      33.487 -23.255 -16.204  0.00  0.00    +0.136 C 
BRANCH  11  13
ATOM     12  N   UNL     1      35.090 -24.805 -15.261  0.00  0.00    -0.246 NA
ATOM     13  C   UNL     1      34.629 -23.538 -15.272  0.00  0.00    +0.079 C 
ATOM     14  C   UNL     1      35.132 -22.513 -14.496  0.00  0.00    +0.016 C 
ATOM     15  C   UNL     1      36.190 -22.809 -13.643  0.00  0.00    +0.003 C 
ATOM     16  C   UNL     1      36.119 -25.056 -14.420  0.00  0.00    +0.099 C 
ATOM     17  C   UNL     1      36.698 -24.102 -13.599  0.00  0.00    +0.021 C 
ENDBRANCH  11  13
ENDBRANCH   8  11
ENDBRANCH   1   9
BRANCH   2  18
ATOM     18  O   UNL     1      35.106 -18.609 -22.264  0.00  0.00    -0.453 OA
BRANCH  18  19
ATOM     19  C   UNL     1      34.692 -17.289 -22.328  0.00  0.00    +0.145 C 
ATOM     20  C   UNL     1      34.358 -16.748 -23.557  0.00  0.00    +0.037 C 
ATOM     21  C   UNL     1      34.626 -16.546 -21.164  0.00  0.00    +0.037 C 
ATOM     22  C   UNL     1      33.943 -15.418 -23.622  0.00  0.00    +0.003 C 
ATOM     23  C   UNL     1      34.210 -15.216 -21.230  0.00  0.00    +0.003 C 
ATOM     24  C   UNL     1      33.868 -14.652 -22.459  0.00  0.00    +0.000 C 
ENDBRANCH  18  19
ENDBRANCH   2  18
TORSDOF 5
ENDMDL
MODEL 6
REMARK VINA RESULT:     -11.6      2.211      8.218
REMARK  Name = 2352168
REMARK  5 active torsions:
REMARK  status: ('A' for Active; 'I' for Inactive)
REMARK    1  A    between atoms: C_1  and  C_9
REMARK    2  A    between atoms: C_2  and  O_18
REMARK    3  A    between atoms: N_8  and  C_11
REMARK    4  A    between atoms: C_11  and  C_13
REMARK    5  A    between atoms: O_18  and  C_19
REMARK                            x       y       z     vdW  Elec       q    Type
REMARK                         _______ _______ _______ _____ _____    ______ ____
ROOT
ATOM      1  C   UNL     1      34.867 -20.388 -19.827  0.00  0.00    +0.054 C 
ATOM      2  C   UNL     1      34.994 -18.325 -21.700  0.00  0.00    +0.145 C 
ATOM      3  C   UNL     1      36.067 -19.710 -20.037  0.00  0.00    +0.008 C 
ATOM      4  C   UNL     1      33.729 -20.035 -20.553  0.00  0.00    +0.008 C 
ATOM      5  C   UNL     1      36.131 -18.679 -20.974  0.00  0.00    +0.038 C 
ATOM      6  C   UNL     1      33.793 -19.004 -21.491  0.00  0.00    +0.038 C 
ENDROOT
BRANCH   1   9
ATOM      7  O   UNL     1      35.762 -21.688 -18.093  0.00  0.00    -0.270 OA
ATOM      8  N   UNL     1      33.612 -22.200 -18.795  0.00  0.00    -0.296 N 
ATOM      9  C   UNL     1      34.801 -21.464 -18.850  0.00  0.00    +0.246 C 
ATOM     10  H   UNL     1      32.892 -21.969 -19.424  0.00  0.00    +0.150 HD
BRANCH   8  11
ATOM     11  C   UNL     1      33.385 -23.282 -17.864  0.00  0.00    +0.136 C 
BRANCH  11  13
ATOM     12  N   UNL     1      31.169 -22.563 -17.207  0.00  0.00    -0.246 NA
ATOM     13  C   UNL     1      32.405 -22.904 -16.792  0.00  0.00    +0.079 C 
ATOM     14  C   UNL     1      32.813 -22.926 -15.473  0.00  0.00    +0.016 C 
ATOM     15  C   UNL     1      31.882 -22.570 -14.504  0.00  0.00    +0.003 C 
ATOM     16  C   UNL     1      30.290 -22.223 -16.237  0.00  0.00    +0.099 C 
ATOM     17  C   UNL     1      30.593 -22.210 -14.885  0.00  0.00    +0.021 C 
ENDBRANCH  11  13
ENDBRANCH   8  11
ENDBRANCH   1   9
BRANCH   2  18
ATOM     18  O   UNL     1      35.056 -17.321 -22.617  0.00  0.00    -0.453 OA
BRANCH  18  19
ATOM     19  C   UNL     1      34.576 -16.077 -22.242  0.00  0.00    +0.145 C 
ATOM     20  C   UNL     1      34.399 -15.105 -23.210  0.00  0.00    +0.037 C 
ATOM     21  C   UNL     1      34.289 -15.838 -20.911  0.00  0.00    +0.037 C 
ATOM     22  C   UNL     1      33.917 -13.851 -22.832  0.00  0.00    +0.003 C 
ATOM     23  C   UNL     1      33.806 -14.585 -20.534  0.00  0.00    +0.003 C 
ATOM     24  C   UNL     1      33.620 -13.591 -21.495  0.00  0.00    +0.000 C 
ENDBRANCH  18  19
ENDBRANCH   2  18
TORSDOF 5
ENDMDL
MODEL 7
REMARK VINA RESULT:     -11.6      3.514      9.655
REMARK  Name = 2352168
REMARK  5 active torsions:
REMARK  status: ('A' for Active; 'I' for Inactive)
REMARK    1  A    between atoms: C_1  and  C_9
REMARK    2  A    between atoms: C_2  and  O_18
REMARK    3  A    between atoms: N_8  and  C_11
REMARK    4  A    between atoms: C_11  and  C_13
REMARK    5  A    between atoms: O_18  and  C_19
REMARK                            x       y       z     vdW  Elec       q    Type
REMARK                         _______ _______ _______ _____ _____    ______ ____
ROOT
ATOM      1  C   UNL     1      33.448 -14.266 -22.081  0.00  0.00    +0.054 C 
ATOM      2  C   UNL     1      31.575 -12.295 -21.463  0.00  0.00    +0.145 C 
ATOM      3  C   UNL     1      32.901 -13.481 -23.095  0.00  0.00    +0.008 C 
ATOM      4  C   UNL     1      33.059 -14.066 -20.757  0.00  0.00    +0.008 C 
ATOM      5  C   UNL     1      31.964 -12.497 -22.786  0.00  0.00    +0.038 C 
ATOM      6  C   UNL     1      32.121 -13.080 -20.448  0.00  0.00    +0.038 C 
ENDROOT
BRANCH   1   9
ATOM      7  O   UNL     1      35.103 -15.217 -23.443  0.00  0.00    -0.270 OA
ATOM      8  N   UNL     1      34.572 -16.342 -21.486  0.00  0.00    -0.296 N 
ATOM      9  C   UNL     1      34.425 -15.295 -22.403  0.00  0.00    +0.246 C 
ATOM     10  H   UNL     1      34.001 -16.342 -20.684  0.00  0.00    +0.150 HD
BRANCH   8  11
ATOM     11  C   UNL     1      35.515 -17.424 -21.654  0.00  0.00    +0.136 C 
BRANCH  11  13
ATOM     12  N   UNL     1      36.063 -19.314 -20.243  0.00  0.00    -0.246 NA
ATOM     13  C   UNL     1      35.093 -18.657 -20.909  0.00  0.00    +0.079 C 
ATOM     14  C   UNL     1      33.767 -19.043 -20.948  0.00  0.00    +0.016 C 
ATOM     15  C   UNL     1      33.408 -20.189 -20.249  0.00  0.00    +0.003 C 
ATOM     16  C   UNL     1      35.677 -20.424 -19.574  0.00  0.00    +0.099 C 
ATOM     17  C   UNL     1      34.376 -20.899 -19.546  0.00  0.00    +0.021 C 
ENDBRANCH  11  13
ENDBRANCH   8  11
ENDBRANCH   1   9
BRANCH   2  18
ATOM     18  O   UNL     1      30.659 -11.334 -21.161  0.00  0.00    -0.453 OA
BRANCH  18  19
ATOM     19  C   UNL     1      31.124 -10.051 -20.925  0.00  0.00    +0.145 C 
ATOM     20  C   UNL     1      31.162  -9.578 -19.625  0.00  0.00    +0.037 C 
ATOM     21  C   UNL     1      31.537  -9.278 -21.993  0.00  0.00    +0.037 C 
ATOM     22  C   UNL     1      31.630  -8.285 -19.388  0.00  0.00    +0.003 C 
ATOM     23  C   UNL     1      32.006  -7.985 -21.755  0.00  0.00    +0.003 C 
ATOM     24  C   UNL     1      32.052  -7.489 -20.452  0.00  0.00    +0.000 C 
ENDBRANCH  18  19
ENDBRANCH   2  18
TORSDOF 5
ENDMDL
MODEL 8
REMARK VINA RESULT:     -11.4      1.650      2.189
REMARK  Name = 2352168
REMARK  5 active torsions:
REMARK  status: ('A' for Active; 'I' for Inactive)
REMARK    1  A    between atoms: C_1  and  C_9
REMARK    2  A    between atoms: C_2  and  O_18
REMARK    3  A    between atoms: N_8  and  C_11
REMARK    4  A    between atoms: C_11  and  C_13
REMARK    5  A    between atoms: O_18  and  C_19
REMARK                            x       y       z     vdW  Elec       q    Type
REMARK                         _______ _______ _______ _____ _____    ______ ____
ROOT
ATOM      1  C   UNL     1      34.218 -19.812 -20.687  0.00  0.00    +0.054 C 
ATOM      2  C   UNL     1      33.994 -21.621 -18.576  0.00  0.00    +0.145 C 
ATOM      3  C   UNL     1      32.964 -20.118 -20.161  0.00  0.00    +0.008 C 
ATOM      4  C   UNL     1      35.362 -20.410 -20.157  0.00  0.00    +0.008 C 
ATOM      5  C   UNL     1      32.852 -21.023 -19.107  0.00  0.00    +0.038 C 
ATOM      6  C   UNL     1      35.249 -21.316 -19.102  0.00  0.00    +0.038 C 
ENDROOT
BRANCH   1   9
ATOM      7  O   UNL     1      33.941 -19.177 -22.927  0.00  0.00    -0.270 OA
ATOM      8  N   UNL     1      34.882 -17.614 -21.496  0.00  0.00    -0.296 N 
ATOM      9  C   UNL     1      34.335 -18.868 -21.789  0.00  0.00    +0.246 C 
ATOM     10  H   UNL     1      35.175 -17.438 -20.573  0.00  0.00    +0.150 HD
BRANCH   8  11
ATOM     11  C   UNL     1      35.042 -16.564 -22.476  0.00  0.00    +0.136 C 
BRANCH  11  13
ATOM     12  N   UNL     1      34.103 -15.154 -20.747  0.00  0.00    -0.246 NA
ATOM     13  C   UNL     1      34.341 -15.302 -22.065  0.00  0.00    +0.079 C 
ATOM     14  C   UNL     1      33.987 -14.385 -23.036  0.00  0.00    +0.016 C 
ATOM     15  C   UNL     1      33.338 -13.227 -22.623  0.00  0.00    +0.003 C 
ATOM     16  C   UNL     1      33.471 -14.015 -20.382  0.00  0.00    +0.099 C 
ATOM     17  C   UNL     1      33.072 -13.031 -21.272  0.00  0.00    +0.021 C 
ENDBRANCH  11  13
ENDBRANCH   8  11
ENDBRANCH   1   9
BRANCH   2  18
ATOM     18  O   UNL     1      33.885 -22.506 -17.548  0.00  0.00    -0.453 OA
BRANCH  18  19
ATOM     19  C   UNL     1      34.842 -22.452 -16.548  0.00  0.00    +0.145 C 
ATOM     20  C   UNL     1      34.581 -23.061 -15.333  0.00  0.00    +0.037 C 
ATOM     21  C   UNL     1      36.032 -21.791 -16.788  0.00  0.00    +0.037 C 
ATOM     22  C   UNL     1      35.544 -23.006 -14.325  0.00  0.00    +0.003 C 
ATOM     23  C   UNL     1      36.995 -21.737 -15.780  0.00  0.00    +0.003 C 
ATOM     24  C   UNL     1      36.750 -22.344 -14.549  0.00  0.00    +0.000 C 
ENDBRANCH  18  19
ENDBRANCH   2  18
TORSDOF 5
ENDMDL
MODEL 9
REMARK VINA RESULT:     -11.3      2.235      8.209
REMARK  Name = 2352168
REMARK  5 active torsions:
REMARK  status: ('A' for Active; 'I' for Inactive)
REMARK    1  A    between atoms: C_1  and  C_9
REMARK    2  A    between atoms: C_2  and  O_18
REMARK    3  A    between atoms: N_8  and  C_11
REMARK    4  A    between atoms: C_11  and  C_13
REMARK    5  A    between atoms: O_18  and  C_19
REMARK                            x       y       z     vdW  Elec       q    Type
REMARK                         _______ _______ _______ _____ _____    ______ ____
ROOT
ATOM      1  C   UNL     1      34.315 -20.929 -19.668  0.00  0.00    +0.054 C 
ATOM      2  C   UNL     1      35.112 -18.775 -21.250  0.00  0.00    +0.145 C 
ATOM      3  C   UNL     1      33.381 -20.262 -20.460  0.00  0.00    +0.008 C 
ATOM      4  C   UNL     1      35.648 -20.520 -19.667  0.00  0.00    +0.008 C 
ATOM      5  C   UNL     1      33.779 -19.185 -21.250  0.00  0.00    +0.038 C 
ATOM      6  C   UNL     1      36.046 -19.442 -20.458  0.00  0.00    +0.038 C 
ENDROOT
BRANCH   1   9
ATOM      7  O   UNL     1      33.422 -23.076 -19.364  0.00  0.00    -0.270 OA
ATOM      8  N   UNL     1      34.084 -21.929 -17.461  0.00  0.00    -0.296 N 
ATOM      9  C   UNL     1      33.899 -22.053 -18.842  0.00  0.00    +0.246 C 
ATOM     10  H   UNL     1      34.466 -21.090 -17.116  0.00  0.00    +0.150 HD
BRANCH   8  11
ATOM     11  C   UNL     1      33.743 -22.966 -16.513  0.00  0.00    +0.136 C 
BRANCH  11  13
ATOM     12  N   UNL     1      31.358 -22.622 -16.748  0.00  0.00    -0.246 NA
ATOM     13  C   UNL     1      32.394 -22.739 -15.894  0.00  0.00    +0.079 C 
ATOM     14  C   UNL     1      32.292 -22.664 -14.519  0.00  0.00    +0.016 C 
ATOM     15  C   UNL     1      31.030 -22.453 -13.977  0.00  0.00    +0.003 C 
ATOM     16  C   UNL     1      30.146 -22.418 -16.185  0.00  0.00    +0.099 C 
ATOM     17  C   UNL     1      29.930 -22.326 -14.819  0.00  0.00    +0.021 C 
ENDBRANCH  11  13
ENDBRANCH   8  11
ENDBRANCH   1   9
BRANCH   2  18
ATOM     18  O   UNL     1      35.501 -17.722 -22.020  0.00  0.00    -0.453 OA
BRANCH  18  19
ATOM     19  C   UNL     1      34.811 -16.530 -21.877  0.00  0.00    +0.145 C 
ATOM     20  C   UNL     1      34.447 -16.110 -20.610  0.00  0.00    +0.037 C 
ATOM     21  C   UNL     1      34.502 -15.791 -23.004  0.00  0.00    +0.037 C 
ATOM     22  C   UNL     1      33.751 -14.910 -20.467  0.00  0.00    +0.003 C 
ATOM     23  C   UNL     1      33.807 -14.590 -22.860  0.00  0.00    +0.003 C 
ATOM     24  C   UNL     1      33.431 -14.150 -21.591  0.00  0.00    +0.000 C 
ENDBRANCH  18  19
ENDBRANCH   2  18
TORSDOF 5
ENDMDL
