MODEL 1
REMARK VINA RESULT:     -12.4      0.000      0.000
REMARK  Name = 49843471
REMARK  4 active torsions:
REMARK  status: ('A' for Active; 'I' for Inactive)
REMARK    1  A    between atoms: N_3  and  C_27
REMARK    2  A    between atoms: C_12  and  C_17
REMARK    3  A    between atoms: C_27  and  C_29
REMARK    4  A    between atoms: C_29  and  O_30
REMARK                            x       y       z     vdW  Elec       q    Type
REMARK                         _______ _______ _______ _____ _____    ______ ____
ROOT
ATOM      1  F   UNL     1      28.798 -24.396 -15.469  0.00  0.00    -0.204 F 
ATOM      2  O   UNL     1      36.690 -20.438 -18.260  0.00  0.00    -0.270 OA
ATOM      3  N   UNL     1      33.746 -23.035 -13.588  0.00  0.00    -0.321 N 
ATOM      4  N   UNL     1      35.238 -21.987 -17.276  0.00  0.00    -0.272 N 
ATOM      5  C   UNL     1      34.391 -22.724 -14.748  0.00  0.00    +0.037 A 
ATOM      6  C   UNL     1      33.519 -22.891 -15.802  0.00  0.00    +0.011 A 
ATOM      7  C   UNL     1      35.797 -22.264 -14.861  0.00  0.00    +0.065 C 
ATOM      8  C   UNL     1      33.905 -22.641 -17.221  0.00  0.00    +0.122 C 
ATOM      9  C   UNL     1      36.254 -22.466 -16.314  0.00  0.00    +0.100 C 
ATOM     10  C   UNL     1      32.280 -23.330 -15.255  0.00  0.00    +0.017 A 
ATOM     11  C   UNL     1      32.449 -23.411 -13.868  0.00  0.00    +0.060 A 
ATOM     12  C   UNL     1      35.593 -20.993 -18.196  0.00  0.00    +0.249 C 
ATOM     13  C   UNL     1      31.026 -23.669 -15.804  0.00  0.00    +0.031 C 
ATOM     14  C   UNL     1      31.422 -23.813 -13.006  0.00  0.00    +0.019 C 
ATOM     15  C   UNL     1      29.992 -24.073 -14.952  0.00  0.00    +0.140 C 
ATOM     16  C   UNL     1      30.189 -24.143 -13.575  0.00  0.00    +0.031 C 
ENDROOT
BRANCH  12  17
ATOM     17  C   UNL     1      34.587 -20.568 -19.181  0.00  0.00    +0.054 C 
ATOM     18  C   UNL     1      34.898 -19.728 -20.262  0.00  0.00    +0.004 C 
ATOM     19  C   UNL     1      33.288 -21.040 -18.997  0.00  0.00    +0.005 C 
ATOM     20  C   UNL     1      33.876 -19.362 -21.171  0.00  0.00    +0.000 C 
ATOM     21  C   UNL     1      36.201 -19.243 -20.464  0.00  0.00    +0.000 C 
ATOM     22  C   UNL     1      32.283 -20.680 -19.890  0.00  0.00    +0.000 C 
ATOM     23  C   UNL     1      32.574 -19.847 -20.970  0.00  0.00    +0.000 C 
ATOM     24  C   UNL     1      34.187 -18.522 -22.253  0.00  0.00    +0.000 C 
ATOM     25  C   UNL     1      36.492 -18.410 -21.544  0.00  0.00    +0.000 C 
ATOM     26  C   UNL     1      35.487 -18.050 -22.437  0.00  0.00    +0.000 C 
ENDBRANCH  12  17
BRANCH   3  27
ATOM     27  C   UNL     1      34.325 -22.971 -12.263  0.00  0.00    +0.216 C 
BRANCH  27  29
ATOM     28  O   UNL     1      34.778 -24.703 -10.645  0.00  0.00    -0.248 OA
ATOM     29  C   UNL     1      34.836 -24.311 -11.804  0.00  0.00    +0.337 C 
BRANCH  29  30
ATOM     30  O   UNL     1      35.400 -25.029 -12.807  0.00  0.00    -0.479 OA
ATOM     31  H   UNL     1      35.145 -24.874 -13.694  0.00  0.00    +0.295 HD
ENDBRANCH  29  30
ENDBRANCH  27  29
ENDBRANCH   3  27
TORSDOF 4
ENDMDL
MODEL 2
REMARK VINA RESULT:     -11.0      3.448      7.508
REMARK  Name = 49843471
REMARK  4 active torsions:
REMARK  status: ('A' for Active; 'I' for Inactive)
REMARK    1  A    between atoms: N_3  and  C_27
REMARK    2  A    between atoms: C_12  and  C_17
REMARK    3  A    between atoms: C_27  and  C_29
REMARK    4  A    between atoms: C_29  and  O_30
REMARK                            x       y       z     vdW  Elec       q    Type
REMARK                         _______ _______ _______ _____ _____    ______ ____
ROOT
ATOM      1  F   UNL     1      34.973 -21.318 -19.838  0.00  0.00    -0.204 F 
ATOM      2  O   UNL     1      33.939 -24.548 -11.222  0.00  0.00    -0.270 OA
ATOM      3  N   UNL     1      31.073 -22.411 -16.168  0.00  0.00    -0.321 N 
ATOM      4  N   UNL     1      33.607 -24.286 -13.523  0.00  0.00    -0.272 N 
ATOM      5  C   UNL     1      31.778 -23.115 -15.238  0.00  0.00    +0.037 A 
ATOM      6  C   UNL     1      33.091 -23.208 -15.649  0.00  0.00    +0.011 A 
ATOM      7  C   UNL     1      31.232 -23.677 -13.978  0.00  0.00    +0.065 C 
ATOM      8  C   UNL     1      34.138 -23.922 -14.864  0.00  0.00    +0.122 C 
ATOM      9  C   UNL     1      32.205 -24.751 -13.467  0.00  0.00    +0.100 C 
ATOM     10  C   UNL     1      33.188 -22.529 -16.897  0.00  0.00    +0.017 A 
ATOM     11  C   UNL     1      31.912 -22.039 -17.198  0.00  0.00    +0.060 A 
ATOM     12  C   UNL     1      34.357 -24.252 -12.341  0.00  0.00    +0.249 C 
ATOM     13  C   UNL     1      34.238 -22.281 -17.804  0.00  0.00    +0.031 C 
ATOM     14  C   UNL     1      31.639 -21.313 -18.362  0.00  0.00    +0.019 C 
ATOM     15  C   UNL     1      33.978 -21.556 -18.972  0.00  0.00    +0.140 C 
ATOM     16  C   UNL     1      32.697 -21.080 -19.245  0.00  0.00    +0.031 C 
ENDROOT
BRANCH  12  17
ATOM     17  C   UNL     1      35.766 -23.839 -12.424  0.00  0.00    +0.054 C 
ATOM     18  C   UNL     1      36.745 -24.621 -13.057  0.00  0.00    +0.004 C 
ATOM     19  C   UNL     1      36.099 -22.617 -11.839  0.00  0.00    +0.005 C 
ATOM     20  C   UNL     1      38.082 -24.157 -13.098  0.00  0.00    +0.000 C 
ATOM     21  C   UNL     1      36.428 -25.854 -13.652  0.00  0.00    +0.000 C 
ATOM     22  C   UNL     1      37.413 -22.161 -11.879  0.00  0.00    +0.000 C 
ATOM     23  C   UNL     1      38.399 -22.925 -12.505  0.00  0.00    +0.000 C 
ATOM     24  C   UNL     1      39.061 -24.939 -13.733  0.00  0.00    +0.000 C 
ATOM     25  C   UNL     1      37.414 -26.617 -14.277  0.00  0.00    +0.000 C 
ATOM     26  C   UNL     1      38.728 -26.161 -14.317  0.00  0.00    +0.000 C 
ENDBRANCH  12  17
BRANCH   3  27
ATOM     27  C   UNL     1      29.664 -22.091 -16.087  0.00  0.00    +0.216 C 
BRANCH  27  29
ATOM     28  O   UNL     1      28.959 -24.399 -16.034  0.00  0.00    -0.248 OA
ATOM     29  C   UNL     1      28.795 -23.263 -16.462  0.00  0.00    +0.337 C 
BRANCH  29  30
ATOM     30  O   UNL     1      27.827 -22.934 -17.353  0.00  0.00    -0.479 OA
ATOM     31  H   UNL     1      26.934 -22.883 -17.076  0.00  0.00    +0.295 HD
ENDBRANCH  29  30
ENDBRANCH  27  29
ENDBRANCH   3  27
TORSDOF 4
ENDMDL
MODEL 3
REMARK VINA RESULT:     -10.4     12.550     16.314
REMARK  Name = 49843471
REMARK  4 active torsions:
REMARK  status: ('A' for Active; 'I' for Inactive)
REMARK    1  A    between atoms: N_3  and  C_27
REMARK    2  A    between atoms: C_12  and  C_17
REMARK    3  A    between atoms: C_27  and  C_29
REMARK    4  A    between atoms: C_29  and  O_30
REMARK                            x       y       z     vdW  Elec       q    Type
REMARK                         _______ _______ _______ _____ _____    ______ ____
ROOT
ATOM      1  F   UNL     1      33.423 -12.984 -24.636  0.00  0.00    -0.204 F 
ATOM      2  O   UNL     1      32.569  -3.780 -24.091  0.00  0.00    -0.270 OA
ATOM      3  N   UNL     1      31.475  -9.104 -21.316  0.00  0.00    -0.321 N 
ATOM      4  N   UNL     1      33.068  -5.980 -23.468  0.00  0.00    -0.272 N 
ATOM      5  C   UNL     1      32.001  -7.982 -21.886  0.00  0.00    +0.037 A 
ATOM      6  C   UNL     1      32.741  -8.348 -22.990  0.00  0.00    +0.011 A 
ATOM      7  C   UNL     1      31.797  -6.592 -21.412  0.00  0.00    +0.065 C 
ATOM      8  C   UNL     1      33.462  -7.363 -23.846  0.00  0.00    +0.122 C 
ATOM      9  C   UNL     1      32.894  -5.708 -22.026  0.00  0.00    +0.100 C 
ATOM     10  C   UNL     1      32.666  -9.767 -23.094  0.00  0.00    +0.017 A 
ATOM     11  C   UNL     1      31.867 -10.214 -22.035  0.00  0.00    +0.060 A 
ATOM     12  C   UNL     1      32.895  -4.931 -24.380  0.00  0.00    +0.249 C 
ATOM     13  C   UNL     1      33.200 -10.718 -23.986  0.00  0.00    +0.031 C 
ATOM     14  C   UNL     1      31.577 -11.567 -21.830  0.00  0.00    +0.019 C 
ATOM     15  C   UNL     1      32.917 -12.075 -23.790  0.00  0.00    +0.140 C 
ATOM     16  C   UNL     1      32.118 -12.491 -22.728  0.00  0.00    +0.031 C 
ENDROOT
BRANCH  12  17
ATOM     17  C   UNL     1      33.126  -5.206 -25.806  0.00  0.00    +0.054 C 
ATOM     18  C   UNL     1      34.310  -4.838 -26.464  0.00  0.00    +0.004 C 
ATOM     19  C   UNL     1      32.103  -5.861 -26.494  0.00  0.00    +0.005 C 
ATOM     20  C   UNL     1      34.460  -5.138 -27.840  0.00  0.00    +0.000 C 
ATOM     21  C   UNL     1      35.350  -4.178 -25.788  0.00  0.00    +0.000 C 
ATOM     22  C   UNL     1      32.251  -6.155 -27.846  0.00  0.00    +0.000 C 
ATOM     23  C   UNL     1      33.421  -5.797 -28.516  0.00  0.00    +0.000 C 
ATOM     24  C   UNL     1      35.645  -4.769 -28.498  0.00  0.00    +0.000 C 
ATOM     25  C   UNL     1      36.520  -3.820 -26.458  0.00  0.00    +0.000 C 
ATOM     26  C   UNL     1      36.668  -4.114 -27.810  0.00  0.00    +0.000 C 
ENDBRANCH  12  17
BRANCH   3  27
ATOM     27  C   UNL     1      30.626  -9.130 -20.144  0.00  0.00    +0.216 C 
BRANCH  27  29
ATOM     28  O   UNL     1      31.193 -10.229 -18.072  0.00  0.00    -0.248 OA
ATOM     29  C   UNL     1      31.416  -9.335 -18.879  0.00  0.00    +0.337 C 
BRANCH  29  30
ATOM     30  O   UNL     1      32.387  -8.403 -18.708  0.00  0.00    -0.479 OA
ATOM     31  H   UNL     1      32.431  -7.914 -17.910  0.00  0.00    +0.295 HD
ENDBRANCH  29  30
ENDBRANCH  27  29
ENDBRANCH   3  27
TORSDOF 4
ENDMDL
