MODEL 1
REMARK VINA RESULT:     -11.6      0.000      0.000
REMARK  Name = 11790
REMARK  1 active torsions:
REMARK  status: ('A' for Active; 'I' for Inactive)
REMARK    1  A    between atoms: C_7  and  C_16
REMARK                            x       y       z     vdW  Elec       q    Type
REMARK                         _______ _______ _______ _____ _____    ______ ____
ROOT
ATOM      1  O   UNL     1      32.689 -22.676 -16.416  0.00  0.00    -0.453 OA
ATOM      2  O   UNL     1      35.550 -23.525 -13.653  0.00  0.00    -0.286 OA
ATOM      3  C   UNL     1      33.994 -22.313 -16.665  0.00  0.00    +0.148 C 
ATOM      4  C   UNL     1      34.270 -21.657 -17.887  0.00  0.00    +0.035 C 
ATOM      5  C   UNL     1      35.016 -22.576 -15.752  0.00  0.00    +0.074 C 
ATOM      6  C   UNL     1      35.607 -21.274 -18.166  0.00  0.00    +0.003 C 
ATOM      7  C   UNL     1      32.383 -23.315 -15.226  0.00  0.00    +0.148 C 
ATOM      8  C   UNL     1      36.328 -22.197 -16.030  0.00  0.00    +0.006 C 
ATOM      9  C   UNL     1      36.618 -21.550 -17.231  0.00  0.00    +0.000 C 
ATOM     10  C   UNL     1      34.697 -23.263 -14.490  0.00  0.00    +0.202 C 
ATOM     11  C   UNL     1      33.278 -21.366 -18.848  0.00  0.00    +0.003 C 
ATOM     12  C   UNL     1      33.282 -23.625 -14.281  0.00  0.00    +0.080 C 
ATOM     13  C   UNL     1      35.907 -20.623 -19.374  0.00  0.00    +0.000 C 
ATOM     14  C   UNL     1      33.593 -20.719 -20.043  0.00  0.00    +0.000 C 
ATOM     15  C   UNL     1      34.907 -20.347 -20.305  0.00  0.00    +0.000 C 
ENDROOT
BRANCH   7  16
ATOM     16  C   UNL     1      30.953 -23.658 -15.082  0.00  0.00    +0.035 C 
ATOM     17  C   UNL     1      30.562 -24.701 -14.238  0.00  0.00    +0.003 C 
ATOM     18  C   UNL     1      29.985 -22.943 -15.791  0.00  0.00    +0.003 C 
ATOM     19  C   UNL     1      29.213 -25.024 -14.102  0.00  0.00    +0.000 C 
ATOM     20  C   UNL     1      28.634 -23.267 -15.655  0.00  0.00    +0.000 C 
ATOM     21  C   UNL     1      28.249 -24.308 -14.811  0.00  0.00    +0.000 C 
ENDBRANCH   7  16
TORSDOF 1
ENDMDL
MODEL 2
REMARK VINA RESULT:     -11.5      2.192      5.197
REMARK  Name = 11790
REMARK  1 active torsions:
REMARK  status: ('A' for Active; 'I' for Inactive)
REMARK    1  A    between atoms: C_7  and  C_16
REMARK                            x       y       z     vdW  Elec       q    Type
REMARK                         _______ _______ _______ _____ _____    ______ ____
ROOT
ATOM      1  O   UNL     1      35.302 -23.108 -16.023  0.00  0.00    -0.453 OA
ATOM      2  O   UNL     1      31.909 -24.137 -14.030  0.00  0.00    -0.286 OA
ATOM      3  C   UNL     1      34.081 -22.717 -16.526  0.00  0.00    +0.148 C 
ATOM      4  C   UNL     1      34.076 -21.965 -17.724  0.00  0.00    +0.035 C 
ATOM      5  C   UNL     1      32.885 -23.044 -15.886  0.00  0.00    +0.074 C 
ATOM      6  C   UNL     1      32.831 -21.551 -18.261  0.00  0.00    +0.003 C 
ATOM      7  C   UNL     1      35.343 -23.850 -14.854  0.00  0.00    +0.148 C 
ATOM      8  C   UNL     1      31.663 -22.634 -16.418  0.00  0.00    +0.006 C 
ATOM      9  C   UNL     1      31.641 -21.893 -17.599  0.00  0.00    +0.000 C 
ATOM     10  C   UNL     1      32.923 -23.824 -14.639  0.00  0.00    +0.202 C 
ATOM     11  C   UNL     1      35.254 -21.605 -18.412  0.00  0.00    +0.003 C 
ATOM     12  C   UNL     1      34.260 -24.214 -14.152  0.00  0.00    +0.080 C 
ATOM     13  C   UNL     1      32.800 -20.802 -19.449  0.00  0.00    +0.000 C 
ATOM     14  C   UNL     1      35.205 -20.861 -19.592  0.00  0.00    +0.000 C 
ATOM     15  C   UNL     1      33.978 -20.460 -20.110  0.00  0.00    +0.000 C 
ENDROOT
BRANCH   7  16
ATOM     16  C   UNL     1      36.709 -24.200 -14.415  0.00  0.00    +0.035 C 
ATOM     17  C   UNL     1      36.901 -24.998 -13.284  0.00  0.00    +0.003 C 
ATOM     18  C   UNL     1      37.816 -23.734 -15.128  0.00  0.00    +0.003 C 
ATOM     19  C   UNL     1      38.190 -25.329 -12.870  0.00  0.00    +0.000 C 
ATOM     20  C   UNL     1      39.107 -24.065 -14.714  0.00  0.00    +0.000 C 
ATOM     21  C   UNL     1      39.294 -24.862 -13.584  0.00  0.00    +0.000 C 
ENDBRANCH   7  16
TORSDOF 1
ENDMDL
MODEL 3
REMARK VINA RESULT:     -11.5      2.593      6.692
REMARK  Name = 11790
REMARK  1 active torsions:
REMARK  status: ('A' for Active; 'I' for Inactive)
REMARK    1  A    between atoms: C_7  and  C_16
REMARK                            x       y       z     vdW  Elec       q    Type
REMARK                         _______ _______ _______ _____ _____    ______ ____
ROOT
ATOM      1  O   UNL     1      35.112 -21.095 -18.407  0.00  0.00    -0.453 OA
ATOM      2  O   UNL     1      31.179 -22.063 -18.041  0.00  0.00    -0.286 OA
ATOM      3  C   UNL     1      34.710 -21.894 -17.360  0.00  0.00    +0.148 C 
ATOM      4  C   UNL     1      35.703 -22.342 -16.458  0.00  0.00    +0.035 C 
ATOM      5  C   UNL     1      33.374 -22.255 -17.184  0.00  0.00    +0.074 C 
ATOM      6  C   UNL     1      35.313 -23.166 -15.373  0.00  0.00    +0.003 C 
ATOM      7  C   UNL     1      34.164 -20.634 -19.305  0.00  0.00    +0.148 C 
ATOM      8  C   UNL     1      32.996 -23.066 -16.115  0.00  0.00    +0.006 C 
ATOM      9  C   UNL     1      33.963 -23.516 -15.216  0.00  0.00    +0.000 C 
ATOM     10  C   UNL     1      32.364 -21.776 -18.141  0.00  0.00    +0.202 C 
ATOM     11  C   UNL     1      37.069 -22.009 -16.588  0.00  0.00    +0.003 C 
ATOM     12  C   UNL     1      32.856 -20.923 -19.239  0.00  0.00    +0.080 C 
ATOM     13  C   UNL     1      36.282 -23.626 -14.465  0.00  0.00    +0.000 C 
ATOM     14  C   UNL     1      38.018 -22.474 -15.677  0.00  0.00    +0.000 C 
ATOM     15  C   UNL     1      37.624 -23.281 -14.615  0.00  0.00    +0.000 C 
ENDROOT
BRANCH   7  16
ATOM     16  C   UNL     1      34.722 -19.794 -20.385  0.00  0.00    +0.035 C 
ATOM     17  C   UNL     1      36.029 -19.310 -20.296  0.00  0.00    +0.003 C 
ATOM     18  C   UNL     1      33.942 -19.479 -21.502  0.00  0.00    +0.003 C 
ATOM     19  C   UNL     1      36.555 -18.518 -21.316  0.00  0.00    +0.000 C 
ATOM     20  C   UNL     1      34.468 -18.686 -22.523  0.00  0.00    +0.000 C 
ATOM     21  C   UNL     1      35.774 -18.205 -22.429  0.00  0.00    +0.000 C 
ENDBRANCH   7  16
TORSDOF 1
ENDMDL
MODEL 4
REMARK VINA RESULT:     -11.4      5.218      8.654
REMARK  Name = 11790
REMARK  1 active torsions:
REMARK  status: ('A' for Active; 'I' for Inactive)
REMARK    1  A    between atoms: C_7  and  C_16
REMARK                            x       y       z     vdW  Elec       q    Type
REMARK                         _______ _______ _______ _____ _____    ______ ____
ROOT
ATOM      1  O   UNL     1      34.220 -17.692 -21.374  0.00  0.00    -0.453 OA
ATOM      2  O   UNL     1      33.976 -19.040 -25.203  0.00  0.00    -0.286 OA
ATOM      3  C   UNL     1      34.048 -16.785 -22.396  0.00  0.00    +0.148 C 
ATOM      4  C   UNL     1      33.963 -15.417 -22.052  0.00  0.00    +0.035 C 
ATOM      5  C   UNL     1      33.961 -17.191 -23.729  0.00  0.00    +0.074 C 
ATOM      6  C   UNL     1      33.786 -14.465 -23.088  0.00  0.00    +0.003 C 
ATOM      7  C   UNL     1      34.313 -19.040 -21.676  0.00  0.00    +0.148 C 
ATOM      8  C   UNL     1      33.788 -16.252 -24.744  0.00  0.00    +0.006 C 
ATOM      9  C   UNL     1      33.701 -14.898 -24.421  0.00  0.00    +0.000 C 
ATOM     10  C   UNL     1      34.051 -18.623 -24.055  0.00  0.00    +0.202 C 
ATOM     11  C   UNL     1      34.043 -14.950 -20.723  0.00  0.00    +0.003 C 
ATOM     12  C   UNL     1      34.235 -19.543 -22.917  0.00  0.00    +0.080 C 
ATOM     13  C   UNL     1      33.697 -13.099 -22.771  0.00  0.00    +0.000 C 
ATOM     14  C   UNL     1      33.952 -13.589 -20.425  0.00  0.00    +0.000 C 
ATOM     15  C   UNL     1      33.780 -12.665 -21.450  0.00  0.00    +0.000 C 
ENDROOT
BRANCH   7  16
ATOM     16  C   UNL     1      34.487 -19.908 -20.494  0.00  0.00    +0.035 C 
ATOM     17  C   UNL     1      35.762 -20.131 -19.967  0.00  0.00    +0.003 C 
ATOM     18  C   UNL     1      33.377 -20.511 -19.897  0.00  0.00    +0.003 C 
ATOM     19  C   UNL     1      35.926 -20.951 -18.851  0.00  0.00    +0.000 C 
ATOM     20  C   UNL     1      33.541 -21.332 -18.780  0.00  0.00    +0.000 C 
ATOM     21  C   UNL     1      34.816 -21.552 -18.257  0.00  0.00    +0.000 C 
ENDBRANCH   7  16
TORSDOF 1
ENDMDL
MODEL 5
REMARK VINA RESULT:     -11.4      1.271      5.968
REMARK  Name = 11790
REMARK  1 active torsions:
REMARK  status: ('A' for Active; 'I' for Inactive)
REMARK    1  A    between atoms: C_7  and  C_16
REMARK                            x       y       z     vdW  Elec       q    Type
REMARK                         _______ _______ _______ _____ _____    ______ ____
ROOT
ATOM      1  O   UNL     1      33.997 -22.005 -17.132  0.00  0.00    -0.453 OA
ATOM      2  O   UNL     1      37.738 -22.415 -15.591  0.00  0.00    -0.286 OA
ATOM      3  C   UNL     1      34.164 -22.677 -15.942  0.00  0.00    +0.148 C 
ATOM      4  C   UNL     1      33.008 -23.192 -15.312  0.00  0.00    +0.035 C 
ATOM      5  C   UNL     1      35.424 -22.850 -15.369  0.00  0.00    +0.074 C 
ATOM      6  C   UNL     1      33.155 -23.887 -14.085  0.00  0.00    +0.003 C 
ATOM      7  C   UNL     1      35.108 -21.492 -17.779  0.00  0.00    +0.148 C 
ATOM      8  C   UNL     1      35.564 -23.534 -14.162  0.00  0.00    +0.006 C 
ATOM      9  C   UNL     1      34.434 -24.049 -13.528  0.00  0.00    +0.000 C 
ATOM     10  C   UNL     1      36.608 -22.299 -16.047  0.00  0.00    +0.202 C 
ATOM     11  C   UNL     1      31.709 -23.046 -15.845  0.00  0.00    +0.003 C 
ATOM     12  C   UNL     1      36.364 -21.591 -17.318  0.00  0.00    +0.080 C 
ATOM     13  C   UNL     1      32.021 -24.407 -13.439  0.00  0.00    +0.000 C 
ATOM     14  C   UNL     1      30.593 -23.569 -15.190  0.00  0.00    +0.000 C 
ATOM     15  C   UNL     1      30.750 -24.249 -13.988  0.00  0.00    +0.000 C 
ENDROOT
BRANCH   7  16
ATOM     16  C   UNL     1      34.796 -20.788 -19.040  0.00  0.00    +0.035 C 
ATOM     17  C   UNL     1      35.819 -20.203 -19.790  0.00  0.00    +0.003 C 
ATOM     18  C   UNL     1      33.475 -20.703 -19.487  0.00  0.00    +0.003 C 
ATOM     19  C   UNL     1      35.524 -19.539 -20.980  0.00  0.00    +0.000 C 
ATOM     20  C   UNL     1      33.180 -20.038 -20.678  0.00  0.00    +0.000 C 
ATOM     21  C   UNL     1      34.204 -19.456 -21.424  0.00  0.00    +0.000 C 
ENDBRANCH   7  16
TORSDOF 1
ENDMDL
MODEL 6
REMARK VINA RESULT:     -11.3      2.476      6.012
REMARK  Name = 11790
REMARK  1 active torsions:
REMARK  status: ('A' for Active; 'I' for Inactive)
REMARK    1  A    between atoms: C_7  and  C_16
REMARK                            x       y       z     vdW  Elec       q    Type
REMARK                         _______ _______ _______ _____ _____    ______ ____
ROOT
ATOM      1  O   UNL     1      35.775 -23.001 -15.948  0.00  0.00    -0.453 OA
ATOM      2  O   UNL     1      32.535 -23.431 -13.527  0.00  0.00    -0.286 OA
ATOM      3  C   UNL     1      35.919 -23.643 -14.738  0.00  0.00    +0.148 C 
ATOM      4  C   UNL     1      37.204 -24.127 -14.402  0.00  0.00    +0.035 C 
ATOM      5  C   UNL     1      34.842 -23.817 -13.867  0.00  0.00    +0.074 C 
ATOM      6  C   UNL     1      37.377 -24.791 -13.161  0.00  0.00    +0.003 C 
ATOM      7  C   UNL     1      34.530 -22.511 -16.307  0.00  0.00    +0.148 C 
ATOM      8  C   UNL     1      35.018 -24.470 -12.648  0.00  0.00    +0.006 C 
ATOM      9  C   UNL     1      36.279 -24.953 -12.301  0.00  0.00    +0.000 C 
ATOM     10  C   UNL     1      33.516 -23.305 -14.247  0.00  0.00    +0.202 C 
ATOM     11  C   UNL     1      38.327 -23.981 -15.244  0.00  0.00    +0.003 C 
ATOM     12  C   UNL     1      33.426 -22.626 -15.554  0.00  0.00    +0.080 C 
ATOM     13  C   UNL     1      38.644 -25.282 -12.805  0.00  0.00    +0.000 C 
ATOM     14  C   UNL     1      39.579 -24.475 -14.874  0.00  0.00    +0.000 C 
ATOM     15  C   UNL     1      39.737 -25.125 -13.655  0.00  0.00    +0.000 C 
ENDROOT
BRANCH   7  16
ATOM     16  C   UNL     1      34.505 -21.851 -17.628  0.00  0.00    +0.035 C 
ATOM     17  C   UNL     1      33.299 -21.709 -18.319  0.00  0.00    +0.003 C 
ATOM     18  C   UNL     1      35.687 -21.368 -18.193  0.00  0.00    +0.003 C 
ATOM     19  C   UNL     1      33.275 -21.086 -19.567  0.00  0.00    +0.000 C 
ATOM     20  C   UNL     1      35.664 -20.744 -19.442  0.00  0.00    +0.000 C 
ATOM     21  C   UNL     1      34.458 -20.604 -20.129  0.00  0.00    +0.000 C 
ENDBRANCH   7  16
TORSDOF 1
ENDMDL
MODEL 7
REMARK VINA RESULT:     -11.2      2.574      4.950
REMARK  Name = 11790
REMARK  1 active torsions:
REMARK  status: ('A' for Active; 'I' for Inactive)
REMARK    1  A    between atoms: C_7  and  C_16
REMARK                            x       y       z     vdW  Elec       q    Type
REMARK                         _______ _______ _______ _____ _____    ______ ____
ROOT
ATOM      1  O   UNL     1      34.989 -21.820 -17.623  0.00  0.00    -0.453 OA
ATOM      2  O   UNL     1      31.022 -22.608 -17.190  0.00  0.00    -0.286 OA
ATOM      3  C   UNL     1      34.093 -21.272 -18.514  0.00  0.00    +0.148 C 
ATOM      4  C   UNL     1      34.610 -20.452 -19.543  0.00  0.00    +0.035 C 
ATOM      5  C   UNL     1      32.721 -21.511 -18.415  0.00  0.00    +0.074 C 
ATOM      6  C   UNL     1      33.706 -19.877 -20.472  0.00  0.00    +0.003 C 
ATOM      7  C   UNL     1      34.517 -22.633 -16.606  0.00  0.00    +0.148 C 
ATOM      8  C   UNL     1      31.837 -20.943 -19.331  0.00  0.00    +0.006 C 
ATOM      9  C   UNL     1      32.330 -20.132 -20.352  0.00  0.00    +0.000 C 
ATOM     10  C   UNL     1      32.214 -22.367 -17.331  0.00  0.00    +0.202 C 
ATOM     11  C   UNL     1      35.986 -20.176 -19.691  0.00  0.00    +0.003 C 
ATOM     12  C   UNL     1      33.222 -22.924 -16.410  0.00  0.00    +0.080 C 
ATOM     13  C   UNL     1      34.196 -19.057 -21.503  0.00  0.00    +0.000 C 
ATOM     14  C   UNL     1      36.455 -19.359 -20.721  0.00  0.00    +0.000 C 
ATOM     15  C   UNL     1      35.560 -18.801 -21.626  0.00  0.00    +0.000 C 
ENDROOT
BRANCH   7  16
ATOM     16  C   UNL     1      35.574 -23.151 -15.714  0.00  0.00    +0.035 C 
ATOM     17  C   UNL     1      35.298 -24.198 -14.831  0.00  0.00    +0.003 C 
ATOM     18  C   UNL     1      36.856 -22.596 -15.750  0.00  0.00    +0.003 C 
ATOM     19  C   UNL     1      36.297 -24.688 -13.990  0.00  0.00    +0.000 C 
ATOM     20  C   UNL     1      37.856 -23.086 -14.908  0.00  0.00    +0.000 C 
ATOM     21  C   UNL     1      37.576 -24.131 -14.028  0.00  0.00    +0.000 C 
ENDBRANCH   7  16
TORSDOF 1
ENDMDL
MODEL 8
REMARK VINA RESULT:     -11.1      0.810      5.999
REMARK  Name = 11790
REMARK  1 active torsions:
REMARK  status: ('A' for Active; 'I' for Inactive)
REMARK    1  A    between atoms: C_7  and  C_16
REMARK                            x       y       z     vdW  Elec       q    Type
REMARK                         _______ _______ _______ _____ _____    ______ ____
ROOT
ATOM      1  O   UNL     1      32.666 -22.399 -16.906  0.00  0.00    -0.453 OA
ATOM      2  O   UNL     1      35.752 -23.534 -14.513  0.00  0.00    -0.286 OA
ATOM      3  C   UNL     1      32.400 -23.105 -15.754  0.00  0.00    +0.148 C 
ATOM      4  C   UNL     1      31.048 -23.398 -15.462  0.00  0.00    +0.035 C 
ATOM      5  C   UNL     1      33.420 -23.522 -14.897  0.00  0.00    +0.074 C 
ATOM      6  C   UNL     1      30.749 -24.124 -14.282  0.00  0.00    +0.003 C 
ATOM      7  C   UNL     1      33.980 -22.100 -17.225  0.00  0.00    +0.148 C 
ATOM      8  C   UNL     1      33.121 -24.236 -13.738  0.00  0.00    +0.006 C 
ATOM      9  C   UNL     1      31.792 -24.534 -13.436  0.00  0.00    +0.000 C 
ATOM     10  C   UNL     1      34.817 -23.199 -15.227  0.00  0.00    +0.202 C 
ATOM     11  C   UNL     1      29.977 -23.001 -16.291  0.00  0.00    +0.003 C 
ATOM     12  C   UNL     1      35.037 -22.442 -16.474  0.00  0.00    +0.080 C 
ATOM     13  C   UNL     1      29.413 -24.426 -13.969  0.00  0.00    +0.000 C 
ATOM     14  C   UNL     1      28.655 -23.309 -15.966  0.00  0.00    +0.000 C 
ATOM     15  C   UNL     1      28.374 -24.022 -14.805  0.00  0.00    +0.000 C 
ENDROOT
BRANCH   7  16
ATOM     16  C   UNL     1      34.132 -21.333 -18.478  0.00  0.00    +0.035 C 
ATOM     17  C   UNL     1      35.406 -21.035 -18.970  0.00  0.00    +0.003 C 
ATOM     18  C   UNL     1      33.002 -20.902 -19.178  0.00  0.00    +0.003 C 
ATOM     19  C   UNL     1      35.549 -20.312 -20.153  0.00  0.00    +0.000 C 
ATOM     20  C   UNL     1      33.146 -20.178 -20.363  0.00  0.00    +0.000 C 
ATOM     21  C   UNL     1      34.419 -19.883 -20.850  0.00  0.00    +0.000 C 
ENDBRANCH   7  16
TORSDOF 1
ENDMDL
MODEL 9
REMARK VINA RESULT:     -10.7      1.956      6.068
REMARK  Name = 11790
REMARK  1 active torsions:
REMARK  status: ('A' for Active; 'I' for Inactive)
REMARK    1  A    between atoms: C_7  and  C_16
REMARK                            x       y       z     vdW  Elec       q    Type
REMARK                         _______ _______ _______ _____ _____    ______ ____
ROOT
ATOM      1  O   UNL     1      34.388 -22.282 -16.886  0.00  0.00    -0.453 OA
ATOM      2  O   UNL     1      30.510 -23.093 -15.968  0.00  0.00    -0.286 OA
ATOM      3  C   UNL     1      34.101 -22.988 -15.739  0.00  0.00    +0.148 C 
ATOM      4  C   UNL     1      35.188 -23.401 -14.934  0.00  0.00    +0.035 C 
ATOM      5  C   UNL     1      32.789 -23.293 -15.373  0.00  0.00    +0.074 C 
ATOM      6  C   UNL     1      34.918 -24.130 -13.749  0.00  0.00    +0.003 C 
ATOM      7  C   UNL     1      33.346 -21.858 -17.694  0.00  0.00    +0.148 C 
ATOM      8  C   UNL     1      32.529 -24.010 -14.207  0.00  0.00    +0.006 C 
ATOM      9  C   UNL     1      33.590 -24.424 -13.402  0.00  0.00    +0.000 C 
ATOM     10  C   UNL     1      31.679 -22.853 -16.234  0.00  0.00    +0.202 C 
ATOM     11  C   UNL     1      36.534 -23.123 -15.255  0.00  0.00    +0.003 C 
ATOM     12  C   UNL     1      32.051 -22.099 -17.446  0.00  0.00    +0.080 C 
ATOM     13  C   UNL     1      35.981 -24.552 -12.933  0.00  0.00    +0.000 C 
ATOM     14  C   UNL     1      37.579 -23.549 -14.434  0.00  0.00    +0.000 C 
ATOM     15  C   UNL     1      37.302 -24.263 -13.273  0.00  0.00    +0.000 C 
ENDROOT
BRANCH   7  16
ATOM     16  C   UNL     1      33.784 -21.118 -18.896  0.00  0.00    +0.035 C 
ATOM     17  C   UNL     1      32.842 -20.506 -19.726  0.00  0.00    +0.003 C 
ATOM     18  C   UNL     1      35.143 -21.029 -19.208  0.00  0.00    +0.003 C 
ATOM     19  C   UNL     1      33.255 -19.808 -20.860  0.00  0.00    +0.000 C 
ATOM     20  C   UNL     1      35.557 -20.330 -20.343  0.00  0.00    +0.000 C 
ATOM     21  C   UNL     1      34.613 -19.720 -21.169  0.00  0.00    +0.000 C 
ENDBRANCH   7  16
TORSDOF 1
ENDMDL
