MODEL 1
REMARK VINA RESULT:     -10.3      0.000      0.000
REMARK  Name = 100299
REMARK  3 active torsions:
REMARK  status: ('A' for Active; 'I' for Inactive)
REMARK    1  A    between atoms: P_1  and  O_26
REMARK    2  A    between atoms: C_8  and  O_24
REMARK    3  A    between atoms: C_9  and  N_12
REMARK                            x       y       z     vdW  Elec       q    Type
REMARK                         _______ _______ _______ _____ _____    ______ ____
ROOT
ATOM      1  P   UNL     1      28.288 -22.446 -15.446  0.00  0.00    +0.476 P 
ATOM      2  O   UNL     1      31.548 -24.943 -14.092  0.00  0.00    -0.333 OA
ATOM      3  O   UNL     1      29.450 -22.064 -14.373  0.00  0.00    -0.271 OA
ATOM      4  O   UNL     1      28.250 -24.070 -15.497  0.00  0.00    -0.271 OA
ATOM      5  O   UNL     1      26.957 -21.812 -15.164  0.00  0.00    -0.227 OA
ATOM      6  C   UNL     1      30.624 -22.842 -14.439  0.00  0.00    +0.186 C 
ATOM      7  C   UNL     1      30.284 -24.308 -14.271  0.00  0.00    +0.177 C 
ATOM      8  C   UNL     1      31.639 -22.651 -13.335  0.00  0.00    +0.188 C 
ATOM      9  C   UNL     1      32.384 -23.999 -13.370  0.00  0.00    +0.230 C 
ATOM     10  C   UNL     1      29.476 -24.802 -15.454  0.00  0.00    +0.186 C 
ENDROOT
BRANCH   9  12
ATOM     11 CL   UNL     1      32.736 -23.157 -16.389  0.00  0.00    -0.032 Cl
ATOM     12  N   UNL     1      33.699 -23.922 -14.009  0.00  0.00    -0.211 N 
ATOM     13  N   UNL     1      35.267 -23.606 -15.566  0.00  0.00    -0.370 NA
ATOM     14  N   UNL     1      35.103 -24.581 -12.138  0.00  0.00    -0.227 NA
ATOM     15  N   UNL     1      37.462 -24.600 -12.760  0.00  0.00    -0.227 NA
ATOM     16  C   UNL     1      34.896 -24.197 -13.407  0.00  0.00    +0.170 C 
ATOM     17  C   UNL     1      33.976 -23.572 -15.305  0.00  0.00    +0.251 C 
ATOM     18  C   UNL     1      35.853 -23.994 -14.388  0.00  0.00    +0.196 C 
ATOM     19  C   UNL     1      37.179 -24.210 -14.027  0.00  0.00    +0.155 C 
ATOM     20  C   UNL     1      36.421 -24.760 -11.908  0.00  0.00    +0.253 C 
ATOM     21  N   UNL     1      38.216 -24.027 -14.958  0.00  0.00    -0.341 N 
ATOM     22  H   UNL     1      39.151 -24.182 -14.692  0.00  0.00    +0.144 HD
ATOM     23  H   UNL     1      38.007 -23.743 -15.877  0.00  0.00    +0.144 HD
ENDBRANCH   9  12
BRANCH   8  24
ATOM     24  O   UNL     1      30.978 -22.509 -12.080  0.00  0.00    -0.378 OA
ATOM     25  H   UNL     1      31.358 -21.757 -11.600  0.00  0.00    +0.211 HD
ENDBRANCH   8  24
BRANCH   1  26
ATOM     26  O   UNL     1      28.912 -22.025 -16.881  0.00  0.00    -0.302 OA
ATOM     27  H   UNL     1      28.197 -21.931 -17.529  0.00  0.00    +0.222 HD
ENDBRANCH   1  26
TORSDOF 3
ENDMDL
MODEL 2
REMARK VINA RESULT:     -10.2      4.302      6.399
REMARK  Name = 100299
REMARK  3 active torsions:
REMARK  status: ('A' for Active; 'I' for Inactive)
REMARK    1  A    between atoms: P_1  and  O_26
REMARK    2  A    between atoms: C_8  and  O_24
REMARK    3  A    between atoms: C_9  and  N_12
REMARK                            x       y       z     vdW  Elec       q    Type
REMARK                         _______ _______ _______ _____ _____    ______ ____
ROOT
ATOM      1  P   UNL     1      36.212 -24.196 -11.696  0.00  0.00    +0.476 P 
ATOM      2  O   UNL     1      35.011 -24.252 -15.850  0.00  0.00    -0.333 OA
ATOM      3  O   UNL     1      36.041 -22.923 -12.697  0.00  0.00    -0.271 OA
ATOM      4  O   UNL     1      36.385 -25.494 -12.659  0.00  0.00    -0.271 OA
ATOM      5  O   UNL     1      37.307 -24.037 -10.681  0.00  0.00    -0.227 OA
ATOM      6  C   UNL     1      35.222 -23.137 -13.824  0.00  0.00    +0.186 C 
ATOM      7  C   UNL     1      35.746 -24.308 -14.629  0.00  0.00    +0.177 C 
ATOM      8  C   UNL     1      35.201 -22.050 -14.875  0.00  0.00    +0.188 C 
ATOM      9  C   UNL     1      34.779 -22.844 -16.126  0.00  0.00    +0.230 C 
ATOM     10  C   UNL     1      35.597 -25.596 -13.846  0.00  0.00    +0.186 C 
ENDROOT
BRANCH   9  12
ATOM     11 CL   UNL     1      33.943 -21.738 -18.959  0.00  0.00    -0.032 Cl
ATOM     12  N   UNL     1      33.379 -22.644 -16.501  0.00  0.00    -0.211 N 
ATOM     13  N   UNL     1      31.580 -22.108 -17.709  0.00  0.00    -0.370 NA
ATOM     14  N   UNL     1      32.297 -23.369 -14.450  0.00  0.00    -0.227 NA
ATOM     15  N   UNL     1      29.869 -23.198 -14.617  0.00  0.00    -0.227 NA
ATOM     16  C   UNL     1      32.295 -22.895 -15.705  0.00  0.00    +0.170 C 
ATOM     17  C   UNL     1      32.895 -22.172 -17.694  0.00  0.00    +0.251 C 
ATOM     18  C   UNL     1      31.193 -22.558 -16.472  0.00  0.00    +0.196 C 
ATOM     19  C   UNL     1      29.943 -22.724 -15.884  0.00  0.00    +0.155 C 
ATOM     20  C   UNL     1      31.034 -23.487 -13.988  0.00  0.00    +0.253 C 
ATOM     21  N   UNL     1      28.769 -22.407 -16.589  0.00  0.00    -0.341 N 
ATOM     22  H   UNL     1      27.890 -22.530 -16.164  0.00  0.00    +0.144 HD
ATOM     23  H   UNL     1      28.826 -22.064 -17.510  0.00  0.00    +0.144 HD
ENDBRANCH   9  12
BRANCH   8  24
ATOM     24  O   UNL     1      36.511 -21.526 -15.066  0.00  0.00    -0.378 OA
ATOM     25  H   UNL     1      36.499 -20.886 -15.795  0.00  0.00    +0.211 HD
ENDBRANCH   8  24
BRANCH   1  26
ATOM     26  O   UNL     1      34.745 -24.390 -11.038  0.00  0.00    -0.302 OA
ATOM     27  H   UNL     1      34.223 -23.583 -11.167  0.00  0.00    +0.222 HD
ENDBRANCH   1  26
TORSDOF 3
ENDMDL
MODEL 3
REMARK VINA RESULT:     -10.2      4.589      6.851
REMARK  Name = 100299
REMARK  3 active torsions:
REMARK  status: ('A' for Active; 'I' for Inactive)
REMARK    1  A    between atoms: P_1  and  O_26
REMARK    2  A    between atoms: C_8  and  O_24
REMARK    3  A    between atoms: C_9  and  N_12
REMARK                            x       y       z     vdW  Elec       q    Type
REMARK                         _______ _______ _______ _____ _____    ______ ____
ROOT
ATOM      1  P   UNL     1      38.388 -24.600 -13.978  0.00  0.00    +0.476 P 
ATOM      2  O   UNL     1      34.566 -22.595 -14.241  0.00  0.00    -0.333 OA
ATOM      3  O   UNL     1      36.992 -25.198 -14.563  0.00  0.00    -0.271 OA
ATOM      4  O   UNL     1      37.969 -23.348 -13.031  0.00  0.00    -0.271 OA
ATOM      5  O   UNL     1      39.258 -25.618 -13.299  0.00  0.00    -0.227 OA
ATOM      6  C   UNL     1      36.035 -24.243 -14.960  0.00  0.00    +0.186 C 
ATOM      7  C   UNL     1      35.710 -23.324 -13.801  0.00  0.00    +0.177 C 
ATOM      8  C   UNL     1      34.658 -24.755 -15.318  0.00  0.00    +0.188 C 
ATOM      9  C   UNL     1      33.794 -23.504 -15.072  0.00  0.00    +0.230 C 
ATOM     10  C   UNL     1      36.915 -22.477 -13.445  0.00  0.00    +0.186 C 
ENDROOT
BRANCH   9  12
ATOM     11 CL   UNL     1      30.791 -23.402 -16.030  0.00  0.00    -0.032 Cl
ATOM     12  N   UNL     1      33.392 -22.820 -16.301  0.00  0.00    -0.211 N 
ATOM     13  N   UNL     1      32.106 -22.030 -17.946  0.00  0.00    -0.370 NA
ATOM     14  N   UNL     1      35.560 -22.021 -17.053  0.00  0.00    -0.227 NA
ATOM     15  N   UNL     1      35.374 -20.783 -19.148  0.00  0.00    -0.227 NA
ATOM     16  C   UNL     1      34.231 -22.167 -17.162  0.00  0.00    +0.170 C 
ATOM     17  C   UNL     1      32.127 -22.709 -16.818  0.00  0.00    +0.251 C 
ATOM     18  C   UNL     1      33.415 -21.684 -18.172  0.00  0.00    +0.196 C 
ATOM     19  C   UNL     1      34.033 -20.969 -19.192  0.00  0.00    +0.155 C 
ATOM     20  C   UNL     1      36.045 -21.314 -18.096  0.00  0.00    +0.253 C 
ATOM     21  N   UNL     1      33.282 -20.442 -20.257  0.00  0.00    -0.341 N 
ATOM     22  H   UNL     1      33.729 -19.936 -20.973  0.00  0.00    +0.144 HD
ATOM     23  H   UNL     1      32.307 -20.578 -20.286  0.00  0.00    +0.144 HD
ENDBRANCH   9  12
BRANCH   8  24
ATOM     24  O   UNL     1      34.268 -25.785 -14.415  0.00  0.00    -0.378 OA
ATOM     25  H   UNL     1      34.960 -25.908 -13.746  0.00  0.00    +0.211 HD
ENDBRANCH   8  24
BRANCH   1  26
ATOM     26  O   UNL     1      39.093 -23.901 -15.259  0.00  0.00    -0.302 OA
ATOM     27  H   UNL     1      38.418 -23.676 -15.917  0.00  0.00    +0.222 HD
ENDBRANCH   1  26
TORSDOF 3
ENDMDL
MODEL 4
REMARK VINA RESULT:     -10.2      5.029      7.390
REMARK  Name = 100299
REMARK  3 active torsions:
REMARK  status: ('A' for Active; 'I' for Inactive)
REMARK    1  A    between atoms: P_1  and  O_26
REMARK    2  A    between atoms: C_8  and  O_24
REMARK    3  A    between atoms: C_9  and  N_12
REMARK                            x       y       z     vdW  Elec       q    Type
REMARK                         _______ _______ _______ _____ _____    ______ ____
ROOT
ATOM      1  P   UNL     1      39.819 -25.630 -14.309  0.00  0.00    +0.476 P 
ATOM      2  O   UNL     1      36.555 -22.883 -13.606  0.00  0.00    -0.333 OA
ATOM      3  O   UNL     1      38.290 -25.994 -13.884  0.00  0.00    -0.271 OA
ATOM      4  O   UNL     1      40.035 -24.074 -13.892  0.00  0.00    -0.271 OA
ATOM      5  O   UNL     1      40.853 -26.563 -13.747  0.00  0.00    -0.227 OA
ATOM      6  C   UNL     1      37.327 -25.002 -14.157  0.00  0.00    +0.186 C 
ATOM      7  C   UNL     1      37.713 -23.704 -13.479  0.00  0.00    +0.177 C 
ATOM      8  C   UNL     1      35.939 -25.218 -13.599  0.00  0.00    +0.188 C 
ATOM      9  C   UNL     1      35.409 -23.773 -13.531  0.00  0.00    +0.230 C 
ATOM     10  C   UNL     1      38.975 -23.139 -14.100  0.00  0.00    +0.186 C 
ENDROOT
BRANCH   9  12
ATOM     11 CL   UNL     1      32.338 -24.461 -13.324  0.00  0.00    -0.032 Cl
ATOM     12  N   UNL     1      34.464 -23.447 -14.600  0.00  0.00    -0.211 N 
ATOM     13  N   UNL     1      32.553 -23.277 -15.740  0.00  0.00    -0.370 NA
ATOM     14  N   UNL     1      35.984 -22.407 -16.186  0.00  0.00    -0.227 NA
ATOM     15  N   UNL     1      34.809 -21.682 -18.198  0.00  0.00    -0.227 NA
ATOM     16  C   UNL     1      34.776 -22.830 -15.780  0.00  0.00    +0.170 C 
ATOM     17  C   UNL     1      33.116 -23.694 -14.625  0.00  0.00    +0.251 C 
ATOM     18  C   UNL     1      33.579 -22.734 -16.470  0.00  0.00    +0.196 C 
ATOM     19  C   UNL     1      33.623 -22.133 -17.724  0.00  0.00    +0.155 C 
ATOM     20  C   UNL     1      35.900 -21.846 -17.410  0.00  0.00    +0.253 C 
ATOM     21  N   UNL     1      32.455 -21.993 -18.494  0.00  0.00    -0.341 N 
ATOM     22  H   UNL     1      32.497 -21.566 -19.380  0.00  0.00    +0.144 HD
ATOM     23  H   UNL     1      31.594 -22.321 -18.146  0.00  0.00    +0.144 HD
ENDBRANCH   9  12
BRANCH   8  24
ATOM     24  O   UNL     1      36.018 -25.756 -12.282  0.00  0.00    -0.378 OA
ATOM     25  H   UNL     1      35.371 -25.311 -11.713  0.00  0.00    +0.211 HD
ENDBRANCH   8  24
BRANCH   1  26
ATOM     26  O   UNL     1      39.790 -25.600 -15.928  0.00  0.00    -0.302 OA
ATOM     27  H   UNL     1      39.684 -24.685 -16.233  0.00  0.00    +0.222 HD
ENDBRANCH   1  26
TORSDOF 3
ENDMDL
MODEL 5
REMARK VINA RESULT:     -10.1      5.103      7.565
REMARK  Name = 100299
REMARK  3 active torsions:
REMARK  status: ('A' for Active; 'I' for Inactive)
REMARK    1  A    between atoms: P_1  and  O_26
REMARK    2  A    between atoms: C_8  and  O_24
REMARK    3  A    between atoms: C_9  and  N_12
REMARK                            x       y       z     vdW  Elec       q    Type
REMARK                         _______ _______ _______ _____ _____    ______ ____
ROOT
ATOM      1  P   UNL     1      40.076 -25.858 -14.205  0.00  0.00    +0.476 P 
ATOM      2  O   UNL     1      36.882 -23.065 -13.376  0.00  0.00    -0.333 OA
ATOM      3  O   UNL     1      38.512 -26.199 -13.910  0.00  0.00    -0.271 OA
ATOM      4  O   UNL     1      40.325 -24.370 -13.602  0.00  0.00    -0.271 OA
ATOM      5  O   UNL     1      41.038 -26.894 -13.696  0.00  0.00    -0.227 OA
ATOM      6  C   UNL     1      37.605 -25.141 -14.121  0.00  0.00    +0.186 C 
ATOM      7  C   UNL     1      37.998 -23.946 -13.279  0.00  0.00    +0.177 C 
ATOM      8  C   UNL     1      36.178 -25.357 -13.669  0.00  0.00    +0.188 C 
ATOM      9  C   UNL     1      35.700 -23.907 -13.466  0.00  0.00    +0.230 C 
ATOM     10  C   UNL     1      39.315 -23.372 -13.760  0.00  0.00    +0.186 C 
ENDROOT
BRANCH   9  12
ATOM     11 CL   UNL     1      36.844 -22.397 -15.987  0.00  0.00    -0.032 Cl
ATOM     12  N   UNL     1      34.835 -23.421 -14.541  0.00  0.00    -0.211 N 
ATOM     13  N   UNL     1      34.185 -22.454 -16.445  0.00  0.00    -0.370 NA
ATOM     14  N   UNL     1      32.676 -24.136 -13.685  0.00  0.00    -0.227 NA
ATOM     15  N   UNL     1      30.868 -23.515 -15.201  0.00  0.00    -0.227 NA
ATOM     16  C   UNL     1      33.474 -23.550 -14.591  0.00  0.00    +0.170 C 
ATOM     17  C   UNL     1      35.213 -22.756 -15.679  0.00  0.00    +0.251 C 
ATOM     18  C   UNL     1      33.093 -22.946 -15.777  0.00  0.00    +0.196 C 
ATOM     19  C   UNL     1      31.733 -22.941 -16.072  0.00  0.00    +0.155 C 
ATOM     20  C   UNL     1      31.386 -24.069 -14.078  0.00  0.00    +0.253 C 
ATOM     21  N   UNL     1      31.256 -22.350 -17.255  0.00  0.00    -0.341 N 
ATOM     22  H   UNL     1      30.293 -22.353 -17.454  0.00  0.00    +0.144 HD
ATOM     23  H   UNL     1      31.888 -21.934 -17.886  0.00  0.00    +0.144 HD
ENDBRANCH   9  12
BRANCH   8  24
ATOM     24  O   UNL     1      36.158 -26.041 -12.419  0.00  0.00    -0.378 OA
ATOM     25  H   UNL     1      35.240 -26.229 -12.169  0.00  0.00    +0.211 HD
ENDBRANCH   8  24
BRANCH   1  26
ATOM     26  O   UNL     1      40.145 -25.646 -15.809  0.00  0.00    -0.302 OA
ATOM     27  H   UNL     1      41.067 -25.510 -16.078  0.00  0.00    +0.222 HD
ENDBRANCH   1  26
TORSDOF 3
ENDMDL
MODEL 6
REMARK VINA RESULT:     -10.0      1.700      2.602
REMARK  Name = 100299
REMARK  3 active torsions:
REMARK  status: ('A' for Active; 'I' for Inactive)
REMARK    1  A    between atoms: P_1  and  O_26
REMARK    2  A    between atoms: C_8  and  O_24
REMARK    3  A    between atoms: C_9  and  N_12
REMARK                            x       y       z     vdW  Elec       q    Type
REMARK                         _______ _______ _______ _____ _____    ______ ____
ROOT
ATOM      1  P   UNL     1      28.105 -22.736 -15.578  0.00  0.00    +0.476 P 
ATOM      2  O   UNL     1      31.568 -24.895 -14.150  0.00  0.00    -0.333 OA
ATOM      3  O   UNL     1      29.080 -22.337 -14.337  0.00  0.00    -0.271 OA
ATOM      4  O   UNL     1      28.329 -24.327 -15.823  0.00  0.00    -0.271 OA
ATOM      5  O   UNL     1      26.669 -22.343 -15.383  0.00  0.00    -0.227 OA
ATOM      6  C   UNL     1      30.363 -22.921 -14.355  0.00  0.00    +0.186 C 
ATOM      7  C   UNL     1      30.243 -24.430 -14.401  0.00  0.00    +0.177 C 
ATOM      8  C   UNL     1      31.220 -22.735 -13.124  0.00  0.00    +0.188 C 
ATOM      9  C   UNL     1      32.169 -23.945 -13.228  0.00  0.00    +0.230 C 
ATOM     10  C   UNL     1      29.645 -24.873 -15.721  0.00  0.00    +0.186 C 
ENDROOT
BRANCH   9  12
ATOM     11 CL   UNL     1      34.706 -24.188 -11.370  0.00  0.00    -0.032 Cl
ATOM     12  N   UNL     1      33.511 -23.595 -13.694  0.00  0.00    -0.211 N 
ATOM     13  N   UNL     1      35.720 -23.268 -13.696  0.00  0.00    -0.370 NA
ATOM     14  N   UNL     1      32.993 -22.915 -15.969  0.00  0.00    -0.227 NA
ATOM     15  N   UNL     1      35.000 -22.220 -17.169  0.00  0.00    -0.227 NA
ATOM     16  C   UNL     1      33.829 -23.133 -14.942  0.00  0.00    +0.170 C 
ATOM     17  C   UNL     1      34.683 -23.658 -12.984  0.00  0.00    +0.251 C 
ATOM     18  C   UNL     1      35.200 -22.938 -14.922  0.00  0.00    +0.196 C 
ATOM     19  C   UNL     1      35.784 -22.463 -16.092  0.00  0.00    +0.155 C 
ATOM     20  C   UNL     1      33.671 -22.458 -17.042  0.00  0.00    +0.253 C 
ATOM     21  N   UNL     1      37.170 -22.237 -16.161  0.00  0.00    -0.341 N 
ATOM     22  H   UNL     1      37.574 -21.902 -16.994  0.00  0.00    +0.144 HD
ATOM     23  H   UNL     1      37.738 -22.415 -15.377  0.00  0.00    +0.144 HD
ENDBRANCH   9  12
BRANCH   8  24
ATOM     24  O   UNL     1      30.425 -22.858 -11.949  0.00  0.00    -0.378 OA
ATOM     25  H   UNL     1      29.496 -22.983 -12.199  0.00  0.00    +0.211 HD
ENDBRANCH   8  24
BRANCH   1  26
ATOM     26  O   UNL     1      28.793 -22.041 -16.870  0.00  0.00    -0.302 OA
ATOM     27  H   UNL     1      28.110 -21.619 -17.413  0.00  0.00    +0.222 HD
ENDBRANCH   1  26
TORSDOF 3
ENDMDL
MODEL 7
REMARK VINA RESULT:      -9.7      4.692      6.720
REMARK  Name = 100299
REMARK  3 active torsions:
REMARK  status: ('A' for Active; 'I' for Inactive)
REMARK    1  A    between atoms: P_1  and  O_26
REMARK    2  A    between atoms: C_8  and  O_24
REMARK    3  A    between atoms: C_9  and  N_12
REMARK                            x       y       z     vdW  Elec       q    Type
REMARK                         _______ _______ _______ _____ _____    ______ ____
ROOT
ATOM      1  P   UNL     1      35.808 -24.253 -11.329  0.00  0.00    +0.476 P 
ATOM      2  O   UNL     1      36.186 -24.025 -15.631  0.00  0.00    -0.333 OA
ATOM      3  O   UNL     1      35.995 -22.916 -12.239  0.00  0.00    -0.271 OA
ATOM      4  O   UNL     1      36.330 -25.488 -12.247  0.00  0.00    -0.271 OA
ATOM      5  O   UNL     1      36.461 -24.174  -9.979  0.00  0.00    -0.227 OA
ATOM      6  C   UNL     1      35.641 -23.046 -13.597  0.00  0.00    +0.186 C 
ATOM      7  C   UNL     1      36.432 -24.169 -14.233  0.00  0.00    +0.177 C 
ATOM      8  C   UNL     1      35.987 -21.893 -14.512  0.00  0.00    +0.188 C 
ATOM      9  C   UNL     1      36.054 -22.599 -15.880  0.00  0.00    +0.230 C 
ATOM     10  C   UNL     1      36.024 -25.503 -13.642  0.00  0.00    +0.186 C 
ENDROOT
BRANCH   9  12
ATOM     11 CL   UNL     1      33.190 -23.674 -15.115  0.00  0.00    -0.032 Cl
ATOM     12  N   UNL     1      34.882 -22.356 -16.720  0.00  0.00    -0.211 N 
ATOM     13  N   UNL     1      32.772 -22.386 -17.450  0.00  0.00    -0.370 NA
ATOM     14  N   UNL     1      35.917 -21.077 -18.508  0.00  0.00    -0.227 NA
ATOM     15  N   UNL     1      34.283 -20.433 -20.203  0.00  0.00    -0.227 NA
ATOM     16  C   UNL     1      34.874 -21.663 -17.900  0.00  0.00    +0.170 C 
ATOM     17  C   UNL     1      33.594 -22.769 -16.495  0.00  0.00    +0.251 C 
ATOM     18  C   UNL     1      33.559 -21.693 -18.334  0.00  0.00    +0.196 C 
ATOM     19  C   UNL     1      33.278 -21.047 -19.533  0.00  0.00    +0.155 C 
ATOM     20  C   UNL     1      35.523 -20.487 -19.657  0.00  0.00    +0.253 C 
ATOM     21  N   UNL     1      31.970 -21.027 -20.048  0.00  0.00    -0.341 N 
ATOM     22  H   UNL     1      31.782 -20.566 -20.897  0.00  0.00    +0.144 HD
ATOM     23  H   UNL     1      31.242 -21.472 -19.559  0.00  0.00    +0.144 HD
ENDBRANCH   9  12
BRANCH   8  24
ATOM     24  O   UNL     1      37.273 -21.375 -14.183  0.00  0.00    -0.378 OA
ATOM     25  H   UNL     1      37.271 -20.412 -14.295  0.00  0.00    +0.211 HD
ENDBRANCH   8  24
BRANCH   1  26
ATOM     26  O   UNL     1      34.204 -24.469 -11.258  0.00  0.00    -0.302 OA
ATOM     27  H   UNL     1      33.899 -24.896 -12.074  0.00  0.00    +0.222 HD
ENDBRANCH   1  26
TORSDOF 3
ENDMDL
MODEL 8
REMARK VINA RESULT:      -9.6      4.314      6.820
REMARK  Name = 100299
REMARK  3 active torsions:
REMARK  status: ('A' for Active; 'I' for Inactive)
REMARK    1  A    between atoms: P_1  and  O_26
REMARK    2  A    between atoms: C_8  and  O_24
REMARK    3  A    between atoms: C_9  and  N_12
REMARK                            x       y       z     vdW  Elec       q    Type
REMARK                         _______ _______ _______ _____ _____    ______ ____
ROOT
ATOM      1  P   UNL     1      38.118 -25.233 -14.026  0.00  0.00    +0.476 P 
ATOM      2  O   UNL     1      34.945 -22.310 -14.316  0.00  0.00    -0.333 OA
ATOM      3  O   UNL     1      36.718 -25.204 -13.197  0.00  0.00    -0.271 OA
ATOM      4  O   UNL     1      38.348 -23.715 -14.559  0.00  0.00    -0.271 OA
ATOM      5  O   UNL     1      39.279 -25.794 -13.255  0.00  0.00    -0.227 OA
ATOM      6  C   UNL     1      35.680 -24.445 -13.775  0.00  0.00    +0.186 C 
ATOM      7  C   UNL     1      36.139 -23.018 -13.985  0.00  0.00    +0.177 C 
ATOM      8  C   UNL     1      34.438 -24.230 -12.940  0.00  0.00    +0.188 C 
ATOM      9  C   UNL     1      33.873 -22.939 -13.562  0.00  0.00    +0.230 C 
ATOM     10  C   UNL     1      37.231 -22.963 -15.034  0.00  0.00    +0.186 C 
ENDROOT
BRANCH   9  12
ATOM     11 CL   UNL     1      33.995 -22.369 -16.661  0.00  0.00    -0.032 Cl
ATOM     12  N   UNL     1      32.726 -23.167 -14.441  0.00  0.00    -0.211 N 
ATOM     13  N   UNL     1      31.475 -23.260 -16.287  0.00  0.00    -0.370 NA
ATOM     14  N   UNL     1      31.114 -23.972 -12.810  0.00  0.00    -0.227 NA
ATOM     15  N   UNL     1      28.973 -24.492 -13.858  0.00  0.00    -0.227 NA
ATOM     16  C   UNL     1      31.501 -23.633 -14.050  0.00  0.00    +0.170 C 
ATOM     17  C   UNL     1      32.658 -22.957 -15.794  0.00  0.00    +0.251 C 
ATOM     18  C   UNL     1      30.743 -23.684 -15.208  0.00  0.00    +0.196 C 
ATOM     19  C   UNL     1      29.432 -24.134 -15.082  0.00  0.00    +0.155 C 
ATOM     20  C   UNL     1      29.830 -24.389 -12.814  0.00  0.00    +0.253 C 
ATOM     21  N   UNL     1      28.591 -24.219 -16.205  0.00  0.00    -0.341 N 
ATOM     22  H   UNL     1      27.666 -24.539 -16.105  0.00  0.00    +0.144 HD
ATOM     23  H   UNL     1      28.928 -23.959 -17.092  0.00  0.00    +0.144 HD
ENDBRANCH   9  12
BRANCH   8  24
ATOM     24  O   UNL     1      34.795 -23.986 -11.583  0.00  0.00    -0.378 OA
ATOM     25  H   UNL     1      34.472 -23.111 -11.317  0.00  0.00    +0.211 HD
ENDBRANCH   8  24
BRANCH   1  26
ATOM     26  O   UNL     1      37.772 -26.070 -15.369  0.00  0.00    -0.302 OA
ATOM     27  H   UNL     1      36.822 -26.263 -15.394  0.00  0.00    +0.222 HD
ENDBRANCH   1  26
TORSDOF 3
ENDMDL
MODEL 9
REMARK VINA RESULT:      -9.2      4.787      7.142
REMARK  Name = 100299
REMARK  3 active torsions:
REMARK  status: ('A' for Active; 'I' for Inactive)
REMARK    1  A    between atoms: P_1  and  O_26
REMARK    2  A    between atoms: C_8  and  O_24
REMARK    3  A    between atoms: C_9  and  N_12
REMARK                            x       y       z     vdW  Elec       q    Type
REMARK                         _______ _______ _______ _____ _____    ______ ____
ROOT
ATOM      1  P   UNL     1      37.738 -24.914 -12.360  0.00  0.00    +0.476 P 
ATOM      2  O   UNL     1      35.001 -22.164 -14.269  0.00  0.00    -0.333 OA
ATOM      3  O   UNL     1      36.718 -25.223 -13.591  0.00  0.00    -0.271 OA
ATOM      4  O   UNL     1      37.162 -23.579 -11.634  0.00  0.00    -0.271 OA
ATOM      5  O   UNL     1      37.949 -26.073 -11.430  0.00  0.00    -0.227 OA
ATOM      6  C   UNL     1      36.282 -24.099 -14.322  0.00  0.00    +0.186 C 
ATOM      7  C   UNL     1      35.619 -23.104 -13.393  0.00  0.00    +0.177 C 
ATOM      8  C   UNL     1      35.185 -24.322 -15.338  0.00  0.00    +0.188 C 
ATOM      9  C   UNL     1      34.572 -22.912 -15.439  0.00  0.00    +0.230 C 
ATOM     10  C   UNL     1      36.635 -22.518 -12.434  0.00  0.00    +0.186 C 
ENDROOT
BRANCH   9  12
ATOM     11 CL   UNL     1      37.550 -22.025 -15.977  0.00  0.00    -0.032 Cl
ATOM     12  N   UNL     1      34.962 -22.191 -16.651  0.00  0.00    -0.211 N 
ATOM     13  N   UNL     1      36.228 -21.134 -18.155  0.00  0.00    -0.370 NA
ATOM     14  N   UNL     1      32.801 -22.040 -17.752  0.00  0.00    -0.227 NA
ATOM     15  N   UNL     1      32.970 -20.869 -19.886  0.00  0.00    -0.227 NA
ATOM     16  C   UNL     1      34.122 -21.820 -17.664  0.00  0.00    +0.170 C 
ATOM     17  C   UNL     1      36.216 -21.755 -16.994  0.00  0.00    +0.251 C 
ATOM     18  C   UNL     1      34.926 -21.168 -18.585  0.00  0.00    +0.196 C 
ATOM     19  C   UNL     1      34.303 -20.683 -19.731  0.00  0.00    +0.155 C 
ATOM     20  C   UNL     1      32.312 -21.526 -18.900  0.00  0.00    +0.253 C 
ATOM     21  N   UNL     1      35.042 -20.009 -20.719  0.00  0.00    -0.341 N 
ATOM     22  H   UNL     1      34.592 -19.671 -21.526  0.00  0.00    +0.144 HD
ATOM     23  H   UNL     1      36.011 -19.877 -20.604  0.00  0.00    +0.144 HD
ENDBRANCH   9  12
BRANCH   8  24
ATOM     24  O   UNL     1      34.213 -25.225 -14.820  0.00  0.00    -0.378 OA
ATOM     25  H   UNL     1      33.715 -25.618 -15.554  0.00  0.00    +0.211 HD
ENDBRANCH   8  24
BRANCH   1  26
ATOM     26  O   UNL     1      39.098 -24.410 -13.082  0.00  0.00    -0.302 OA
ATOM     27  H   UNL     1      39.506 -23.710 -12.550  0.00  0.00    +0.222 HD
ENDBRANCH   1  26
TORSDOF 3
ENDMDL
