MODEL 1
REMARK VINA RESULT:     -11.0      0.000      0.000
REMARK  Name = 107706
REMARK  10 active torsions:
REMARK  status: ('A' for Active; 'I' for Inactive)
REMARK    1  A    between atoms: N_1  and  C_3
REMARK    2  A    between atoms: N_1  and  S_18
REMARK    3  A    between atoms: C_4  and  C_11
REMARK    4  A    between atoms: N_10  and  C_13
REMARK    5  A    between atoms: C_13  and  C_15
REMARK    6  A    between atoms: C_15  and  O_16
REMARK    7  A    between atoms: S_18  and  C_21
REMARK    8  A    between atoms: C_22  and  O_27
REMARK    9  A    between atoms: O_27  and  C_29
REMARK   10  A    between atoms: C_29  and  C_30
REMARK                            x       y       z     vdW  Elec       q    Type
REMARK                         _______ _______ _______ _____ _____    ______ ____
ROOT
ATOM      1  N   UNL     1      34.024 -22.043 -14.677  0.00  0.00    -0.215 N 
ATOM      2  H   UNL     1      33.999 -21.094 -14.421  0.00  0.00    +0.174 HD
ENDROOT
BRANCH   1   3
ATOM      3  C   UNL     1      32.916 -22.915 -14.394  0.00  0.00    +0.069 C 
ATOM      4  C   UNL     1      32.952 -23.795 -13.312  0.00  0.00    +0.068 C 
ATOM      5  C   UNL     1      31.793 -22.872 -15.221  0.00  0.00    +0.016 C 
ATOM      6  C   UNL     1      31.866 -24.631 -13.057  0.00  0.00    +0.006 C 
ATOM      7  C   UNL     1      30.706 -23.709 -14.965  0.00  0.00    +0.001 C 
ATOM      8  C   UNL     1      30.743 -24.589 -13.883  0.00  0.00    +0.000 C 
BRANCH   4  11
ATOM      9  O   UNL     1      34.172 -23.142 -11.419  0.00  0.00    -0.270 OA
ATOM     10  N   UNL     1      35.108 -24.783 -12.764  0.00  0.00    -0.291 N 
ATOM     11  C   UNL     1      34.110 -23.863 -12.429  0.00  0.00    +0.247 C 
ATOM     12  H   UNL     1      34.991 -25.321 -13.581  0.00  0.00    +0.150 HD
BRANCH  10  13
ATOM     13  C   UNL     1      36.303 -24.985 -11.977  0.00  0.00    +0.201 C 
BRANCH  13  15
ATOM     14  O   UNL     1      37.967 -26.059 -13.344  0.00  0.00    -0.248 OA
ATOM     15  C   UNL     1      37.555 -25.034 -12.813  0.00  0.00    +0.334 C 
BRANCH  15  16
ATOM     16  O   UNL     1      38.182 -23.840 -12.922  0.00  0.00    -0.479 OA
ATOM     17  H   UNL     1      38.413 -23.508 -13.768  0.00  0.00    +0.295 HD
ENDBRANCH  15  16
ENDBRANCH  13  15
ENDBRANCH  10  13
ENDBRANCH   4  11
ENDBRANCH   1   3
BRANCH   1  18
ATOM     18  S   UNL     1      35.396 -22.710 -15.479  0.00  0.00    +0.074 S 
ATOM     19  O   UNL     1      36.595 -22.187 -14.834  0.00  0.00    -0.150 OA
ATOM     20  O   UNL     1      35.236 -24.153 -15.601  0.00  0.00    -0.150 OA
BRANCH  18  21
ATOM     21  C   UNL     1      35.297 -21.999 -17.072  0.00  0.00    +0.125 C 
ATOM     22  C   UNL     1      35.138 -20.863 -19.614  0.00  0.00    +0.149 C 
ATOM     23  C   UNL     1      36.344 -21.211 -17.549  0.00  0.00    +0.023 C 
ATOM     24  C   UNL     1      34.171 -22.219 -17.864  0.00  0.00    +0.023 C 
ATOM     25  C   UNL     1      36.264 -20.643 -18.821  0.00  0.00    +0.039 C 
ATOM     26  C   UNL     1      34.092 -21.652 -19.136  0.00  0.00    +0.039 C 
BRANCH  22  27
ATOM     27  O   UNL     1      35.059 -20.296 -20.888  0.00  0.00    -0.424 OA
BRANCH  27  29
ATOM     28  O   UNL     1      33.077 -19.139 -20.469  0.00  0.00    -0.250 OA
ATOM     29  C   UNL     1      34.204 -19.196 -20.947  0.00  0.00    +0.320 C 
BRANCH  29  30
ATOM     30  C   UNL     1      34.889 -18.050 -21.703  0.00  0.00    +0.090 C 
ATOM     31  C   UNL     1      36.404 -18.287 -21.728  0.00  0.00    +0.011 C 
ATOM     32  C   UNL     1      34.333 -17.973 -23.131  0.00  0.00    +0.011 C 
ATOM     33  C   UNL     1      34.602 -16.722 -20.984  0.00  0.00    +0.011 C 
ENDBRANCH  29  30
ENDBRANCH  27  29
ENDBRANCH  22  27
ENDBRANCH  18  21
ENDBRANCH   1  18
TORSDOF 10
ENDMDL
MODEL 2
REMARK VINA RESULT:     -10.5      3.157      5.435
REMARK  Name = 107706
REMARK  10 active torsions:
REMARK  status: ('A' for Active; 'I' for Inactive)
REMARK    1  A    between atoms: N_1  and  C_3
REMARK    2  A    between atoms: N_1  and  S_18
REMARK    3  A    between atoms: C_4  and  C_11
REMARK    4  A    between atoms: N_10  and  C_13
REMARK    5  A    between atoms: C_13  and  C_15
REMARK    6  A    between atoms: C_15  and  O_16
REMARK    7  A    between atoms: S_18  and  C_21
REMARK    8  A    between atoms: C_22  and  O_27
REMARK    9  A    between atoms: O_27  and  C_29
REMARK   10  A    between atoms: C_29  and  C_30
REMARK                            x       y       z     vdW  Elec       q    Type
REMARK                         _______ _______ _______ _____ _____    ______ ____
ROOT
ATOM      1  N   UNL     1      32.160 -22.532 -15.890  0.00  0.00    -0.215 N 
ATOM      2  H   UNL     1      31.715 -21.882 -16.480  0.00  0.00    +0.174 HD
ENDROOT
BRANCH   1   3
ATOM      3  C   UNL     1      31.408 -23.292 -14.927  0.00  0.00    +0.069 C 
ATOM      4  C   UNL     1      30.022 -23.407 -15.026  0.00  0.00    +0.068 C 
ATOM      5  C   UNL     1      32.087 -23.919 -13.882  0.00  0.00    +0.016 C 
ATOM      6  C   UNL     1      29.314 -24.149 -14.082  0.00  0.00    +0.006 C 
ATOM      7  C   UNL     1      31.379 -24.661 -12.937  0.00  0.00    +0.001 C 
ATOM      8  C   UNL     1      29.992 -24.776 -13.036  0.00  0.00    +0.000 C 
BRANCH   4  11
ATOM      9  O   UNL     1      29.859 -21.983 -16.882  0.00  0.00    -0.270 OA
ATOM     10  N   UNL     1      27.931 -23.095 -16.233  0.00  0.00    -0.291 N 
ATOM     11  C   UNL     1      29.284 -22.765 -16.107  0.00  0.00    +0.247 C 
ATOM     12  H   UNL     1      27.542 -23.722 -15.582  0.00  0.00    +0.150 HD
BRANCH  10  13
ATOM     13  C   UNL     1      27.073 -22.561 -17.266  0.00  0.00    +0.201 C 
BRANCH  13  15
ATOM     14  O   UNL     1      25.951 -20.434 -17.370  0.00  0.00    -0.248 OA
ATOM     15  C   UNL     1      26.152 -21.479 -16.763  0.00  0.00    +0.334 C 
BRANCH  15  16
ATOM     16  O   UNL     1      25.569 -21.772 -15.577  0.00  0.00    -0.479 OA
ATOM     17  H   UNL     1      25.160 -22.606 -15.450  0.00  0.00    +0.295 HD
ENDBRANCH  15  16
ENDBRANCH  13  15
ENDBRANCH  10  13
ENDBRANCH   4  11
ENDBRANCH   1   3
BRANCH   1  18
ATOM     18  S   UNL     1      33.861 -22.790 -15.978  0.00  0.00    +0.074 S 
ATOM     19  O   UNL     1      34.486 -22.064 -14.879  0.00  0.00    -0.150 OA
ATOM     20  O   UNL     1      34.131 -24.214 -16.123  0.00  0.00    -0.150 OA
BRANCH  18  21
ATOM     21  C   UNL     1      34.298 -21.984 -17.464  0.00  0.00    +0.125 C 
ATOM     22  C   UNL     1      34.996 -20.697 -19.839  0.00  0.00    +0.149 C 
ATOM     23  C   UNL     1      33.332 -21.759 -18.445  0.00  0.00    +0.023 C 
ATOM     24  C   UNL     1      35.612 -21.566 -17.670  0.00  0.00    +0.023 C 
ATOM     25  C   UNL     1      33.681 -21.115 -19.633  0.00  0.00    +0.039 C 
ATOM     26  C   UNL     1      35.961 -20.922 -18.858  0.00  0.00    +0.039 C 
BRANCH  22  27
ATOM     27  O   UNL     1      35.345 -20.051 -21.027  0.00  0.00    -0.424 OA
BRANCH  27  29
ATOM     28  O   UNL     1      33.166 -19.369 -21.506  0.00  0.00    -0.250 OA
ATOM     29  C   UNL     1      34.373 -19.157 -21.473  0.00  0.00    +0.320 C 
BRANCH  29  30
ATOM     30  C   UNL     1      35.039 -17.848 -21.916  0.00  0.00    +0.090 C 
ATOM     31  C   UNL     1      34.611 -16.713 -20.978  0.00  0.00    +0.011 C 
ATOM     32  C   UNL     1      36.564 -18.017 -21.894  0.00  0.00    +0.011 C 
ATOM     33  C   UNL     1      34.596 -17.509 -23.348  0.00  0.00    +0.011 C 
ENDBRANCH  29  30
ENDBRANCH  27  29
ENDBRANCH  22  27
ENDBRANCH  18  21
ENDBRANCH   1  18
TORSDOF 10
ENDMDL
MODEL 3
REMARK VINA RESULT:     -10.4      1.615      2.269
REMARK  Name = 107706
REMARK  10 active torsions:
REMARK  status: ('A' for Active; 'I' for Inactive)
REMARK    1  A    between atoms: N_1  and  C_3
REMARK    2  A    between atoms: N_1  and  S_18
REMARK    3  A    between atoms: C_4  and  C_11
REMARK    4  A    between atoms: N_10  and  C_13
REMARK    5  A    between atoms: C_13  and  C_15
REMARK    6  A    between atoms: C_15  and  O_16
REMARK    7  A    between atoms: S_18  and  C_21
REMARK    8  A    between atoms: C_22  and  O_27
REMARK    9  A    between atoms: O_27  and  C_29
REMARK   10  A    between atoms: C_29  and  C_30
REMARK                            x       y       z     vdW  Elec       q    Type
REMARK                         _______ _______ _______ _____ _____    ______ ____
ROOT
ATOM      1  N   UNL     1      33.116 -22.146 -15.501  0.00  0.00    -0.215 N 
ATOM      2  H   UNL     1      33.270 -21.208 -15.247  0.00  0.00    +0.174 HD
ENDROOT
BRANCH   1   3
ATOM      3  C   UNL     1      32.079 -22.921 -14.874  0.00  0.00    +0.069 C 
ATOM      4  C   UNL     1      32.361 -23.763 -13.798  0.00  0.00    +0.068 C 
ATOM      5  C   UNL     1      30.775 -22.823 -15.359  0.00  0.00    +0.016 C 
ATOM      6  C   UNL     1      31.340 -24.505 -13.206  0.00  0.00    +0.006 C 
ATOM      7  C   UNL     1      29.753 -23.566 -14.767  0.00  0.00    +0.001 C 
ATOM      8  C   UNL     1      30.036 -24.408 -13.691  0.00  0.00    +0.000 C 
BRANCH   4  11
ATOM      9  O   UNL     1      34.543 -24.624 -13.828  0.00  0.00    -0.270 OA
ATOM     10  N   UNL     1      34.021 -23.127 -12.135  0.00  0.00    -0.291 N 
ATOM     11  C   UNL     1      33.713 -23.887 -13.268  0.00  0.00    +0.247 C 
ATOM     12  H   UNL     1      33.313 -22.565 -11.744  0.00  0.00    +0.150 HD
BRANCH  10  13
ATOM     13  C   UNL     1      35.323 -23.123 -11.508  0.00  0.00    +0.201 C 
BRANCH  13  15
ATOM     14  O   UNL     1      36.073 -25.350 -10.984  0.00  0.00    -0.248 OA
ATOM     15  C   UNL     1      35.543 -24.312 -10.607  0.00  0.00    +0.334 C 
BRANCH  15  16
ATOM     16  O   UNL     1      35.099 -24.123  -9.342  0.00  0.00    -0.479 OA
ATOM     17  H   UNL     1      35.322 -24.739  -8.672  0.00  0.00    +0.295 HD
ENDBRANCH  15  16
ENDBRANCH  13  15
ENDBRANCH  10  13
ENDBRANCH   4  11
ENDBRANCH   1   3
BRANCH   1  18
ATOM     18  S   UNL     1      34.081 -22.907 -16.709  0.00  0.00    +0.074 S 
ATOM     19  O   UNL     1      35.473 -22.842 -16.282  0.00  0.00    -0.150 OA
ATOM     20  O   UNL     1      33.508 -24.204 -17.044  0.00  0.00    -0.150 OA
BRANCH  18  21
ATOM     21  C   UNL     1      33.894 -21.842 -18.080  0.00  0.00    +0.125 C 
ATOM     22  C   UNL     1      33.596 -20.141 -20.271  0.00  0.00    +0.149 C 
ATOM     23  C   UNL     1      32.621 -21.430 -18.475  0.00  0.00    +0.023 C 
ATOM     24  C   UNL     1      35.018 -21.404 -18.781  0.00  0.00    +0.023 C 
ATOM     25  C   UNL     1      32.473 -20.579 -19.571  0.00  0.00    +0.039 C 
ATOM     26  C   UNL     1      34.868 -20.554 -19.876  0.00  0.00    +0.039 C 
BRANCH  22  27
ATOM     27  O   UNL     1      33.447 -19.289 -21.367  0.00  0.00    -0.424 OA
BRANCH  27  29
ATOM     28  O   UNL     1      34.358 -17.394 -20.357  0.00  0.00    -0.250 OA
ATOM     29  C   UNL     1      34.270 -18.165 -21.305  0.00  0.00    +0.320 C 
BRANCH  29  30
ATOM     30  C   UNL     1      35.065 -18.034 -22.610  0.00  0.00    +0.090 C 
ATOM     31  C   UNL     1      34.809 -16.654 -23.228  0.00  0.00    +0.011 C 
ATOM     32  C   UNL     1      36.560 -18.225 -22.322  0.00  0.00    +0.011 C 
ATOM     33  C   UNL     1      34.605 -19.118 -23.599  0.00  0.00    +0.011 C 
ENDBRANCH  29  30
ENDBRANCH  27  29
ENDBRANCH  22  27
ENDBRANCH  18  21
ENDBRANCH   1  18
TORSDOF 10
ENDMDL
MODEL 4
REMARK VINA RESULT:     -10.4      1.553      3.859
REMARK  Name = 107706
REMARK  10 active torsions:
REMARK  status: ('A' for Active; 'I' for Inactive)
REMARK    1  A    between atoms: N_1  and  C_3
REMARK    2  A    between atoms: N_1  and  S_18
REMARK    3  A    between atoms: C_4  and  C_11
REMARK    4  A    between atoms: N_10  and  C_13
REMARK    5  A    between atoms: C_13  and  C_15
REMARK    6  A    between atoms: C_15  and  O_16
REMARK    7  A    between atoms: S_18  and  C_21
REMARK    8  A    between atoms: C_22  and  O_27
REMARK    9  A    between atoms: O_27  and  C_29
REMARK   10  A    between atoms: C_29  and  C_30
REMARK                            x       y       z     vdW  Elec       q    Type
REMARK                         _______ _______ _______ _____ _____    ______ ____
ROOT
ATOM      1  N   UNL     1      36.804 -22.282 -15.006  0.00  0.00    -0.215 N 
ATOM      2  H   UNL     1      37.125 -21.352 -15.033  0.00  0.00    +0.174 HD
ENDROOT
BRANCH   1   3
ATOM      3  C   UNL     1      37.645 -23.339 -14.511  0.00  0.00    +0.069 C 
ATOM      4  C   UNL     1      37.376 -23.959 -13.290  0.00  0.00    +0.068 C 
ATOM      5  C   UNL     1      38.743 -23.742 -15.271  0.00  0.00    +0.016 C 
ATOM      6  C   UNL     1      38.204 -24.981 -12.830  0.00  0.00    +0.006 C 
ATOM      7  C   UNL     1      39.572 -24.766 -14.810  0.00  0.00    +0.001 C 
ATOM      8  C   UNL     1      39.303 -25.385 -13.589  0.00  0.00    +0.000 C 
BRANCH   4  11
ATOM      9  O   UNL     1      36.322 -22.587 -11.708  0.00  0.00    -0.270 OA
ATOM     10  N   UNL     1      35.062 -24.307 -12.619  0.00  0.00    -0.291 N 
ATOM     11  C   UNL     1      36.236 -23.561 -12.474  0.00  0.00    +0.247 C 
ATOM     12  H   UNL     1      35.068 -25.067 -13.245  0.00  0.00    +0.150 HD
BRANCH  10  13
ATOM     13  C   UNL     1      33.843 -24.023 -11.898  0.00  0.00    +0.201 C 
BRANCH  13  15
ATOM     14  O   UNL     1      31.643 -23.275 -12.528  0.00  0.00    -0.248 OA
ATOM     15  C   UNL     1      32.635 -23.941 -12.797  0.00  0.00    +0.334 C 
BRANCH  15  16
ATOM     16  O   UNL     1      32.752 -24.674 -13.929  0.00  0.00    -0.479 OA
ATOM     17  H   UNL     1      32.898 -24.246 -14.751  0.00  0.00    +0.295 HD
ENDBRANCH  15  16
ENDBRANCH  13  15
ENDBRANCH  10  13
ENDBRANCH   4  11
ENDBRANCH   1   3
BRANCH   1  18
ATOM     18  S   UNL     1      35.222 -22.691 -15.552  0.00  0.00    +0.074 S 
ATOM     19  O   UNL     1      35.160 -24.139 -15.711  0.00  0.00    -0.150 OA
ATOM     20  O   UNL     1      34.231 -22.033 -14.710  0.00  0.00    -0.150 OA
BRANCH  18  21
ATOM     21  C   UNL     1      35.166 -21.978 -17.145  0.00  0.00    +0.125 C 
ATOM     22  C   UNL     1      35.075 -20.837 -19.689  0.00  0.00    +0.149 C 
ATOM     23  C   UNL     1      36.250 -21.237 -17.616  0.00  0.00    +0.023 C 
ATOM     24  C   UNL     1      34.036 -22.147 -17.945  0.00  0.00    +0.023 C 
ATOM     25  C   UNL     1      36.205 -20.667 -18.888  0.00  0.00    +0.039 C 
ATOM     26  C   UNL     1      33.992 -21.577 -19.217  0.00  0.00    +0.039 C 
BRANCH  22  27
ATOM     27  O   UNL     1      35.030 -20.267 -20.963  0.00  0.00    -0.424 OA
BRANCH  27  29
ATOM     28  O   UNL     1      33.047 -19.091 -20.609  0.00  0.00    -0.250 OA
ATOM     29  C   UNL     1      34.193 -19.154 -21.038  0.00  0.00    +0.320 C 
BRANCH  29  30
ATOM     30  C   UNL     1      34.925 -18.004 -21.740  0.00  0.00    +0.090 C 
ATOM     31  C   UNL     1      34.473 -17.928 -23.204  0.00  0.00    +0.011 C 
ATOM     32  C   UNL     1      34.622 -16.685 -21.016  0.00  0.00    +0.011 C 
ATOM     33  C   UNL     1      36.440 -18.260 -21.696  0.00  0.00    +0.011 C 
ENDBRANCH  29  30
ENDBRANCH  27  29
ENDBRANCH  22  27
ENDBRANCH  18  21
ENDBRANCH   1  18
TORSDOF 10
ENDMDL
MODEL 5
REMARK VINA RESULT:      -9.8      2.084      4.034
REMARK  Name = 107706
REMARK  10 active torsions:
REMARK  status: ('A' for Active; 'I' for Inactive)
REMARK    1  A    between atoms: N_1  and  C_3
REMARK    2  A    between atoms: N_1  and  S_18
REMARK    3  A    between atoms: C_4  and  C_11
REMARK    4  A    between atoms: N_10  and  C_13
REMARK    5  A    between atoms: C_13  and  C_15
REMARK    6  A    between atoms: C_15  and  O_16
REMARK    7  A    between atoms: S_18  and  C_21
REMARK    8  A    between atoms: C_22  and  O_27
REMARK    9  A    between atoms: O_27  and  C_29
REMARK   10  A    between atoms: C_29  and  C_30
REMARK                            x       y       z     vdW  Elec       q    Type
REMARK                         _______ _______ _______ _____ _____    ______ ____
ROOT
ATOM      1  N   UNL     1      36.255 -24.217 -15.074  0.00  0.00    -0.215 N 
ATOM      2  H   UNL     1      35.644 -24.881 -15.466  0.00  0.00    +0.174 HD
ENDROOT
BRANCH   1   3
ATOM      3  C   UNL     1      37.575 -24.592 -14.642  0.00  0.00    +0.069 C 
ATOM      4  C   UNL     1      37.805 -25.043 -13.343  0.00  0.00    +0.068 C 
ATOM      5  C   UNL     1      38.634 -24.497 -15.545  0.00  0.00    +0.016 C 
ATOM      6  C   UNL     1      39.093 -25.401 -12.946  0.00  0.00    +0.006 C 
ATOM      7  C   UNL     1      39.923 -24.855 -15.148  0.00  0.00    +0.001 C 
ATOM      8  C   UNL     1      40.153 -25.307 -13.848  0.00  0.00    +0.000 C 
BRANCH   4  11
ATOM      9  O   UNL     1      36.552 -26.208 -11.738  0.00  0.00    -0.270 OA
ATOM     10  N   UNL     1      35.915 -24.026 -12.196  0.00  0.00    -0.291 N 
ATOM     11  C   UNL     1      36.720 -25.154 -12.376  0.00  0.00    +0.247 C 
ATOM     12  H   UNL     1      36.106 -23.226 -12.737  0.00  0.00    +0.150 HD
BRANCH  10  13
ATOM     13  C   UNL     1      34.816 -23.972 -11.258  0.00  0.00    +0.201 C 
BRANCH  13  15
ATOM     14  O   UNL     1      34.868 -24.660  -8.952  0.00  0.00    -0.248 OA
ATOM     15  C   UNL     1      35.272 -23.900  -9.823  0.00  0.00    +0.334 C 
BRANCH  15  16
ATOM     16  O   UNL     1      36.171 -22.915  -9.589  0.00  0.00    -0.479 OA
ATOM     17  H   UNL     1      36.032 -22.060  -9.947  0.00  0.00    +0.295 HD
ENDBRANCH  15  16
ENDBRANCH  13  15
ENDBRANCH  10  13
ENDBRANCH   4  11
ENDBRANCH   1   3
BRANCH   1  18
ATOM     18  S   UNL     1      35.776 -22.573 -14.884  0.00  0.00    +0.074 S 
ATOM     19  O   UNL     1      34.474 -22.554 -14.229  0.00  0.00    -0.150 OA
ATOM     20  O   UNL     1      36.870 -21.811 -14.296  0.00  0.00    -0.150 OA
BRANCH  18  21
ATOM     21  C   UNL     1      35.549 -22.043 -16.533  0.00  0.00    +0.125 C 
ATOM     22  C   UNL     1      35.187 -21.199 -19.167  0.00  0.00    +0.149 C 
ATOM     23  C   UNL     1      34.384 -22.384 -17.220  0.00  0.00    +0.023 C 
ATOM     24  C   UNL     1      36.533 -21.280 -17.162  0.00  0.00    +0.023 C 
ATOM     25  C   UNL     1      34.203 -21.961 -18.538  0.00  0.00    +0.039 C 
ATOM     26  C   UNL     1      36.351 -20.858 -18.479  0.00  0.00    +0.039 C 
BRANCH  22  27
ATOM     27  O   UNL     1      35.005 -20.775 -20.485  0.00  0.00    -0.424 OA
BRANCH  27  29
ATOM     28  O   UNL     1      33.110 -19.479 -20.070  0.00  0.00    -0.250 OA
ATOM     29  C   UNL     1      34.209 -19.635 -20.591  0.00  0.00    +0.320 C 
BRANCH  29  30
ATOM     30  C   UNL     1      34.917 -18.589 -21.460  0.00  0.00    +0.090 C 
ATOM     31  C   UNL     1      34.567 -18.826 -22.934  0.00  0.00    +0.011 C 
ATOM     32  C   UNL     1      34.484 -17.182 -21.025  0.00  0.00    +0.011 C 
ATOM     33  C   UNL     1      36.438 -18.720 -21.278  0.00  0.00    +0.011 C 
ENDBRANCH  29  30
ENDBRANCH  27  29
ENDBRANCH  22  27
ENDBRANCH  18  21
ENDBRANCH   1  18
TORSDOF 10
ENDMDL
MODEL 6
REMARK VINA RESULT:      -9.8      1.901      3.854
REMARK  Name = 107706
REMARK  10 active torsions:
REMARK  status: ('A' for Active; 'I' for Inactive)
REMARK    1  A    between atoms: N_1  and  C_3
REMARK    2  A    between atoms: N_1  and  S_18
REMARK    3  A    between atoms: C_4  and  C_11
REMARK    4  A    between atoms: N_10  and  C_13
REMARK    5  A    between atoms: C_13  and  C_15
REMARK    6  A    between atoms: C_15  and  O_16
REMARK    7  A    between atoms: S_18  and  C_21
REMARK    8  A    between atoms: C_22  and  O_27
REMARK    9  A    between atoms: O_27  and  C_29
REMARK   10  A    between atoms: C_29  and  C_30
REMARK                            x       y       z     vdW  Elec       q    Type
REMARK                         _______ _______ _______ _____ _____    ______ ____
ROOT
ATOM      1  N   UNL     1      34.506 -22.144 -15.036  0.00  0.00    -0.215 N 
ATOM      2  H   UNL     1      34.485 -21.192 -14.787  0.00  0.00    +0.174 HD
ENDROOT
BRANCH   1   3
ATOM      3  C   UNL     1      35.422 -23.054 -14.402  0.00  0.00    +0.069 C 
ATOM      4  C   UNL     1      35.018 -23.851 -13.332  0.00  0.00    +0.068 C 
ATOM      5  C   UNL     1      36.733 -23.131 -14.873  0.00  0.00    +0.016 C 
ATOM      6  C   UNL     1      35.923 -24.726 -12.733  0.00  0.00    +0.006 C 
ATOM      7  C   UNL     1      37.639 -24.006 -14.273  0.00  0.00    +0.001 C 
ATOM      8  C   UNL     1      37.234 -24.804 -13.202  0.00  0.00    +0.000 C 
BRANCH   4  11
ATOM      9  O   UNL     1      33.342 -22.955 -11.958  0.00  0.00    -0.270 OA
ATOM     10  N   UNL     1      32.737 -24.703 -13.355  0.00  0.00    -0.291 N 
ATOM     11  C   UNL     1      33.655 -23.795 -12.818  0.00  0.00    +0.247 C 
ATOM     12  H   UNL     1      33.056 -25.342 -14.034  0.00  0.00    +0.150 HD
BRANCH  10  13
ATOM     13  C   UNL     1      31.347 -24.756 -12.967  0.00  0.00    +0.201 C 
BRANCH  13  15
ATOM     14  O   UNL     1      29.970 -24.930 -14.934  0.00  0.00    -0.248 OA
ATOM     15  C   UNL     1      30.419 -24.231 -14.033  0.00  0.00    +0.334 C 
BRANCH  15  16
ATOM     16  O   UNL     1      30.131 -22.915 -13.901  0.00  0.00    -0.479 OA
ATOM     17  H   UNL     1      29.918 -22.405 -14.658  0.00  0.00    +0.295 HD
ENDBRANCH  15  16
ENDBRANCH  13  15
ENDBRANCH  10  13
ENDBRANCH   4  11
ENDBRANCH   1   3
BRANCH   1  18
ATOM     18  S   UNL     1      33.448 -22.768 -16.244  0.00  0.00    +0.074 S 
ATOM     19  O   UNL     1      33.737 -24.188 -16.408  0.00  0.00    -0.150 OA
ATOM     20  O   UNL     1      32.081 -22.358 -15.953  0.00  0.00    -0.150 OA
BRANCH  18  21
ATOM     21  C   UNL     1      33.983 -21.946 -17.690  0.00  0.00    +0.125 C 
ATOM     22  C   UNL     1      34.837 -20.634 -19.998  0.00  0.00    +0.149 C 
ATOM     23  C   UNL     1      33.057 -21.585 -18.669  0.00  0.00    +0.023 C 
ATOM     24  C   UNL     1      35.335 -21.651 -17.864  0.00  0.00    +0.023 C 
ATOM     25  C   UNL     1      33.485 -20.929 -19.824  0.00  0.00    +0.039 C 
ATOM     26  C   UNL     1      35.761 -20.995 -19.019  0.00  0.00    +0.039 C 
BRANCH  22  27
ATOM     27  O   UNL     1      35.265 -19.976 -21.154  0.00  0.00    -0.424 OA
BRANCH  27  29
ATOM     28  O   UNL     1      33.137 -19.272 -21.802  0.00  0.00    -0.250 OA
ATOM     29  C   UNL     1      34.333 -19.060 -21.641  0.00  0.00    +0.320 C 
BRANCH  29  30
ATOM     30  C   UNL     1      35.030 -17.727 -21.944  0.00  0.00    +0.090 C 
ATOM     31  C   UNL     1      34.623 -16.687 -20.894  0.00  0.00    +0.011 C 
ATOM     32  C   UNL     1      36.551 -17.931 -21.938  0.00  0.00    +0.011 C 
ATOM     33  C   UNL     1      34.599 -17.231 -23.334  0.00  0.00    +0.011 C 
ENDBRANCH  29  30
ENDBRANCH  27  29
ENDBRANCH  22  27
ENDBRANCH  18  21
ENDBRANCH   1  18
TORSDOF 10
ENDMDL
MODEL 7
REMARK VINA RESULT:      -9.4      4.326     10.520
REMARK  Name = 107706
REMARK  10 active torsions:
REMARK  status: ('A' for Active; 'I' for Inactive)
REMARK    1  A    between atoms: N_1  and  C_3
REMARK    2  A    between atoms: N_1  and  S_18
REMARK    3  A    between atoms: C_4  and  C_11
REMARK    4  A    between atoms: N_10  and  C_13
REMARK    5  A    between atoms: C_13  and  C_15
REMARK    6  A    between atoms: C_15  and  O_16
REMARK    7  A    between atoms: S_18  and  C_21
REMARK    8  A    between atoms: C_22  and  O_27
REMARK    9  A    between atoms: O_27  and  C_29
REMARK   10  A    between atoms: C_29  and  C_30
REMARK                            x       y       z     vdW  Elec       q    Type
REMARK                         _______ _______ _______ _____ _____    ______ ____
ROOT
ATOM      1  N   UNL     1      34.535 -17.102 -21.086  0.00  0.00    -0.215 N 
ATOM      2  H   UNL     1      34.192 -16.741 -20.238  0.00  0.00    +0.174 HD
ENDROOT
BRANCH   1   3
ATOM      3  C   UNL     1      34.217 -16.473 -22.340  0.00  0.00    +0.069 C 
ATOM      4  C   UNL     1      33.725 -15.169 -22.385  0.00  0.00    +0.068 C 
ATOM      5  C   UNL     1      34.408 -17.187 -23.523  0.00  0.00    +0.016 C 
ATOM      6  C   UNL     1      33.423 -14.578 -23.611  0.00  0.00    +0.006 C 
ATOM      7  C   UNL     1      34.106 -16.597 -24.750  0.00  0.00    +0.001 C 
ATOM      8  C   UNL     1      33.612 -15.292 -24.795  0.00  0.00    +0.000 C 
BRANCH   4  11
ATOM      9  O   UNL     1      34.176 -14.645 -20.144  0.00  0.00    -0.270 OA
ATOM     10  N   UNL     1      32.571 -13.366 -21.224  0.00  0.00    -0.291 N 
ATOM     11  C   UNL     1      33.516 -14.396 -21.167  0.00  0.00    +0.247 C 
ATOM     12  H   UNL     1      32.085 -13.227 -22.069  0.00  0.00    +0.150 HD
BRANCH  10  13
ATOM     13  C   UNL     1      32.269 -12.498 -20.109  0.00  0.00    +0.201 C 
BRANCH  13  15
ATOM     14  O   UNL     1      31.269 -10.329 -19.813  0.00  0.00    -0.248 OA
ATOM     15  C   UNL     1      31.375 -11.345 -20.489  0.00  0.00    +0.334 C 
BRANCH  15  16
ATOM     16  O   UNL     1      30.702 -11.540 -21.646  0.00  0.00    -0.479 OA
ATOM     17  H   UNL     1      31.173 -11.662 -22.447  0.00  0.00    +0.295 HD
ENDBRANCH  15  16
ENDBRANCH  13  15
ENDBRANCH  10  13
ENDBRANCH   4  11
ENDBRANCH   1   3
BRANCH   1  18
ATOM     18  S   UNL     1      35.533 -18.507 -21.114  0.00  0.00    +0.074 S 
ATOM     19  O   UNL     1      35.661 -18.943 -22.499  0.00  0.00    -0.150 OA
ATOM     20  O   UNL     1      36.742 -18.261 -20.340  0.00  0.00    -0.150 OA
BRANCH  18  21
ATOM     21  C   UNL     1      34.560 -19.689 -20.272  0.00  0.00    +0.125 C 
ATOM     22  C   UNL     1      33.008 -21.577 -18.929  0.00  0.00    +0.149 C 
ATOM     23  C   UNL     1      35.176 -20.695 -19.528  0.00  0.00    +0.023 C 
ATOM     24  C   UNL     1      33.169 -19.626 -20.345  0.00  0.00    +0.023 C 
ATOM     25  C   UNL     1      34.399 -21.640 -18.856  0.00  0.00    +0.039 C 
ATOM     26  C   UNL     1      32.393 -20.570 -19.672  0.00  0.00    +0.039 C 
BRANCH  22  27
ATOM     27  O   UNL     1      32.230 -22.521 -18.255  0.00  0.00    -0.424 OA
BRANCH  27  29
ATOM     28  O   UNL     1      33.837 -22.956 -16.621  0.00  0.00    -0.250 OA
ATOM     29  C   UNL     1      32.673 -22.772 -16.957  0.00  0.00    +0.320 C 
BRANCH  29  30
ATOM     30  C   UNL     1      31.478 -22.780 -15.996  0.00  0.00    +0.090 C 
ATOM     31  C   UNL     1      31.873 -22.096 -14.682  0.00  0.00    +0.011 C 
ATOM     32  C   UNL     1      30.293 -22.053 -16.645  0.00  0.00    +0.011 C 
ATOM     33  C   UNL     1      31.070 -24.233 -15.701  0.00  0.00    +0.011 C 
ENDBRANCH  29  30
ENDBRANCH  27  29
ENDBRANCH  22  27
ENDBRANCH  18  21
ENDBRANCH   1  18
TORSDOF 10
ENDMDL
MODEL 8
REMARK VINA RESULT:      -9.4      8.844     13.493
REMARK  Name = 107706
REMARK  10 active torsions:
REMARK  status: ('A' for Active; 'I' for Inactive)
REMARK    1  A    between atoms: N_1  and  C_3
REMARK    2  A    between atoms: N_1  and  S_18
REMARK    3  A    between atoms: C_4  and  C_11
REMARK    4  A    between atoms: N_10  and  C_13
REMARK    5  A    between atoms: C_13  and  C_15
REMARK    6  A    between atoms: C_15  and  O_16
REMARK    7  A    between atoms: S_18  and  C_21
REMARK    8  A    between atoms: C_22  and  O_27
REMARK    9  A    between atoms: O_27  and  C_29
REMARK   10  A    between atoms: C_29  and  C_30
REMARK                            x       y       z     vdW  Elec       q    Type
REMARK                         _______ _______ _______ _____ _____    ______ ____
ROOT
ATOM      1  N   UNL     1      33.332 -12.237 -22.065  0.00  0.00    -0.215 N 
ATOM      2  H   UNL     1      34.195 -11.989 -21.663  0.00  0.00    +0.174 HD
ENDROOT
BRANCH   1   3
ATOM      3  C   UNL     1      33.274 -13.046 -23.253  0.00  0.00    +0.069 C 
ATOM      4  C   UNL     1      33.642 -14.391 -23.225  0.00  0.00    +0.068 C 
ATOM      5  C   UNL     1      32.844 -12.465 -24.446  0.00  0.00    +0.016 C 
ATOM      6  C   UNL     1      33.578 -15.156 -24.389  0.00  0.00    +0.006 C 
ATOM      7  C   UNL     1      32.780 -13.231 -25.611  0.00  0.00    +0.001 C 
ATOM      8  C   UNL     1      33.148 -14.577 -25.583  0.00  0.00    +0.000 C 
BRANCH   4  11
ATOM      9  O   UNL     1      34.116 -14.388 -20.929  0.00  0.00    -0.270 OA
ATOM     10  N   UNL     1      34.470 -16.371 -22.077  0.00  0.00    -0.291 N 
ATOM     11  C   UNL     1      34.095 -15.027 -21.994  0.00  0.00    +0.247 C 
ATOM     12  H   UNL     1      34.428 -16.814 -22.956  0.00  0.00    +0.150 HD
BRANCH  10  13
ATOM     13  C   UNL     1      34.917 -17.146 -20.942  0.00  0.00    +0.201 C 
BRANCH  13  15
ATOM     14  O   UNL     1      36.468 -18.267 -22.402  0.00  0.00    -0.248 OA
ATOM     15  C   UNL     1      36.104 -18.019 -21.259  0.00  0.00    +0.334 C 
BRANCH  15  16
ATOM     16  O   UNL     1      36.729 -18.503 -20.160  0.00  0.00    -0.479 OA
ATOM     17  H   UNL     1      36.252 -18.613 -19.361  0.00  0.00    +0.295 HD
ENDBRANCH  15  16
ENDBRANCH  13  15
ENDBRANCH  10  13
ENDBRANCH   4  11
ENDBRANCH   1   3
BRANCH   1  18
ATOM     18  S   UNL     1      31.846 -11.714 -21.367  0.00  0.00    +0.074 S 
ATOM     19  O   UNL     1      30.756 -12.216 -22.195  0.00  0.00    -0.150 OA
ATOM     20  O   UNL     1      31.844 -12.019 -19.942  0.00  0.00    -0.150 OA
BRANCH  18  21
ATOM     21  C   UNL     1      31.913  -9.980 -21.568  0.00  0.00    +0.125 C 
ATOM     22  C   UNL     1      32.018  -7.212 -21.890  0.00  0.00    +0.149 C 
ATOM     23  C   UNL     1      31.466  -9.143 -20.546  0.00  0.00    +0.023 C 
ATOM     24  C   UNL     1      32.411  -9.434 -22.751  0.00  0.00    +0.023 C 
ATOM     25  C   UNL     1      31.519  -7.758 -20.707  0.00  0.00    +0.039 C 
ATOM     26  C   UNL     1      32.464  -8.050 -22.911  0.00  0.00    +0.039 C 
BRANCH  22  27
ATOM     27  O   UNL     1      32.072  -5.825 -22.050  0.00  0.00    -0.424 OA
BRANCH  27  29
ATOM     28  O   UNL     1      29.836  -5.325 -22.491  0.00  0.00    -0.250 OA
ATOM     29  C   UNL     1      31.019  -5.319 -22.812  0.00  0.00    +0.320 C 
BRANCH  29  30
ATOM     30  C   UNL     1      31.563  -4.740 -24.124  0.00  0.00    +0.090 C 
ATOM     31  C   UNL     1      33.071  -4.496 -23.989  0.00  0.00    +0.011 C 
ATOM     32  C   UNL     1      31.277  -5.717 -25.273  0.00  0.00    +0.011 C 
ATOM     33  C   UNL     1      30.864  -3.404 -24.421  0.00  0.00    +0.011 C 
ENDBRANCH  29  30
ENDBRANCH  27  29
ENDBRANCH  22  27
ENDBRANCH  18  21
ENDBRANCH   1  18
TORSDOF 10
ENDMDL
MODEL 9
REMARK VINA RESULT:      -9.1      9.583     15.466
REMARK  Name = 107706
REMARK  10 active torsions:
REMARK  status: ('A' for Active; 'I' for Inactive)
REMARK    1  A    between atoms: N_1  and  C_3
REMARK    2  A    between atoms: N_1  and  S_18
REMARK    3  A    between atoms: C_4  and  C_11
REMARK    4  A    between atoms: N_10  and  C_13
REMARK    5  A    between atoms: C_13  and  C_15
REMARK    6  A    between atoms: C_15  and  O_16
REMARK    7  A    between atoms: S_18  and  C_21
REMARK    8  A    between atoms: C_22  and  O_27
REMARK    9  A    between atoms: O_27  and  C_29
REMARK   10  A    between atoms: C_29  and  C_30
REMARK                            x       y       z     vdW  Elec       q    Type
REMARK                         _______ _______ _______ _____ _____    ______ ____
ROOT
ATOM      1  N   UNL     1      32.095  -9.285 -21.919  0.00  0.00    -0.215 N 
ATOM      2  H   UNL     1      32.716  -9.459 -22.663  0.00  0.00    +0.174 HD
ENDROOT
BRANCH   1   3
ATOM      3  C   UNL     1      31.879  -7.948 -21.434  0.00  0.00    +0.069 C 
ATOM      4  C   UNL     1      31.575  -6.906 -22.310  0.00  0.00    +0.068 C 
ATOM      5  C   UNL     1      31.979  -7.702 -20.065  0.00  0.00    +0.016 C 
ATOM      6  C   UNL     1      31.370  -5.618 -21.817  0.00  0.00    +0.006 C 
ATOM      7  C   UNL     1      31.774  -6.413 -19.571  0.00  0.00    +0.001 C 
ATOM      8  C   UNL     1      31.470  -5.370 -20.448  0.00  0.00    +0.000 C 
BRANCH   4  11
ATOM      9  O   UNL     1      30.889  -8.144 -24.179  0.00  0.00    -0.270 OA
ATOM     10  N   UNL     1      32.004  -6.152 -24.584  0.00  0.00    -0.291 N 
ATOM     11  C   UNL     1      31.463  -7.131 -23.745  0.00  0.00    +0.247 C 
ATOM     12  H   UNL     1      32.445  -5.375 -24.170  0.00  0.00    +0.150 HD
BRANCH  10  13
ATOM     13  C   UNL     1      31.950  -6.220 -26.027  0.00  0.00    +0.201 C 
BRANCH  13  15
ATOM     14  O   UNL     1      33.176  -5.074 -27.753  0.00  0.00    -0.248 OA
ATOM     15  C   UNL     1      33.192  -5.676 -26.686  0.00  0.00    +0.334 C 
BRANCH  15  16
ATOM     16  O   UNL     1      34.326  -5.917 -25.987  0.00  0.00    -0.479 OA
ATOM     17  H   UNL     1      34.290  -6.013 -25.056  0.00  0.00    +0.295 HD
ENDBRANCH  15  16
ENDBRANCH  13  15
ENDBRANCH  10  13
ENDBRANCH   4  11
ENDBRANCH   1   3
BRANCH   1  18
ATOM     18  S   UNL     1      31.236 -10.572 -21.161  0.00  0.00    +0.074 S 
ATOM     19  O   UNL     1      31.295 -10.367 -19.719  0.00  0.00    -0.150 OA
ATOM     20  O   UNL     1      29.934 -10.729 -21.796  0.00  0.00    -0.150 OA
BRANCH  18  21
ATOM     21  C   UNL     1      32.215 -11.968 -21.541  0.00  0.00    +0.125 C 
ATOM     22  C   UNL     1      33.779 -14.196 -22.148  0.00  0.00    +0.149 C 
ATOM     23  C   UNL     1      32.863 -12.049 -22.774  0.00  0.00    +0.023 C 
ATOM     24  C   UNL     1      32.349 -12.999 -20.612  0.00  0.00    +0.023 C 
ATOM     25  C   UNL     1      33.645 -13.164 -23.077  0.00  0.00    +0.039 C 
ATOM     26  C   UNL     1      33.131 -14.113 -20.916  0.00  0.00    +0.039 C 
BRANCH  22  27
ATOM     27  O   UNL     1      34.562 -15.312 -22.452  0.00  0.00    -0.424 OA
BRANCH  27  29
ATOM     28  O   UNL     1      34.478 -16.016 -20.229  0.00  0.00    -0.250 OA
ATOM     29  C   UNL     1      34.596 -16.255 -21.425  0.00  0.00    +0.320 C 
BRANCH  29  30
ATOM     30  C   UNL     1      34.799 -17.655 -22.017  0.00  0.00    +0.090 C 
ATOM     31  C   UNL     1      34.202 -17.705 -23.429  0.00  0.00    +0.011 C 
ATOM     32  C   UNL     1      36.297 -17.984 -22.055  0.00  0.00    +0.011 C 
ATOM     33  C   UNL     1      34.083 -18.691 -21.135  0.00  0.00    +0.011 C 
ENDBRANCH  29  30
ENDBRANCH  27  29
ENDBRANCH  22  27
ENDBRANCH  18  21
ENDBRANCH   1  18
TORSDOF 10
ENDMDL
