MODEL 1
REMARK VINA RESULT:     -10.8      0.000      0.000
REMARK  Name = 6102824
REMARK  5 active torsions:
REMARK  status: ('A' for Active; 'I' for Inactive)
REMARK    1  A    between atoms: C_3  and  C_22
REMARK    2  A    between atoms: C_4  and  C_16
REMARK    3  A    between atoms: C_6  and  C_10
REMARK    4  A    between atoms: C_22  and  N_23
REMARK    5  A    between atoms: C_22  and  C_27
REMARK                            x       y       z     vdW  Elec       q    Type
REMARK                         _______ _______ _______ _____ _____    ______ ____
ROOT
ATOM      1  O   UNL     1      37.342 -21.753 -15.054  0.00  0.00    -0.277 OA
ATOM      2  N   UNL     1      35.128 -22.434 -15.074  0.00  0.00    -0.271 N 
ATOM      3  C   UNL     1      36.217 -21.716 -15.552  0.00  0.00    +0.206 C 
ATOM      4  C   UNL     1      35.189 -23.220 -13.839  0.00  0.00    +0.120 C 
ATOM      5  C   UNL     1      33.780 -22.411 -15.641  0.00  0.00    +0.120 C 
ATOM      6  C   UNL     1      32.964 -23.156 -14.627  0.00  0.00    -0.002 C 
ATOM      7  C   UNL     1      33.750 -23.592 -13.629  0.00  0.00    -0.005 C 
ENDROOT
BRANCH   6  10
ATOM      8  F   UNL     1      31.519 -25.128 -13.195  0.00  0.00    -0.204 F 
ATOM      9  F   UNL     1      28.700 -21.910 -16.603  0.00  0.00    -0.204 F 
ATOM     10  C   UNL     1      31.507 -23.342 -14.766  0.00  0.00    +0.027 C 
ATOM     11  C   UNL     1      30.839 -24.334 -14.034  0.00  0.00    +0.140 C 
ATOM     12  C   UNL     1      30.772 -22.526 -15.635  0.00  0.00    +0.032 C 
ATOM     13  C   UNL     1      29.394 -22.696 -15.770  0.00  0.00    +0.140 C 
ATOM     14  C   UNL     1      29.462 -24.504 -14.169  0.00  0.00    +0.032 C 
ATOM     15  C   UNL     1      28.739 -23.685 -15.037  0.00  0.00    +0.032 C 
ENDBRANCH   6  10
BRANCH   4  16
ATOM     16  C   UNL     1      36.097 -24.429 -13.930  0.00  0.00    -0.000 C 
ATOM     17  C   UNL     1      35.805 -25.454 -14.829  0.00  0.00    -0.002 C 
ATOM     18  C   UNL     1      37.227 -24.516 -13.116  0.00  0.00    -0.002 C 
ATOM     19  C   UNL     1      36.642 -26.567 -14.914  0.00  0.00    -0.000 C 
ATOM     20  C   UNL     1      38.062 -25.629 -13.200  0.00  0.00    -0.000 C 
ATOM     21  C   UNL     1      37.770 -26.654 -14.099  0.00  0.00    -0.000 C 
ENDBRANCH   4  16
BRANCH   3  22
ATOM     22  C   UNL     1      35.947 -20.854 -16.760  0.00  0.00    +0.013 C 
BRANCH  22  23
ATOM     23  N   UNL     1      37.029 -19.885 -16.832  0.00  0.00    +0.387 N 
ATOM     24  H   UNL     1      37.819 -20.215 -16.278  0.00  0.00    -0.089 HD
ATOM     25  H   UNL     1      36.708 -18.989 -16.466  0.00  0.00    -0.089 HD
ATOM     26  H   UNL     1      37.320 -19.771 -17.803  0.00  0.00    -0.089 HD
ENDBRANCH  22  23
BRANCH  22  27
ATOM     27  C   UNL     1      35.873 -21.664 -18.010  0.00  0.00    -0.011 C 
ATOM     28  C   UNL     1      34.628 -21.608 -18.838  0.00  0.00    -0.002 C 
ATOM     29  C   UNL     1      35.890 -20.960 -19.331  0.00  0.00    -0.002 C 
ENDBRANCH  22  27
ENDBRANCH   3  22
TORSDOF 5
ENDMDL
MODEL 2
REMARK VINA RESULT:     -10.7      1.666      2.269
REMARK  Name = 6102824
REMARK  5 active torsions:
REMARK  status: ('A' for Active; 'I' for Inactive)
REMARK    1  A    between atoms: C_3  and  C_22
REMARK    2  A    between atoms: C_4  and  C_16
REMARK    3  A    between atoms: C_6  and  C_10
REMARK    4  A    between atoms: C_22  and  N_23
REMARK    5  A    between atoms: C_22  and  C_27
REMARK                            x       y       z     vdW  Elec       q    Type
REMARK                         _______ _______ _______ _____ _____    ______ ____
ROOT
ATOM      1  O   UNL     1      36.144 -21.575 -17.512  0.00  0.00    -0.277 OA
ATOM      2  N   UNL     1      34.093 -22.372 -16.789  0.00  0.00    -0.271 N 
ATOM      3  C   UNL     1      34.976 -21.886 -17.745  0.00  0.00    +0.206 C 
ATOM      4  C   UNL     1      34.440 -22.448 -15.367  0.00  0.00    +0.120 C 
ATOM      5  C   UNL     1      32.701 -22.750 -17.032  0.00  0.00    +0.120 C 
ATOM      6  C   UNL     1      32.156 -22.974 -15.653  0.00  0.00    -0.002 C 
ATOM      7  C   UNL     1      33.123 -22.796 -14.738  0.00  0.00    -0.005 C 
ENDROOT
BRANCH   6  10
ATOM      8  F   UNL     1      31.380 -25.071 -13.913  0.00  0.00    -0.204 F 
ATOM      9  F   UNL     1      27.408 -22.279 -16.433  0.00  0.00    -0.204 F 
ATOM     10  C   UNL     1      30.747 -23.333 -15.407  0.00  0.00    +0.027 C 
ATOM     11  C   UNL     1      30.415 -24.380 -14.536  0.00  0.00    +0.140 C 
ATOM     12  C   UNL     1      29.718 -22.627 -16.046  0.00  0.00    +0.032 C 
ATOM     13  C   UNL     1      28.384 -22.961 -15.817  0.00  0.00    +0.140 C 
ATOM     14  C   UNL     1      29.081 -24.714 -14.308  0.00  0.00    +0.032 C 
ATOM     15  C   UNL     1      28.065 -24.004 -14.949  0.00  0.00    +0.032 C 
ENDBRANCH   6  10
BRANCH   4  16
ATOM     16  C   UNL     1      35.522 -23.461 -15.057  0.00  0.00    -0.000 C 
ATOM     17  C   UNL     1      36.820 -23.032 -14.777  0.00  0.00    -0.002 C 
ATOM     18  C   UNL     1      35.221 -24.823 -15.049  0.00  0.00    -0.002 C 
ATOM     19  C   UNL     1      37.817 -23.966 -14.491  0.00  0.00    -0.000 C 
ATOM     20  C   UNL     1      36.218 -25.756 -14.764  0.00  0.00    -0.000 C 
ATOM     21  C   UNL     1      37.515 -25.327 -14.485  0.00  0.00    -0.000 C 
ENDBRANCH   4  16
BRANCH   3  22
ATOM     22  C   UNL     1      34.416 -21.750 -19.138  0.00  0.00    +0.013 C 
BRANCH  22  23
ATOM     23  N   UNL     1      33.545 -22.896 -19.352  0.00  0.00    +0.387 N 
ATOM     24  H   UNL     1      32.766 -22.623 -19.952  0.00  0.00    -0.089 HD
ATOM     25  H   UNL     1      33.185 -23.221 -18.455  0.00  0.00    -0.089 HD
ATOM     26  H   UNL     1      34.073 -23.645 -19.799  0.00  0.00    -0.089 HD
ENDBRANCH  22  23
BRANCH  22  27
ATOM     27  C   UNL     1      33.666 -20.472 -19.309  0.00  0.00    -0.011 C 
ATOM     28  C   UNL     1      33.616 -19.836 -20.663  0.00  0.00    -0.002 C 
ATOM     29  C   UNL     1      32.388 -20.480 -20.088  0.00  0.00    -0.002 C 
ENDBRANCH  22  27
ENDBRANCH   3  22
TORSDOF 5
ENDMDL
MODEL 3
REMARK VINA RESULT:     -10.5      0.856      1.628
REMARK  Name = 6102824
REMARK  5 active torsions:
REMARK  status: ('A' for Active; 'I' for Inactive)
REMARK    1  A    between atoms: C_3  and  C_22
REMARK    2  A    between atoms: C_4  and  C_16
REMARK    3  A    between atoms: C_6  and  C_10
REMARK    4  A    between atoms: C_22  and  N_23
REMARK    5  A    between atoms: C_22  and  C_27
REMARK                            x       y       z     vdW  Elec       q    Type
REMARK                         _______ _______ _______ _____ _____    ______ ____
ROOT
ATOM      1  O   UNL     1      37.224 -21.770 -14.995  0.00  0.00    -0.277 OA
ATOM      2  N   UNL     1      35.006 -22.415 -15.165  0.00  0.00    -0.271 N 
ATOM      3  C   UNL     1      36.135 -21.710 -15.564  0.00  0.00    +0.206 C 
ATOM      4  C   UNL     1      34.974 -23.213 -13.936  0.00  0.00    +0.120 C 
ATOM      5  C   UNL     1      33.698 -22.365 -15.818  0.00  0.00    +0.120 C 
ATOM      6  C   UNL     1      32.806 -23.106 -14.866  0.00  0.00    -0.002 C 
ATOM      7  C   UNL     1      33.519 -23.564 -13.824  0.00  0.00    -0.005 C 
ENDROOT
BRANCH   6  10
ATOM      8  F   UNL     1      31.427 -21.785 -16.959  0.00  0.00    -0.204 F 
ATOM      9  F   UNL     1      28.514 -25.063 -13.689  0.00  0.00    -0.204 F 
ATOM     10  C   UNL     1      31.359 -23.267 -15.101  0.00  0.00    +0.027 C 
ATOM     11  C   UNL     1      30.724 -22.590 -16.151  0.00  0.00    +0.140 C 
ATOM     12  C   UNL     1      30.600 -24.103 -14.271  0.00  0.00    +0.032 C 
ATOM     13  C   UNL     1      29.231 -24.261 -14.488  0.00  0.00    +0.140 C 
ATOM     14  C   UNL     1      29.355 -22.748 -16.368  0.00  0.00    +0.032 C 
ATOM     15  C   UNL     1      28.609 -23.583 -15.536  0.00  0.00    +0.032 C 
ENDBRANCH   6  10
BRANCH   4  16
ATOM     16  C   UNL     1      35.868 -24.435 -13.981  0.00  0.00    -0.000 C 
ATOM     17  C   UNL     1      35.639 -25.432 -14.929  0.00  0.00    -0.002 C 
ATOM     18  C   UNL     1      36.920 -24.563 -13.073  0.00  0.00    -0.002 C 
ATOM     19  C   UNL     1      36.462 -26.558 -14.970  0.00  0.00    -0.000 C 
ATOM     20  C   UNL     1      37.742 -25.689 -13.115  0.00  0.00    -0.000 C 
ATOM     21  C   UNL     1      37.513 -26.686 -14.063  0.00  0.00    -0.000 C 
ENDBRANCH   4  16
BRANCH   3  22
ATOM     22  C   UNL     1      35.957 -20.833 -16.778  0.00  0.00    +0.013 C 
BRANCH  22  23
ATOM     23  N   UNL     1      37.066 -19.892 -16.780  0.00  0.00    +0.387 N 
ATOM     24  H   UNL     1      37.918 -20.369 -16.487  0.00  0.00    -0.089 HD
ATOM     25  H   UNL     1      36.865 -19.130 -16.133  0.00  0.00    -0.089 HD
ATOM     26  H   UNL     1      37.192 -19.517 -17.720  0.00  0.00    -0.089 HD
ENDBRANCH  22  23
BRANCH  22  27
ATOM     27  C   UNL     1      35.936 -21.633 -18.038  0.00  0.00    -0.011 C 
ATOM     28  C   UNL     1      34.703 -21.618 -18.885  0.00  0.00    -0.002 C 
ATOM     29  C   UNL     1      35.945 -20.915 -19.351  0.00  0.00    -0.002 C 
ENDBRANCH  22  27
ENDBRANCH   3  22
TORSDOF 5
ENDMDL
MODEL 4
REMARK VINA RESULT:     -10.1      2.791      5.338
REMARK  Name = 6102824
REMARK  5 active torsions:
REMARK  status: ('A' for Active; 'I' for Inactive)
REMARK    1  A    between atoms: C_3  and  C_22
REMARK    2  A    between atoms: C_4  and  C_16
REMARK    3  A    between atoms: C_6  and  C_10
REMARK    4  A    between atoms: C_22  and  N_23
REMARK    5  A    between atoms: C_22  and  C_27
REMARK                            x       y       z     vdW  Elec       q    Type
REMARK                         _______ _______ _______ _____ _____    ______ ____
ROOT
ATOM      1  O   UNL     1      32.496 -24.714 -12.652  0.00  0.00    -0.277 OA
ATOM      2  N   UNL     1      33.195 -23.514 -14.506  0.00  0.00    -0.271 N 
ATOM      3  C   UNL     1      32.285 -23.863 -13.517  0.00  0.00    +0.206 C 
ATOM      4  C   UNL     1      34.464 -24.224 -14.689  0.00  0.00    +0.120 C 
ATOM      5  C   UNL     1      32.975 -22.510 -15.547  0.00  0.00    +0.120 C 
ATOM      6  C   UNL     1      34.147 -22.698 -16.464  0.00  0.00    -0.002 C 
ATOM      7  C   UNL     1      34.961 -23.654 -15.986  0.00  0.00    -0.005 C 
ENDROOT
BRANCH   6  10
ATOM      8  F   UNL     1      36.667 -21.767 -17.363  0.00  0.00    -0.204 F 
ATOM      9  F   UNL     1      32.292 -20.558 -20.416  0.00  0.00    -0.204 F 
ATOM     10  C   UNL     1      34.318 -21.914 -17.702  0.00  0.00    +0.027 C 
ATOM     11  C   UNL     1      35.588 -21.477 -18.103  0.00  0.00    +0.140 C 
ATOM     12  C   UNL     1      33.206 -21.596 -18.494  0.00  0.00    +0.032 C 
ATOM     13  C   UNL     1      33.361 -20.856 -19.665  0.00  0.00    +0.140 C 
ATOM     14  C   UNL     1      35.742 -20.736 -19.275  0.00  0.00    +0.032 C 
ATOM     15  C   UNL     1      34.628 -20.426 -20.056  0.00  0.00    +0.032 C 
ENDBRANCH   6  10
BRANCH   4  16
ATOM     16  C   UNL     1      35.443 -24.025 -13.551  0.00  0.00    -0.000 C 
ATOM     17  C   UNL     1      36.157 -25.112 -13.047  0.00  0.00    -0.002 C 
ATOM     18  C   UNL     1      35.632 -22.753 -13.008  0.00  0.00    -0.002 C 
ATOM     19  C   UNL     1      37.059 -24.928 -11.998  0.00  0.00    -0.000 C 
ATOM     20  C   UNL     1      36.534 -22.571 -11.960  0.00  0.00    -0.000 C 
ATOM     21  C   UNL     1      37.247 -23.658 -11.455  0.00  0.00    -0.000 C 
ENDBRANCH   4  16
BRANCH   3  22
ATOM     22  C   UNL     1      30.972 -23.122 -13.551  0.00  0.00    +0.013 C 
BRANCH  22  23
ATOM     23  N   UNL     1      31.285 -21.710 -13.398  0.00  0.00    +0.387 N 
ATOM     24  H   UNL     1      31.664 -21.350 -14.274  0.00  0.00    -0.089 HD
ATOM     25  H   UNL     1      31.974 -21.593 -12.656  0.00  0.00    -0.089 HD
ATOM     26  H   UNL     1      30.436 -21.197 -13.160  0.00  0.00    -0.089 HD
ENDBRANCH  22  23
BRANCH  22  27
ATOM     27  C   UNL     1      30.231 -23.370 -14.822  0.00  0.00    -0.011 C 
ATOM     28  C   UNL     1      28.956 -24.151 -14.778  0.00  0.00    -0.002 C 
ATOM     29  C   UNL     1      28.925 -22.674 -15.046  0.00  0.00    -0.002 C 
ENDBRANCH  22  27
ENDBRANCH   3  22
TORSDOF 5
ENDMDL
MODEL 5
REMARK VINA RESULT:      -9.4      1.640      4.814
REMARK  Name = 6102824
REMARK  5 active torsions:
REMARK  status: ('A' for Active; 'I' for Inactive)
REMARK    1  A    between atoms: C_3  and  C_22
REMARK    2  A    between atoms: C_4  and  C_16
REMARK    3  A    between atoms: C_6  and  C_10
REMARK    4  A    between atoms: C_22  and  N_23
REMARK    5  A    between atoms: C_22  and  C_27
REMARK                            x       y       z     vdW  Elec       q    Type
REMARK                         _______ _______ _______ _____ _____    ______ ____
ROOT
ATOM      1  O   UNL     1      36.479 -22.327 -16.648  0.00  0.00    -0.277 OA
ATOM      2  N   UNL     1      34.192 -22.470 -16.311  0.00  0.00    -0.271 N 
ATOM      3  C   UNL     1      35.507 -22.313 -15.893  0.00  0.00    +0.206 C 
ATOM      4  C   UNL     1      33.843 -22.794 -17.697  0.00  0.00    +0.120 C 
ATOM      5  C   UNL     1      33.017 -22.460 -15.440  0.00  0.00    +0.120 C 
ATOM      6  C   UNL     1      31.907 -22.898 -16.349  0.00  0.00    -0.002 C 
ATOM      7  C   UNL     1      32.375 -23.089 -17.593  0.00  0.00    -0.005 C 
ENDROOT
BRANCH   6  10
ATOM      8  F   UNL     1      31.178 -24.834 -14.413  0.00  0.00    -0.204 F 
ATOM      9  F   UNL     1      27.205 -21.665 -16.435  0.00  0.00    -0.204 F 
ATOM     10  C   UNL     1      30.521 -23.078 -15.877  0.00  0.00    +0.027 C 
ATOM     11  C   UNL     1      30.213 -24.051 -14.916  0.00  0.00    +0.140 C 
ATOM     12  C   UNL     1      29.493 -22.274 -16.386  0.00  0.00    +0.032 C 
ATOM     13  C   UNL     1      28.181 -22.439 -15.943  0.00  0.00    +0.140 C 
ATOM     14  C   UNL     1      28.901 -24.216 -14.473  0.00  0.00    +0.032 C 
ATOM     15  C   UNL     1      27.885 -23.410 -14.987  0.00  0.00    +0.032 C 
ENDBRANCH   6  10
BRANCH   4  16
ATOM     16  C   UNL     1      34.147 -21.680 -18.677  0.00  0.00    -0.000 C 
ATOM     17  C   UNL     1      35.471 -21.344 -18.962  0.00  0.00    -0.002 C 
ATOM     18  C   UNL     1      33.104 -20.991 -19.296  0.00  0.00    -0.002 C 
ATOM     19  C   UNL     1      35.751 -20.318 -19.866  0.00  0.00    -0.000 C 
ATOM     20  C   UNL     1      33.385 -19.966 -20.199  0.00  0.00    -0.000 C 
ATOM     21  C   UNL     1      34.707 -19.630 -20.483  0.00  0.00    -0.000 C 
ENDBRANCH   4  16
BRANCH   3  22
ATOM     22  C   UNL     1      35.699 -22.116 -14.410  0.00  0.00    +0.013 C 
BRANCH  22  23
ATOM     23  N   UNL     1      34.610 -22.819 -13.750  0.00  0.00    +0.387 N 
ATOM     24  H   UNL     1      33.894 -22.149 -13.469  0.00  0.00    -0.089 HD
ATOM     25  H   UNL     1      34.967 -23.301 -12.926  0.00  0.00    -0.089 HD
ATOM     26  H   UNL     1      34.205 -23.499 -14.394  0.00  0.00    -0.089 HD
ENDBRANCH  22  23
BRANCH  22  27
ATOM     27  C   UNL     1      37.021 -22.632 -13.951  0.00  0.00    -0.011 C 
ATOM     28  C   UNL     1      37.149 -23.166 -12.559  0.00  0.00    -0.002 C 
ATOM     29  C   UNL     1      37.188 -24.103 -13.731  0.00  0.00    -0.002 C 
ENDBRANCH  22  27
ENDBRANCH   3  22
TORSDOF 5
ENDMDL
MODEL 6
REMARK VINA RESULT:      -9.3      2.595      6.001
REMARK  Name = 6102824
REMARK  5 active torsions:
REMARK  status: ('A' for Active; 'I' for Inactive)
REMARK    1  A    between atoms: C_3  and  C_22
REMARK    2  A    between atoms: C_4  and  C_16
REMARK    3  A    between atoms: C_6  and  C_10
REMARK    4  A    between atoms: C_22  and  N_23
REMARK    5  A    between atoms: C_22  and  C_27
REMARK                            x       y       z     vdW  Elec       q    Type
REMARK                         _______ _______ _______ _____ _____    ______ ____
ROOT
ATOM      1  O   UNL     1      32.599 -22.228 -18.488  0.00  0.00    -0.277 OA
ATOM      2  N   UNL     1      33.980 -22.612 -16.669  0.00  0.00    -0.271 N 
ATOM      3  C   UNL     1      33.653 -22.026 -17.885  0.00  0.00    +0.206 C 
ATOM      4  C   UNL     1      33.139 -23.636 -16.041  0.00  0.00    +0.120 C 
ATOM      5  C   UNL     1      35.221 -22.395 -15.927  0.00  0.00    +0.120 C 
ATOM      6  C   UNL     1      35.159 -23.423 -14.837  0.00  0.00    -0.002 C 
ATOM      7  C   UNL     1      34.008 -24.111 -14.913  0.00  0.00    -0.005 C 
ENDROOT
BRANCH   6  10
ATOM      8  F   UNL     1      34.879 -22.785 -12.091  0.00  0.00    -0.204 F 
ATOM      9  F   UNL     1      39.701 -24.771 -13.742  0.00  0.00    -0.204 F 
ATOM     10  C   UNL     1      36.246 -23.604 -13.856  0.00  0.00    +0.027 C 
ATOM     11  C   UNL     1      36.056 -23.273 -12.507  0.00  0.00    +0.140 C 
ATOM     12  C   UNL     1      37.487 -24.111 -14.264  0.00  0.00    +0.032 C 
ATOM     13  C   UNL     1      38.518 -24.285 -13.342  0.00  0.00    +0.140 C 
ATOM     14  C   UNL     1      37.088 -23.446 -11.585  0.00  0.00    +0.032 C 
ATOM     15  C   UNL     1      38.319 -23.952 -12.002  0.00  0.00    +0.032 C 
ENDBRANCH   6  10
BRANCH   4  16
ATOM     16  C   UNL     1      31.798 -23.117 -15.566  0.00  0.00    -0.000 C 
ATOM     17  C   UNL     1      30.674 -23.241 -16.382  0.00  0.00    -0.002 C 
ATOM     18  C   UNL     1      31.688 -22.515 -14.313  0.00  0.00    -0.002 C 
ATOM     19  C   UNL     1      29.438 -22.762 -15.945  0.00  0.00    -0.000 C 
ATOM     20  C   UNL     1      30.453 -22.036 -13.876  0.00  0.00    -0.000 C 
ATOM     21  C   UNL     1      29.329 -22.160 -14.691  0.00  0.00    -0.000 C 
ENDBRANCH   4  16
BRANCH   3  22
ATOM     22  C   UNL     1      34.690 -21.091 -18.455  0.00  0.00    +0.013 C 
BRANCH  22  23
ATOM     23  N   UNL     1      35.989 -21.661 -18.132  0.00  0.00    +0.387 N 
ATOM     24  H   UNL     1      35.871 -22.418 -17.459  0.00  0.00    -0.089 HD
ATOM     25  H   UNL     1      36.586 -20.939 -17.729  0.00  0.00    -0.089 HD
ATOM     26  H   UNL     1      36.421 -22.025 -18.981  0.00  0.00    -0.089 HD
ENDBRANCH  22  23
BRANCH  22  27
ATOM     27  C   UNL     1      34.533 -20.926 -19.929  0.00  0.00    -0.011 C 
ATOM     28  C   UNL     1      33.715 -19.786 -20.448  0.00  0.00    -0.002 C 
ATOM     29  C   UNL     1      35.208 -19.774 -20.605  0.00  0.00    -0.002 C 
ENDBRANCH  22  27
ENDBRANCH   3  22
TORSDOF 5
ENDMDL
MODEL 7
REMARK VINA RESULT:      -9.2      2.927      5.946
REMARK  Name = 6102824
REMARK  5 active torsions:
REMARK  status: ('A' for Active; 'I' for Inactive)
REMARK    1  A    between atoms: C_3  and  C_22
REMARK    2  A    between atoms: C_4  and  C_16
REMARK    3  A    between atoms: C_6  and  C_10
REMARK    4  A    between atoms: C_22  and  N_23
REMARK    5  A    between atoms: C_22  and  C_27
REMARK                            x       y       z     vdW  Elec       q    Type
REMARK                         _______ _______ _______ _____ _____    ______ ____
ROOT
ATOM      1  O   UNL     1      32.568 -22.289 -18.503  0.00  0.00    -0.277 OA
ATOM      2  N   UNL     1      33.815 -22.599 -16.576  0.00  0.00    -0.271 N 
ATOM      3  C   UNL     1      33.573 -22.056 -17.831  0.00  0.00    +0.206 C 
ATOM      4  C   UNL     1      32.939 -23.610 -15.976  0.00  0.00    +0.120 C 
ATOM      5  C   UNL     1      34.997 -22.343 -15.753  0.00  0.00    +0.120 C 
ATOM      6  C   UNL     1      34.864 -23.336 -14.636  0.00  0.00    -0.002 C 
ATOM      7  C   UNL     1      33.727 -24.038 -14.773  0.00  0.00    -0.005 C 
ENDROOT
BRANCH   6  10
ATOM      8  F   UNL     1      37.450 -24.394 -15.100  0.00  0.00    -0.204 F 
ATOM      9  F   UNL     1      36.247 -22.809 -10.005  0.00  0.00    -0.204 F 
ATOM     10  C   UNL     1      35.877 -23.472 -13.573  0.00  0.00    +0.027 C 
ATOM     11  C   UNL     1      37.144 -24.003 -13.855  0.00  0.00    +0.140 C 
ATOM     12  C   UNL     1      35.583 -23.071 -12.263  0.00  0.00    +0.032 C 
ATOM     13  C   UNL     1      36.538 -23.196 -11.254  0.00  0.00    +0.140 C 
ATOM     14  C   UNL     1      38.098 -24.128 -12.846  0.00  0.00    +0.032 C 
ATOM     15  C   UNL     1      37.794 -23.725 -11.545  0.00  0.00    +0.032 C 
ENDBRANCH   6  10
BRANCH   4  16
ATOM     16  C   UNL     1      31.563 -23.088 -15.619  0.00  0.00    -0.000 C 
ATOM     17  C   UNL     1      30.510 -23.219 -16.524  0.00  0.00    -0.002 C 
ATOM     18  C   UNL     1      31.348 -22.479 -14.382  0.00  0.00    -0.002 C 
ATOM     19  C   UNL     1      29.242 -22.739 -16.195  0.00  0.00    -0.000 C 
ATOM     20  C   UNL     1      30.080 -21.999 -14.053  0.00  0.00    -0.000 C 
ATOM     21  C   UNL     1      29.028 -22.129 -14.959  0.00  0.00    -0.000 C 
ENDBRANCH   4  16
BRANCH   3  22
ATOM     22  C   UNL     1      34.642 -21.131 -18.356  0.00  0.00    +0.013 C 
BRANCH  22  23
ATOM     23  N   UNL     1      35.921 -21.726 -18.004  0.00  0.00    +0.387 N 
ATOM     24  H   UNL     1      36.671 -21.233 -18.487  0.00  0.00    -0.089 HD
ATOM     25  H   UNL     1      35.927 -22.708 -18.281  0.00  0.00    -0.089 HD
ATOM     26  H   UNL     1      36.063 -21.656 -16.996  0.00  0.00    -0.089 HD
ENDBRANCH  22  23
BRANCH  22  27
ATOM     27  C   UNL     1      34.531 -20.940 -19.832  0.00  0.00    -0.011 C 
ATOM     28  C   UNL     1      33.748 -19.779 -20.356  0.00  0.00    -0.002 C 
ATOM     29  C   UNL     1      35.245 -19.789 -20.469  0.00  0.00    -0.002 C 
ENDBRANCH  22  27
ENDBRANCH   3  22
TORSDOF 5
ENDMDL
MODEL 8
REMARK VINA RESULT:      -8.9      2.847      5.565
REMARK  Name = 6102824
REMARK  5 active torsions:
REMARK  status: ('A' for Active; 'I' for Inactive)
REMARK    1  A    between atoms: C_3  and  C_22
REMARK    2  A    between atoms: C_4  and  C_16
REMARK    3  A    between atoms: C_6  and  C_10
REMARK    4  A    between atoms: C_22  and  N_23
REMARK    5  A    between atoms: C_22  and  C_27
REMARK                            x       y       z     vdW  Elec       q    Type
REMARK                         _______ _______ _______ _____ _____    ______ ____
ROOT
ATOM      1  O   UNL     1      32.041 -24.763 -12.494  0.00  0.00    -0.277 OA
ATOM      2  N   UNL     1      32.670 -23.570 -14.377  0.00  0.00    -0.271 N 
ATOM      3  C   UNL     1      31.763 -23.995 -13.415  0.00  0.00    +0.206 C 
ATOM      4  C   UNL     1      34.034 -24.101 -14.456  0.00  0.00    +0.120 C 
ATOM      5  C   UNL     1      32.373 -22.660 -15.483  0.00  0.00    +0.120 C 
ATOM      6  C   UNL     1      33.610 -22.726 -16.329  0.00  0.00    -0.002 C 
ATOM      7  C   UNL     1      34.520 -23.532 -15.758  0.00  0.00    -0.005 C 
ENDROOT
BRANCH   6  10
ATOM      8  F   UNL     1      31.378 -21.827 -17.825  0.00  0.00    -0.204 F 
ATOM      9  F   UNL     1      36.356 -20.731 -19.810  0.00  0.00    -0.204 F 
ATOM     10  C   UNL     1      33.740 -21.988 -17.599  0.00  0.00    +0.027 C 
ATOM     11  C   UNL     1      32.603 -21.565 -18.302  0.00  0.00    +0.140 C 
ATOM     12  C   UNL     1      35.008 -21.700 -18.121  0.00  0.00    +0.032 C 
ATOM     13  C   UNL     1      35.138 -21.002 -19.321  0.00  0.00    +0.140 C 
ATOM     14  C   UNL     1      32.733 -20.867 -19.502  0.00  0.00    +0.032 C 
ATOM     15  C   UNL     1      34.001 -20.585 -20.012  0.00  0.00    +0.032 C 
ENDBRANCH   6  10
BRANCH   4  16
ATOM     16  C   UNL     1      34.910 -23.708 -13.285  0.00  0.00    -0.000 C 
ATOM     17  C   UNL     1      35.925 -22.767 -13.457  0.00  0.00    -0.002 C 
ATOM     18  C   UNL     1      34.701 -24.288 -12.033  0.00  0.00    -0.002 C 
ATOM     19  C   UNL     1      36.731 -22.405 -12.377  0.00  0.00    -0.000 C 
ATOM     20  C   UNL     1      35.508 -23.926 -10.954  0.00  0.00    -0.000 C 
ATOM     21  C   UNL     1      36.522 -22.985 -11.126  0.00  0.00    -0.000 C 
ENDBRANCH   4  16
BRANCH   3  22
ATOM     22  C   UNL     1      30.364 -23.450 -13.556  0.00  0.00    +0.013 C 
BRANCH  22  23
ATOM     23  N   UNL     1      30.461 -22.257 -14.382  0.00  0.00    +0.387 N 
ATOM     24  H   UNL     1      30.856 -21.494 -13.832  0.00  0.00    -0.089 HD
ATOM     25  H   UNL     1      29.532 -21.994 -14.710  0.00  0.00    -0.089 HD
ATOM     26  H   UNL     1      31.064 -22.446 -15.183  0.00  0.00    -0.089 HD
ENDBRANCH  22  23
BRANCH  22  27
ATOM     27  C   UNL     1      29.442 -24.449 -14.170  0.00  0.00    -0.011 C 
ATOM     28  C   UNL     1      28.301 -23.965 -15.008  0.00  0.00    -0.002 C 
ATOM     29  C   UNL     1      29.472 -24.648 -15.653  0.00  0.00    -0.002 C 
ENDBRANCH  22  27
ENDBRANCH   3  22
TORSDOF 5
ENDMDL
MODEL 9
REMARK VINA RESULT:      -8.8      1.563      5.092
REMARK  Name = 6102824
REMARK  5 active torsions:
REMARK  status: ('A' for Active; 'I' for Inactive)
REMARK    1  A    between atoms: C_3  and  C_22
REMARK    2  A    between atoms: C_4  and  C_16
REMARK    3  A    between atoms: C_6  and  C_10
REMARK    4  A    between atoms: C_22  and  N_23
REMARK    5  A    between atoms: C_22  and  C_27
REMARK                            x       y       z     vdW  Elec       q    Type
REMARK                         _______ _______ _______ _____ _____    ______ ____
ROOT
ATOM      1  O   UNL     1      36.694 -21.961 -17.518  0.00  0.00    -0.277 OA
ATOM      2  N   UNL     1      34.573 -22.325 -16.661  0.00  0.00    -0.271 N 
ATOM      3  C   UNL     1      35.930 -22.047 -16.556  0.00  0.00    +0.206 C 
ATOM      4  C   UNL     1      33.938 -22.666 -17.937  0.00  0.00    +0.120 C 
ATOM      5  C   UNL     1      33.640 -22.435 -15.540  0.00  0.00    +0.120 C 
ATOM      6  C   UNL     1      32.391 -22.968 -16.179  0.00  0.00    -0.002 C 
ATOM      7  C   UNL     1      32.569 -23.101 -17.504  0.00  0.00    -0.005 C 
ENDROOT
BRANCH   6  10
ATOM      8  F   UNL     1      29.801 -22.124 -16.956  0.00  0.00    -0.204 F 
ATOM      9  F   UNL     1      30.229 -25.055 -12.357  0.00  0.00    -0.204 F 
ATOM     10  C   UNL     1      31.178 -23.284 -15.402  0.00  0.00    +0.027 C 
ATOM     11  C   UNL     1      29.918 -22.843 -15.830  0.00  0.00    +0.140 C 
ATOM     12  C   UNL     1      31.272 -24.034 -14.222  0.00  0.00    +0.032 C 
ATOM     13  C   UNL     1      30.128 -24.337 -13.484  0.00  0.00    +0.140 C 
ATOM     14  C   UNL     1      28.775 -23.146 -15.092  0.00  0.00    +0.032 C 
ATOM     15  C   UNL     1      28.880 -23.893 -13.918  0.00  0.00    +0.032 C 
ENDBRANCH   6  10
BRANCH   4  16
ATOM     16  C   UNL     1      33.902 -21.519 -18.925  0.00  0.00    -0.000 C 
ATOM     17  C   UNL     1      32.684 -20.927 -19.262  0.00  0.00    -0.002 C 
ATOM     18  C   UNL     1      35.086 -21.052 -19.497  0.00  0.00    -0.002 C 
ATOM     19  C   UNL     1      32.650 -19.870 -20.172  0.00  0.00    -0.000 C 
ATOM     20  C   UNL     1      35.051 -19.996 -20.406  0.00  0.00    -0.000 C 
ATOM     21  C   UNL     1      33.834 -19.405 -20.744  0.00  0.00    -0.000 C 
ENDBRANCH   4  16
BRANCH   3  22
ATOM     22  C   UNL     1      36.447 -21.848 -15.154  0.00  0.00    +0.013 C 
BRANCH  22  23
ATOM     23  N   UNL     1      35.282 -21.765 -14.287  0.00  0.00    +0.387 N 
ATOM     24  H   UNL     1      35.409 -22.384 -13.486  0.00  0.00    -0.089 HD
ATOM     25  H   UNL     1      34.451 -22.047 -14.806  0.00  0.00    -0.089 HD
ATOM     26  H   UNL     1      35.169 -20.805 -13.960  0.00  0.00    -0.089 HD
ENDBRANCH  22  23
BRANCH  22  27
ATOM     27  C   UNL     1      37.345 -22.963 -14.733  0.00  0.00    -0.011 C 
ATOM     28  C   UNL     1      37.161 -23.572 -13.379  0.00  0.00    -0.002 C 
ATOM     29  C   UNL     1      36.778 -24.342 -14.609  0.00  0.00    -0.002 C 
ENDBRANCH  22  27
ENDBRANCH   3  22
TORSDOF 5
ENDMDL
