MODEL 1
REMARK VINA RESULT:     -12.9      0.000      0.000
REMARK  Name = 24941243
REMARK  5 active torsions:
REMARK  status: ('A' for Active; 'I' for Inactive)
REMARK    1  A    between atoms: N_1  and  C_14
REMARK    2  A    between atoms: N_2  and  C_22
REMARK    3  A    between atoms: C_25  and  O_28
REMARK    4  A    between atoms: C_26  and  O_30
REMARK    5  A    between atoms: C_27  and  O_32
REMARK                            x       y       z     vdW  Elec       q    Type
REMARK                         _______ _______ _______ _____ _____    ______ ____
ROOT
ATOM      1  N   UNL     1      35.688 -18.311 -21.588  0.00  0.00    -0.260 N 
ATOM      2  N   UNL     1      36.274 -21.121 -17.830  0.00  0.00    -0.247 N 
ATOM      3  N   UNL     1      36.005 -19.722 -19.694  0.00  0.00    -0.322 NA
ATOM      4  N   UNL     1      34.126 -20.900 -18.750  0.00  0.00    -0.170 NA
ATOM      5  C   UNL     1      35.166 -19.198 -20.612  0.00  0.00    +0.201 C 
ATOM      6  C   UNL     1      37.139 -18.310 -21.806  0.00  0.00    +0.120 C 
ATOM      7  C   UNL     1      33.815 -19.473 -20.664  0.00  0.00    +0.070 C 
ATOM      8  C   UNL     1      35.426 -20.553 -18.807  0.00  0.00    +0.150 C 
ATOM      9  C   UNL     1      33.346 -20.340 -19.698  0.00  0.00    +0.116 C 
ATOM     10  H   UNL     1      37.214 -20.839 -17.909  0.00  0.00    +0.165 HD
ENDROOT
BRANCH   1  14
ATOM     11  N   UNL     1      32.840 -14.854 -25.235  0.00  0.00    -0.280 N 
ATOM     12  N   UNL     1      33.372 -16.090 -25.297  0.00  0.00    -0.173 NA
ATOM     13  C   UNL     1      33.667 -15.129 -23.261  0.00  0.00    +0.032 A 
ATOM     14  C   UNL     1      34.987 -17.246 -22.213  0.00  0.00    +0.055 C 
ATOM     15  C   UNL     1      33.898 -16.297 -24.077  0.00  0.00    +0.103 A 
ATOM     16  C   UNL     1      32.990 -14.228 -24.032  0.00  0.00    +0.053 A 
ATOM     17  C   UNL     1      34.582 -17.410 -23.555  0.00  0.00    +0.036 C 
ATOM     18  C   UNL     1      34.052 -14.937 -21.939  0.00  0.00    +0.004 C 
ATOM     19  C   UNL     1      34.733 -16.066 -21.444  0.00  0.00    +0.015 C 
ATOM     20  C   UNL     1      32.471 -12.872 -23.789  0.00  0.00    +0.051 C 
ATOM     21  H   UNL     1      32.380 -14.435 -25.998  0.00  0.00    +0.189 HD
ENDBRANCH   1  14
BRANCH   2  22
ATOM     22  C   UNL     1      36.038 -22.011 -16.766  0.00  0.00    +0.064 C 
ATOM     23  C   UNL     1      37.092 -22.412 -15.946  0.00  0.00    +0.055 C 
ATOM     24  C   UNL     1      34.749 -22.490 -16.529  0.00  0.00    +0.055 C 
ATOM     25  C   UNL     1      34.515 -23.369 -15.473  0.00  0.00    +0.177 C 
ATOM     26  C   UNL     1      36.858 -23.292 -14.889  0.00  0.00    +0.177 C 
ATOM     27  C   UNL     1      35.569 -23.771 -14.652  0.00  0.00    +0.206 C 
BRANCH  25  28
ATOM     28  O   UNL     1      33.252 -23.830 -15.252  0.00  0.00    -0.468 OA
ATOM     29  C   UNL     1      32.308 -22.903 -14.721  0.00  0.00    +0.253 C 
ENDBRANCH  25  28
BRANCH  26  30
ATOM     30  O   UNL     1      37.897 -23.676 -14.096  0.00  0.00    -0.468 OA
ATOM     31  C   UNL     1      38.787 -24.657 -14.623  0.00  0.00    +0.253 C 
ENDBRANCH  26  30
BRANCH  27  32
ATOM     32  O   UNL     1      35.341 -24.632 -13.620  0.00  0.00    -0.465 OA
ATOM     33  C   UNL     1      35.031 -24.056 -12.353  0.00  0.00    +0.253 C 
ENDBRANCH  27  32
ENDBRANCH   2  22
TORSDOF 5
ENDMDL
MODEL 2
REMARK VINA RESULT:     -12.9      0.045      2.267
REMARK  Name = 24941243
REMARK  5 active torsions:
REMARK  status: ('A' for Active; 'I' for Inactive)
REMARK    1  A    between atoms: N_1  and  C_14
REMARK    2  A    between atoms: N_2  and  C_22
REMARK    3  A    between atoms: C_25  and  O_28
REMARK    4  A    between atoms: C_26  and  O_30
REMARK    5  A    between atoms: C_27  and  O_32
REMARK                            x       y       z     vdW  Elec       q    Type
REMARK                         _______ _______ _______ _____ _____    ______ ____
ROOT
ATOM      1  N   UNL     1      35.699 -18.309 -21.587  0.00  0.00    -0.260 N 
ATOM      2  N   UNL     1      36.303 -21.107 -17.823  0.00  0.00    -0.247 N 
ATOM      3  N   UNL     1      36.025 -19.714 -19.690  0.00  0.00    -0.322 NA
ATOM      4  N   UNL     1      34.150 -20.889 -18.734  0.00  0.00    -0.170 NA
ATOM      5  C   UNL     1      35.182 -19.192 -20.606  0.00  0.00    +0.201 C 
ATOM      6  C   UNL     1      37.148 -18.308 -21.812  0.00  0.00    +0.120 C 
ATOM      7  C   UNL     1      33.830 -19.468 -20.650  0.00  0.00    +0.070 C 
ATOM      8  C   UNL     1      35.451 -20.542 -18.798  0.00  0.00    +0.150 C 
ATOM      9  C   UNL     1      33.366 -20.331 -19.679  0.00  0.00    +0.116 C 
ATOM     10  H   UNL     1      37.242 -20.825 -17.908  0.00  0.00    +0.165 HD
ENDROOT
BRANCH   1  14
ATOM     11  N   UNL     1      32.835 -14.862 -25.232  0.00  0.00    -0.280 N 
ATOM     12  N   UNL     1      33.368 -16.097 -25.293  0.00  0.00    -0.173 NA
ATOM     13  C   UNL     1      33.669 -15.132 -23.260  0.00  0.00    +0.032 A 
ATOM     14  C   UNL     1      34.995 -17.245 -22.212  0.00  0.00    +0.055 C 
ATOM     15  C   UNL     1      33.898 -16.301 -24.075  0.00  0.00    +0.103 A 
ATOM     16  C   UNL     1      32.988 -14.233 -24.030  0.00  0.00    +0.053 A 
ATOM     17  C   UNL     1      34.585 -17.413 -23.553  0.00  0.00    +0.036 C 
ATOM     18  C   UNL     1      34.058 -14.936 -21.940  0.00  0.00    +0.004 C 
ATOM     19  C   UNL     1      34.742 -16.064 -21.445  0.00  0.00    +0.015 C 
ATOM     20  C   UNL     1      32.470 -12.877 -23.788  0.00  0.00    +0.051 C 
ATOM     21  H   UNL     1      32.372 -14.444 -25.994  0.00  0.00    +0.189 HD
ENDBRANCH   1  14
BRANCH   2  22
ATOM     22  C   UNL     1      36.072 -21.994 -16.755  0.00  0.00    +0.064 C 
ATOM     23  C   UNL     1      34.782 -22.453 -16.497  0.00  0.00    +0.055 C 
ATOM     24  C   UNL     1      37.136 -22.415 -15.956  0.00  0.00    +0.055 C 
ATOM     25  C   UNL     1      36.907 -23.296 -14.900  0.00  0.00    +0.177 C 
ATOM     26  C   UNL     1      34.553 -23.334 -15.440  0.00  0.00    +0.177 C 
ATOM     27  C   UNL     1      35.616 -23.756 -14.641  0.00  0.00    +0.206 C 
BRANCH  25  28
ATOM     28  O   UNL     1      37.954 -23.701 -14.127  0.00  0.00    -0.468 OA
ATOM     29  C   UNL     1      38.816 -24.697 -14.674  0.00  0.00    +0.253 C 
ENDBRANCH  25  28
BRANCH  26  30
ATOM     30  O   UNL     1      33.286 -23.775 -15.198  0.00  0.00    -0.468 OA
ATOM     31  C   UNL     1      32.365 -22.833 -14.653  0.00  0.00    +0.253 C 
ENDBRANCH  26  30
BRANCH  27  32
ATOM     32  O   UNL     1      35.393 -24.616 -13.607  0.00  0.00    -0.465 OA
ATOM     33  C   UNL     1      35.115 -24.039 -12.334  0.00  0.00    +0.253 C 
ENDBRANCH  27  32
ENDBRANCH   2  22
TORSDOF 5
ENDMDL
MODEL 3
REMARK VINA RESULT:     -12.3      0.923      2.641
REMARK  Name = 24941243
REMARK  5 active torsions:
REMARK  status: ('A' for Active; 'I' for Inactive)
REMARK    1  A    between atoms: N_1  and  C_14
REMARK    2  A    between atoms: N_2  and  C_22
REMARK    3  A    between atoms: C_25  and  O_28
REMARK    4  A    between atoms: C_26  and  O_30
REMARK    5  A    between atoms: C_27  and  O_32
REMARK                            x       y       z     vdW  Elec       q    Type
REMARK                         _______ _______ _______ _____ _____    ______ ____
ROOT
ATOM      1  N   UNL     1      35.639 -18.249 -21.792  0.00  0.00    -0.260 N 
ATOM      2  N   UNL     1      36.114 -21.022 -17.991  0.00  0.00    -0.247 N 
ATOM      3  N   UNL     1      35.900 -19.642 -19.876  0.00  0.00    -0.322 NA
ATOM      4  N   UNL     1      33.979 -20.745 -18.926  0.00  0.00    -0.170 NA
ATOM      5  C   UNL     1      35.084 -19.104 -20.806  0.00  0.00    +0.201 C 
ATOM      6  C   UNL     1      37.090 -18.298 -22.002  0.00  0.00    +0.120 C 
ATOM      7  C   UNL     1      33.724 -19.337 -20.861  0.00  0.00    +0.070 C 
ATOM      8  C   UNL     1      35.291 -20.441 -18.980  0.00  0.00    +0.150 C 
ATOM      9  C   UNL     1      33.222 -20.174 -19.885  0.00  0.00    +0.116 C 
ATOM     10  H   UNL     1      37.064 -20.772 -18.069  0.00  0.00    +0.165 HD
ENDROOT
BRANCH   1  14
ATOM     11  N   UNL     1      33.142 -13.225 -23.164  0.00  0.00    -0.280 N 
ATOM     12  N   UNL     1      33.744 -13.734 -22.073  0.00  0.00    -0.173 NA
ATOM     13  C   UNL     1      33.698 -15.212 -23.796  0.00  0.00    +0.032 A 
ATOM     14  C   UNL     1      34.976 -17.171 -22.435  0.00  0.00    +0.055 C 
ATOM     15  C   UNL     1      34.107 -14.978 -22.432  0.00  0.00    +0.103 A 
ATOM     16  C   UNL     1      33.085 -14.072 -24.232  0.00  0.00    +0.053 A 
ATOM     17  C   UNL     1      34.773 -15.980 -21.703  0.00  0.00    +0.036 C 
ATOM     18  C   UNL     1      33.884 -16.369 -24.544  0.00  0.00    +0.004 C 
ATOM     19  C   UNL     1      34.552 -17.353 -23.790  0.00  0.00    +0.015 C 
ATOM     20  C   UNL     1      32.460 -13.680 -25.507  0.00  0.00    +0.051 C 
ATOM     21  H   UNL     1      32.771 -12.313 -23.190  0.00  0.00    +0.189 HD
ENDBRANCH   1  14
BRANCH   2  22
ATOM     22  C   UNL     1      35.845 -21.888 -16.915  0.00  0.00    +0.064 C 
ATOM     23  C   UNL     1      34.558 -22.394 -16.734  0.00  0.00    +0.055 C 
ATOM     24  C   UNL     1      36.865 -22.243 -16.032  0.00  0.00    +0.055 C 
ATOM     25  C   UNL     1      36.598 -23.105 -14.969  0.00  0.00    +0.177 C 
ATOM     26  C   UNL     1      34.291 -23.255 -15.669  0.00  0.00    +0.177 C 
ATOM     27  C   UNL     1      35.311 -23.611 -14.787  0.00  0.00    +0.206 C 
BRANCH  25  28
ATOM     28  O   UNL     1      37.604 -23.444 -14.114  0.00  0.00    -0.468 OA
ATOM     29  C   UNL     1      38.481 -24.489 -14.527  0.00  0.00    +0.253 C 
ENDBRANCH  25  28
BRANCH  26  30
ATOM     30  O   UNL     1      33.029 -23.742 -15.502  0.00  0.00    -0.468 OA
ATOM     31  C   UNL     1      31.954 -22.921 -15.952  0.00  0.00    +0.253 C 
ENDBRANCH  26  30
BRANCH  27  32
ATOM     32  O   UNL     1      35.050 -24.451 -13.745  0.00  0.00    -0.465 OA
ATOM     33  C   UNL     1      34.630 -23.854 -12.521  0.00  0.00    +0.253 C 
ENDBRANCH  27  32
ENDBRANCH   2  22
TORSDOF 5
ENDMDL
MODEL 4
REMARK VINA RESULT:     -11.6      1.433      2.940
REMARK  Name = 24941243
REMARK  5 active torsions:
REMARK  status: ('A' for Active; 'I' for Inactive)
REMARK    1  A    between atoms: N_1  and  C_14
REMARK    2  A    between atoms: N_2  and  C_22
REMARK    3  A    between atoms: C_25  and  O_28
REMARK    4  A    between atoms: C_26  and  O_30
REMARK    5  A    between atoms: C_27  and  O_32
REMARK                            x       y       z     vdW  Elec       q    Type
REMARK                         _______ _______ _______ _____ _____    ______ ____
ROOT
ATOM      1  N   UNL     1      34.995 -18.658 -21.369  0.00  0.00    -0.260 N 
ATOM      2  N   UNL     1      34.477 -21.630 -17.728  0.00  0.00    -0.247 N 
ATOM      3  N   UNL     1      34.756 -20.154 -19.530  0.00  0.00    -0.322 NA
ATOM      4  N   UNL     1      32.585 -21.053 -18.991  0.00  0.00    -0.170 NA
ATOM      5  C   UNL     1      34.181 -19.481 -20.549  0.00  0.00    +0.201 C 
ATOM      6  C   UNL     1      36.445 -18.876 -21.333  0.00  0.00    +0.120 C 
ATOM      7  C   UNL     1      32.836 -19.542 -20.847  0.00  0.00    +0.070 C 
ATOM      8  C   UNL     1      33.912 -20.910 -18.803  0.00  0.00    +0.150 C 
ATOM      9  C   UNL     1      32.078 -20.352 -20.026  0.00  0.00    +0.116 C 
ATOM     10  H   UNL     1      35.448 -21.495 -17.628  0.00  0.00    +0.165 HD
ENDROOT
BRANCH   1  14
ATOM     11  N   UNL     1      33.168 -14.749 -25.210  0.00  0.00    -0.280 N 
ATOM     12  N   UNL     1      33.408 -16.075 -25.225  0.00  0.00    -0.173 NA
ATOM     13  C   UNL     1      33.823 -15.150 -23.192  0.00  0.00    +0.032 A 
ATOM     14  C   UNL     1      34.582 -17.479 -22.046  0.00  0.00    +0.055 C 
ATOM     15  C   UNL     1      33.819 -16.361 -23.977  0.00  0.00    +0.103 A 
ATOM     16  C   UNL     1      33.402 -14.140 -24.011  0.00  0.00    +0.053 A 
ATOM     17  C   UNL     1      34.209 -17.585 -23.404  0.00  0.00    +0.036 C 
ATOM     18  C   UNL     1      34.182 -15.013 -21.857  0.00  0.00    +0.004 C 
ATOM     19  C   UNL     1      34.567 -16.252 -21.310  0.00  0.00    +0.015 C 
ATOM     20  C   UNL     1      33.194 -12.696 -23.816  0.00  0.00    +0.051 C 
ATOM     21  H   UNL     1      32.849 -14.258 -26.001  0.00  0.00    +0.189 HD
ENDBRANCH   1  14
BRANCH   2  22
ATOM     22  C   UNL     1      33.926 -22.503 -16.771  0.00  0.00    +0.064 C 
ATOM     23  C   UNL     1      32.551 -22.724 -16.741  0.00  0.00    +0.055 C 
ATOM     24  C   UNL     1      34.758 -23.148 -15.854  0.00  0.00    +0.055 C 
ATOM     25  C   UNL     1      34.212 -24.015 -14.909  0.00  0.00    +0.177 C 
ATOM     26  C   UNL     1      32.004 -23.592 -15.794  0.00  0.00    +0.177 C 
ATOM     27  C   UNL     1      32.835 -24.237 -14.878  0.00  0.00    +0.206 C 
BRANCH  25  28
ATOM     28  O   UNL     1      35.034 -24.639 -14.019  0.00  0.00    -0.468 OA
ATOM     29  C   UNL     1      36.059 -25.471 -14.558  0.00  0.00    +0.253 C 
ENDBRANCH  25  28
BRANCH  26  30
ATOM     30  O   UNL     1      30.657 -23.799 -15.775  0.00  0.00    -0.468 OA
ATOM     31  C   UNL     1      29.823 -22.651 -15.911  0.00  0.00    +0.253 C 
ENDBRANCH  26  30
BRANCH  27  32
ATOM     32  O   UNL     1      32.301 -25.084 -13.952  0.00  0.00    -0.465 OA
ATOM     33  C   UNL     1      31.383 -24.523 -13.016  0.00  0.00    +0.253 C 
ENDBRANCH  27  32
ENDBRANCH   2  22
TORSDOF 5
ENDMDL
MODEL 5
REMARK VINA RESULT:     -11.6      1.411      1.886
REMARK  Name = 24941243
REMARK  5 active torsions:
REMARK  status: ('A' for Active; 'I' for Inactive)
REMARK    1  A    between atoms: N_1  and  C_14
REMARK    2  A    between atoms: N_2  and  C_22
REMARK    3  A    between atoms: C_25  and  O_28
REMARK    4  A    between atoms: C_26  and  O_30
REMARK    5  A    between atoms: C_27  and  O_32
REMARK                            x       y       z     vdW  Elec       q    Type
REMARK                         _______ _______ _______ _____ _____    ______ ____
ROOT
ATOM      1  N   UNL     1      34.983 -18.710 -21.370  0.00  0.00    -0.260 N 
ATOM      2  N   UNL     1      34.472 -21.663 -17.712  0.00  0.00    -0.247 N 
ATOM      3  N   UNL     1      34.747 -20.197 -19.523  0.00  0.00    -0.322 NA
ATOM      4  N   UNL     1      32.572 -21.062 -18.951  0.00  0.00    -0.170 NA
ATOM      5  C   UNL     1      34.169 -19.518 -20.536  0.00  0.00    +0.201 C 
ATOM      6  C   UNL     1      36.430 -18.949 -21.353  0.00  0.00    +0.120 C 
ATOM      7  C   UNL     1      32.819 -19.560 -20.815  0.00  0.00    +0.070 C 
ATOM      8  C   UNL     1      33.903 -20.938 -18.782  0.00  0.00    +0.150 C 
ATOM      9  C   UNL     1      32.061 -20.357 -19.981  0.00  0.00    +0.116 C 
ATOM     10  H   UNL     1      35.446 -21.542 -17.626  0.00  0.00    +0.165 HD
ENDROOT
BRANCH   1  14
ATOM     11  N   UNL     1      33.193 -14.780 -25.206  0.00  0.00    -0.280 N 
ATOM     12  N   UNL     1      33.429 -16.107 -25.225  0.00  0.00    -0.173 NA
ATOM     13  C   UNL     1      33.834 -15.191 -23.187  0.00  0.00    +0.032 A 
ATOM     14  C   UNL     1      34.578 -17.527 -22.044  0.00  0.00    +0.055 C 
ATOM     15  C   UNL     1      33.831 -16.399 -23.976  0.00  0.00    +0.103 A 
ATOM     16  C   UNL     1      33.422 -14.177 -24.004  0.00  0.00    +0.053 A 
ATOM     17  C   UNL     1      34.214 -17.627 -23.405  0.00  0.00    +0.036 C 
ATOM     18  C   UNL     1      34.186 -15.060 -21.849  0.00  0.00    +0.004 C 
ATOM     19  C   UNL     1      34.563 -16.303 -21.304  0.00  0.00    +0.015 C 
ATOM     20  C   UNL     1      33.218 -12.733 -23.805  0.00  0.00    +0.051 C 
ATOM     21  H   UNL     1      32.881 -14.285 -25.998  0.00  0.00    +0.189 HD
ENDBRANCH   1  14
BRANCH   2  22
ATOM     22  C   UNL     1      33.922 -22.525 -16.745  0.00  0.00    +0.064 C 
ATOM     23  C   UNL     1      34.756 -23.186 -15.845  0.00  0.00    +0.055 C 
ATOM     24  C   UNL     1      32.541 -22.715 -16.685  0.00  0.00    +0.055 C 
ATOM     25  C   UNL     1      31.996 -23.566 -15.725  0.00  0.00    +0.177 C 
ATOM     26  C   UNL     1      34.210 -24.038 -14.885  0.00  0.00    +0.177 C 
ATOM     27  C   UNL     1      32.830 -24.228 -14.824  0.00  0.00    +0.206 C 
BRANCH  25  28
ATOM     28  O   UNL     1      30.645 -23.743 -15.676  0.00  0.00    -0.468 OA
ATOM     29  C   UNL     1      29.833 -22.634 -16.053  0.00  0.00    +0.253 C 
ENDBRANCH  25  28
BRANCH  26  30
ATOM     30  O   UNL     1      35.038 -24.679 -14.012  0.00  0.00    -0.468 OA
ATOM     31  C   UNL     1      36.244 -25.222 -14.542  0.00  0.00    +0.253 C 
ENDBRANCH  26  30
BRANCH  27  32
ATOM     32  O   UNL     1      32.297 -25.062 -13.887  0.00  0.00    -0.465 OA
ATOM     33  C   UNL     1      31.287 -24.520 -13.038  0.00  0.00    +0.253 C 
ENDBRANCH  27  32
ENDBRANCH   2  22
TORSDOF 5
ENDMDL
