MODEL 1
REMARK VINA RESULT:     -10.8      0.000      0.000
REMARK  Name = 57775240
REMARK  7 active torsions:
REMARK  status: ('A' for Active; 'I' for Inactive)
REMARK    1  A    between atoms: C_1  and  C_16
REMARK    2  A    between atoms: C_2  and  O_20
REMARK    3  A    between atoms: C_4  and  N_9
REMARK    4  A    between atoms: C_5  and  C_22
REMARK    5  A    between atoms: C_23  and  C_24
REMARK    6  A    between atoms: C_27  and  N_30
REMARK    7  A    between atoms: N_30  and  S_32
REMARK                            x       y       z     vdW  Elec       q    Type
REMARK                         _______ _______ _______ _____ _____    ______ ____
ROOT
ATOM      1  C   UNL     1      32.631 -23.434 -15.096  0.00  0.00    +0.012 C 
ATOM      2  C   UNL     1      32.691 -22.635 -16.237  0.00  0.00    +0.135 C 
ATOM      3  C   UNL     1      33.794 -24.015 -14.590  0.00  0.00    +0.014 C 
ATOM      4  C   UNL     1      35.017 -23.796 -15.224  0.00  0.00    +0.059 C 
ATOM      5  C   UNL     1      33.914 -22.417 -16.872  0.00  0.00    +0.035 C 
ATOM      6  C   UNL     1      35.076 -22.997 -16.366  0.00  0.00    +0.018 C 
ENDROOT
BRANCH   4   9
ATOM      7  O   UNL     1      35.779 -26.554 -15.575  0.00  0.00    -0.251 OA
ATOM      8  O   UNL     1      39.635 -26.010 -13.155  0.00  0.00    -0.270 OA
ATOM      9  N   UNL     1      36.225 -24.401 -14.698  0.00  0.00    -0.220 N 
ATOM     10  N   UNL     1      37.650 -26.267 -14.311  0.00  0.00    -0.235 N 
ATOM     11  C   UNL     1      36.471 -25.786 -14.903  0.00  0.00    +0.318 C 
ATOM     12  C   UNL     1      37.159 -23.634 -14.009  0.00  0.00    +0.078 C 
ATOM     13  C   UNL     1      38.290 -24.110 -13.487  0.00  0.00    +0.075 C 
ATOM     14  C   UNL     1      38.603 -25.540 -13.624  0.00  0.00    +0.254 C 
ATOM     15  H   UNL     1      37.815 -27.233 -14.396  0.00  0.00    +0.159 HD
ENDBRANCH   4   9
BRANCH   1  16
ATOM     16  C   UNL     1      31.293 -23.689 -14.382  0.00  0.00    +0.022 C 
ATOM     17  C   UNL     1      30.730 -22.356 -13.842  0.00  0.00    +0.004 C 
ATOM     18  C   UNL     1      30.208 -24.309 -15.290  0.00  0.00    +0.004 C 
ATOM     19  C   UNL     1      31.511 -24.662 -13.203  0.00  0.00    +0.004 C 
ENDBRANCH   1  16
BRANCH   2  20
ATOM     20  O   UNL     1      31.547 -22.073 -16.727  0.00  0.00    -0.472 OA
ATOM     21  C   UNL     1      31.572 -21.636 -18.083  0.00  0.00    +0.252 C 
ENDBRANCH   2  20
BRANCH   5  22
ATOM     22  C   UNL     1      34.004 -21.586 -18.067  0.00  0.00    +0.003 C 
ATOM     23  C   UNL     1      35.138 -21.019 -18.536  0.00  0.00    +0.000 C 
BRANCH  23  24
ATOM     24  C   UNL     1      35.232 -20.195 -19.754  0.00  0.00    +0.000 C 
ATOM     25  C   UNL     1      34.169 -20.159 -20.657  0.00  0.00    +0.001 C 
ATOM     26  C   UNL     1      36.384 -19.448 -20.003  0.00  0.00    +0.001 C 
ATOM     27  C   UNL     1      35.411 -18.630 -22.057  0.00  0.00    +0.064 C 
ATOM     28  C   UNL     1      34.259 -19.378 -21.809  0.00  0.00    +0.016 C 
ATOM     29  C   UNL     1      36.474 -18.666 -21.155  0.00  0.00    +0.016 C 
BRANCH  27  30
ATOM     30  N   UNL     1      35.502 -17.832 -23.236  0.00  0.00    -0.219 N 
ATOM     31  H   UNL     1      36.278 -17.904 -23.839  0.00  0.00    +0.173 HD
BRANCH  30  32
ATOM     32  S   UNL     1      34.216 -16.737 -23.578  0.00  0.00    +0.056 S 
ATOM     33  O   UNL     1      34.624 -15.880 -24.676  0.00  0.00    -0.154 OA
ATOM     34  O   UNL     1      32.943 -17.428 -23.616  0.00  0.00    -0.154 OA
ATOM     35  C   UNL     1      34.254 -15.739 -22.106  0.00  0.00    +0.200 C 
ENDBRANCH  30  32
ENDBRANCH  27  30
ENDBRANCH  23  24
ENDBRANCH   5  22
TORSDOF 7
ENDMDL
MODEL 2
REMARK VINA RESULT:     -10.4      1.596      1.945
REMARK  Name = 57775240
REMARK  7 active torsions:
REMARK  status: ('A' for Active; 'I' for Inactive)
REMARK    1  A    between atoms: C_1  and  C_16
REMARK    2  A    between atoms: C_2  and  O_20
REMARK    3  A    between atoms: C_4  and  N_9
REMARK    4  A    between atoms: C_5  and  C_22
REMARK    5  A    between atoms: C_23  and  C_24
REMARK    6  A    between atoms: C_27  and  N_30
REMARK    7  A    between atoms: N_30  and  S_32
REMARK                            x       y       z     vdW  Elec       q    Type
REMARK                         _______ _______ _______ _____ _____    ______ ____
ROOT
ATOM      1  C   UNL     1      31.133 -23.833 -14.228  0.00  0.00    +0.012 C 
ATOM      2  C   UNL     1      31.215 -23.047 -15.377  0.00  0.00    +0.135 C 
ATOM      3  C   UNL     1      32.296 -24.331 -13.641  0.00  0.00    +0.014 C 
ATOM      4  C   UNL     1      33.540 -24.041 -14.201  0.00  0.00    +0.059 C 
ATOM      5  C   UNL     1      32.459 -22.758 -15.938  0.00  0.00    +0.035 C 
ATOM      6  C   UNL     1      33.621 -23.255 -15.350  0.00  0.00    +0.018 C 
ENDROOT
BRANCH   4   9
ATOM      7  O   UNL     1      35.371 -25.884 -15.452  0.00  0.00    -0.251 OA
ATOM      8  O   UNL     1      38.109 -25.979 -11.775  0.00  0.00    -0.270 OA
ATOM      9  N   UNL     1      34.748 -24.560 -13.591  0.00  0.00    -0.220 N 
ATOM     10  N   UNL     1      36.671 -25.962 -13.586  0.00  0.00    -0.235 N 
ATOM     11  C   UNL     1      35.551 -25.499 -14.294  0.00  0.00    +0.318 C 
ATOM     12  C   UNL     1      35.143 -24.133 -12.327  0.00  0.00    +0.078 C 
ATOM     13  C   UNL     1      36.233 -24.564 -11.690  0.00  0.00    +0.075 C 
ATOM     14  C   UNL     1      37.099 -25.562 -12.333  0.00  0.00    +0.254 C 
ATOM     15  H   UNL     1      37.214 -26.651 -14.032  0.00  0.00    +0.159 HD
ENDBRANCH   4   9
BRANCH   1  16
ATOM     16  C   UNL     1      29.772 -24.164 -13.595  0.00  0.00    +0.022 C 
ATOM     17  C   UNL     1      28.849 -22.928 -13.670  0.00  0.00    +0.004 C 
ATOM     18  C   UNL     1      29.029 -25.331 -14.284  0.00  0.00    +0.004 C 
ATOM     19  C   UNL     1      29.970 -24.559 -12.116  0.00  0.00    +0.004 C 
ENDBRANCH   1  16
BRANCH   2  20
ATOM     20  O   UNL     1      30.071 -22.566 -15.947  0.00  0.00    -0.472 OA
ATOM     21  C   UNL     1      29.402 -23.419 -16.871  0.00  0.00    +0.252 C 
ENDBRANCH   2  20
BRANCH   5  22
ATOM     22  C   UNL     1      32.571 -21.939 -17.139  0.00  0.00    +0.003 C 
ATOM     23  C   UNL     1      33.675 -21.844 -17.915  0.00  0.00    +0.000 C 
BRANCH  23  24
ATOM     24  C   UNL     1      33.782 -21.030 -19.138  0.00  0.00    +0.000 C 
ATOM     25  C   UNL     1      32.631 -20.524 -19.743  0.00  0.00    +0.001 C 
ATOM     26  C   UNL     1      35.035 -20.765 -19.691  0.00  0.00    +0.001 C 
ATOM     27  C   UNL     1      33.988 -19.487 -21.454  0.00  0.00    +0.064 C 
ATOM     28  C   UNL     1      32.735 -19.753 -20.902  0.00  0.00    +0.016 C 
ATOM     29  C   UNL     1      35.138 -19.994 -20.849  0.00  0.00    +0.016 C 
BRANCH  27  30
ATOM     30  N   UNL     1      34.092 -18.699 -22.639  0.00  0.00    -0.219 N 
ATOM     31  H   UNL     1      33.632 -18.966 -23.468  0.00  0.00    +0.173 HD
BRANCH  30  32
ATOM     32  S   UNL     1      35.047 -17.266 -22.581  0.00  0.00    +0.056 S 
ATOM     33  O   UNL     1      36.423 -17.643 -22.317  0.00  0.00    -0.154 OA
ATOM     34  O   UNL     1      34.723 -16.382 -23.683  0.00  0.00    -0.154 OA
ATOM     35  C   UNL     1      34.419 -16.531 -21.088  0.00  0.00    +0.200 C 
ENDBRANCH  30  32
ENDBRANCH  27  30
ENDBRANCH  23  24
ENDBRANCH   5  22
TORSDOF 7
ENDMDL
MODEL 3
REMARK VINA RESULT:      -9.3      8.436     16.585
REMARK  Name = 57775240
REMARK  7 active torsions:
REMARK  status: ('A' for Active; 'I' for Inactive)
REMARK    1  A    between atoms: C_1  and  C_16
REMARK    2  A    between atoms: C_2  and  O_20
REMARK    3  A    between atoms: C_4  and  N_9
REMARK    4  A    between atoms: C_5  and  C_22
REMARK    5  A    between atoms: C_23  and  C_24
REMARK    6  A    between atoms: C_27  and  N_30
REMARK    7  A    between atoms: N_30  and  S_32
REMARK                            x       y       z     vdW  Elec       q    Type
REMARK                         _______ _______ _______ _____ _____    ______ ____
ROOT
ATOM      1  C   UNL     1      32.232  -6.608 -22.409  0.00  0.00    +0.012 C 
ATOM      2  C   UNL     1      32.522  -7.965 -22.269  0.00  0.00    +0.135 C 
ATOM      3  C   UNL     1      32.699  -5.908 -23.521  0.00  0.00    +0.014 C 
ATOM      4  C   UNL     1      33.454  -6.564 -24.493  0.00  0.00    +0.059 C 
ATOM      5  C   UNL     1      33.277  -8.622 -23.240  0.00  0.00    +0.035 C 
ATOM      6  C   UNL     1      33.743  -7.921 -24.352  0.00  0.00    +0.018 C 
ENDROOT
BRANCH   4   9
ATOM      7  O   UNL     1      32.021  -6.241 -26.974  0.00  0.00    -0.251 OA
ATOM      8  O   UNL     1      35.408  -3.785 -28.849  0.00  0.00    -0.270 OA
ATOM      9  N   UNL     1      33.939  -5.835 -25.649  0.00  0.00    -0.220 N 
ATOM     10  N   UNL     1      33.749  -5.084 -27.898  0.00  0.00    -0.235 N 
ATOM     11  C   UNL     1      33.156  -5.781 -26.834  0.00  0.00    +0.318 C 
ATOM     12  C   UNL     1      35.160  -5.170 -25.604  0.00  0.00    +0.078 C 
ATOM     13  C   UNL     1      35.684  -4.484 -26.620  0.00  0.00    +0.075 C 
ATOM     14  C   UNL     1      34.954  -4.407 -27.894  0.00  0.00    +0.254 C 
ATOM     15  H   UNL     1      33.248  -5.077 -28.746  0.00  0.00    +0.159 HD
ENDBRANCH   4   9
BRANCH   1  16
ATOM     16  C   UNL     1      31.403  -5.866 -21.349  0.00  0.00    +0.022 C 
ATOM     17  C   UNL     1      29.909  -5.899 -21.741  0.00  0.00    +0.004 C 
ATOM     18  C   UNL     1      31.517  -6.469 -19.930  0.00  0.00    +0.004 C 
ATOM     19  C   UNL     1      31.871  -4.397 -21.258  0.00  0.00    +0.004 C 
ENDBRANCH   1  16
BRANCH   2  20
ATOM     20  O   UNL     1      32.063  -8.642 -21.175  0.00  0.00    -0.472 OA
ATOM     21  C   UNL     1      30.884  -9.423 -21.347  0.00  0.00    +0.252 C 
ENDBRANCH   2  20
BRANCH   5  22
ATOM     22  C   UNL     1      33.594 -10.039 -23.117  0.00  0.00    +0.003 C 
ATOM     23  C   UNL     1      32.849 -11.049 -23.620  0.00  0.00    +0.000 C 
BRANCH  23  24
ATOM     24  C   UNL     1      33.179 -12.481 -23.511  0.00  0.00    +0.000 C 
ATOM     25  C   UNL     1      32.908 -13.343 -24.574  0.00  0.00    +0.001 C 
ATOM     26  C   UNL     1      33.765 -12.974 -22.345  0.00  0.00    +0.001 C 
ATOM     27  C   UNL     1      33.808 -15.192 -23.303  0.00  0.00    +0.064 C 
ATOM     28  C   UNL     1      33.222 -14.698 -24.470  0.00  0.00    +0.016 C 
ATOM     29  C   UNL     1      34.079 -14.329 -22.241  0.00  0.00    +0.016 C 
BRANCH  27  30
ATOM     30  N   UNL     1      34.128 -16.578 -23.197  0.00  0.00    -0.219 N 
ATOM     31  H   UNL     1      33.906 -17.206 -23.923  0.00  0.00    +0.173 HD
BRANCH  30  32
ATOM     32  S   UNL     1      34.915 -17.124 -21.765  0.00  0.00    +0.056 S 
ATOM     33  O   UNL     1      36.288 -17.457 -22.096  0.00  0.00    -0.154 OA
ATOM     34  O   UNL     1      34.617 -16.253 -20.646  0.00  0.00    -0.154 OA
ATOM     35  C   UNL     1      34.061 -18.662 -21.505  0.00  0.00    +0.200 C 
ENDBRANCH  30  32
ENDBRANCH  27  30
ENDBRANCH  23  24
ENDBRANCH   5  22
TORSDOF 7
ENDMDL
MODEL 4
REMARK VINA RESULT:      -9.0      1.381      2.109
REMARK  Name = 57775240
REMARK  7 active torsions:
REMARK  status: ('A' for Active; 'I' for Inactive)
REMARK    1  A    between atoms: C_1  and  C_16
REMARK    2  A    between atoms: C_2  and  O_20
REMARK    3  A    between atoms: C_4  and  N_9
REMARK    4  A    between atoms: C_5  and  C_22
REMARK    5  A    between atoms: C_23  and  C_24
REMARK    6  A    between atoms: C_27  and  N_30
REMARK    7  A    between atoms: N_30  and  S_32
REMARK                            x       y       z     vdW  Elec       q    Type
REMARK                         _______ _______ _______ _____ _____    ______ ____
ROOT
ATOM      1  C   UNL     1      33.003 -23.615 -14.402  0.00  0.00    +0.012 C 
ATOM      2  C   UNL     1      32.922 -22.770 -15.509  0.00  0.00    +0.135 C 
ATOM      3  C   UNL     1      34.226 -24.185 -14.049  0.00  0.00    +0.014 C 
ATOM      4  C   UNL     1      35.368 -23.909 -14.801  0.00  0.00    +0.059 C 
ATOM      5  C   UNL     1      34.064 -22.495 -16.262  0.00  0.00    +0.035 C 
ATOM      6  C   UNL     1      35.286 -23.064 -15.908  0.00  0.00    +0.018 C 
ENDROOT
BRANCH   4   9
ATOM      7  O   UNL     1      37.378 -22.646 -13.164  0.00  0.00    -0.251 OA
ATOM      8  O   UNL     1      40.194 -26.251 -13.480  0.00  0.00    -0.270 OA
ATOM      9  N   UNL     1      36.639 -24.502 -14.434  0.00  0.00    -0.220 N 
ATOM     10  N   UNL     1      38.780 -24.423 -13.398  0.00  0.00    -0.235 N 
ATOM     11  C   UNL     1      37.569 -23.762 -13.654  0.00  0.00    +0.318 C 
ATOM     12  C   UNL     1      36.952 -25.801 -14.822  0.00  0.00    +0.078 C 
ATOM     13  C   UNL     1      38.098 -26.419 -14.535  0.00  0.00    +0.075 C 
ATOM     14  C   UNL     1      39.128 -25.711 -13.761  0.00  0.00    +0.254 C 
ATOM     15  H   UNL     1      39.459 -23.911 -12.904  0.00  0.00    +0.159 HD
ENDBRANCH   4   9
BRANCH   1  16
ATOM     16  C   UNL     1      31.756 -23.933 -13.561  0.00  0.00    +0.022 C 
ATOM     17  C   UNL     1      32.177 -24.654 -12.261  0.00  0.00    +0.004 C 
ATOM     18  C   UNL     1      30.945 -22.684 -13.149  0.00  0.00    +0.004 C 
ATOM     19  C   UNL     1      30.807 -24.849 -14.363  0.00  0.00    +0.004 C 
ENDBRANCH   1  16
BRANCH   2  20
ATOM     20  O   UNL     1      31.720 -22.219 -15.849  0.00  0.00    -0.472 OA
ATOM     21  C   UNL     1      31.028 -22.806 -16.948  0.00  0.00    +0.252 C 
ENDBRANCH   2  20
BRANCH   5  22
ATOM     22  C   UNL     1      34.006 -21.616 -17.423  0.00  0.00    +0.003 C 
ATOM     23  C   UNL     1      35.046 -21.341 -18.243  0.00  0.00    +0.000 C 
BRANCH  23  24
ATOM     24  C   UNL     1      34.982 -20.467 -19.427  0.00  0.00    +0.000 C 
ATOM     25  C   UNL     1      36.148 -19.894 -19.936  0.00  0.00    +0.001 C 
ATOM     26  C   UNL     1      33.755 -20.212 -20.041  0.00  0.00    +0.001 C 
ATOM     27  C   UNL     1      34.859 -18.813 -21.672  0.00  0.00    +0.064 C 
ATOM     28  C   UNL     1      36.086 -19.067 -21.058  0.00  0.00    +0.016 C 
ATOM     29  C   UNL     1      33.693 -19.385 -21.162  0.00  0.00    +0.016 C 
BRANCH  27  30
ATOM     30  N   UNL     1      34.797 -17.967 -22.819  0.00  0.00    -0.219 N 
ATOM     31  H   UNL     1      35.366 -17.166 -22.889  0.00  0.00    +0.173 HD
BRANCH  30  32
ATOM     32  S   UNL     1      33.699 -18.384 -24.079  0.00  0.00    +0.056 S 
ATOM     33  O   UNL     1      32.449 -18.807 -23.475  0.00  0.00    -0.154 OA
ATOM     34  O   UNL     1      33.710 -17.385 -25.128  0.00  0.00    -0.154 OA
ATOM     35  C   UNL     1      34.488 -19.848 -24.710  0.00  0.00    +0.200 C 
ENDBRANCH  30  32
ENDBRANCH  27  30
ENDBRANCH  23  24
ENDBRANCH   5  22
TORSDOF 7
ENDMDL
MODEL 5
REMARK VINA RESULT:      -9.0      9.175     17.340
REMARK  Name = 57775240
REMARK  7 active torsions:
REMARK  status: ('A' for Active; 'I' for Inactive)
REMARK    1  A    between atoms: C_1  and  C_16
REMARK    2  A    between atoms: C_2  and  O_20
REMARK    3  A    between atoms: C_4  and  N_9
REMARK    4  A    between atoms: C_5  and  C_22
REMARK    5  A    between atoms: C_23  and  C_24
REMARK    6  A    between atoms: C_27  and  N_30
REMARK    7  A    between atoms: N_30  and  S_32
REMARK                            x       y       z     vdW  Elec       q    Type
REMARK                         _______ _______ _______ _____ _____    ______ ____
ROOT
ATOM      1  C   UNL     1      32.323  -5.573 -22.843  0.00  0.00    +0.012 C 
ATOM      2  C   UNL     1      32.528  -6.934 -22.618  0.00  0.00    +0.135 C 
ATOM      3  C   UNL     1      32.912  -4.952 -23.945  0.00  0.00    +0.014 C 
ATOM      4  C   UNL     1      33.704  -5.693 -24.822  0.00  0.00    +0.059 C 
ATOM      5  C   UNL     1      33.321  -7.674 -23.495  0.00  0.00    +0.035 C 
ATOM      6  C   UNL     1      33.909  -7.054 -24.597  0.00  0.00    +0.018 C 
ENDROOT
BRANCH   4   9
ATOM      7  O   UNL     1      32.764  -5.892 -27.540  0.00  0.00    -0.251 OA
ATOM      8  O   UNL     1      36.130  -3.208 -29.119  0.00  0.00    -0.270 OA
ATOM      9  N   UNL     1      34.317  -5.047 -25.966  0.00  0.00    -0.220 N 
ATOM     10  N   UNL     1      34.486  -4.613 -28.300  0.00  0.00    -0.235 N 
ATOM     11  C   UNL     1      33.784  -5.255 -27.268  0.00  0.00    +0.318 C 
ATOM     12  C   UNL     1      35.414  -4.207 -25.802  0.00  0.00    +0.078 C 
ATOM     13  C   UNL     1      36.042  -3.580 -26.798  0.00  0.00    +0.075 C 
ATOM     14  C   UNL     1      35.575  -3.770 -28.179  0.00  0.00    +0.254 C 
ATOM     15  H   UNL     1      34.167  -4.784 -29.215  0.00  0.00    +0.159 HD
ENDBRANCH   4   9
BRANCH   1  16
ATOM     16  C   UNL     1      31.454  -4.738 -21.888  0.00  0.00    +0.022 C 
ATOM     17  C   UNL     1      31.615  -3.237 -22.216  0.00  0.00    +0.004 C 
ATOM     18  C   UNL     1      29.945  -5.064 -21.970  0.00  0.00    +0.004 C 
ATOM     19  C   UNL     1      31.896  -4.989 -20.430  0.00  0.00    +0.004 C 
ENDBRANCH   1  16
BRANCH   2  20
ATOM     20  O   UNL     1      31.950  -7.532 -21.536  0.00  0.00    -0.472 OA
ATOM     21  C   UNL     1      30.798  -8.335 -21.781  0.00  0.00    +0.252 C 
ENDBRANCH   2  20
BRANCH   5  22
ATOM     22  C   UNL     1      33.551  -9.098 -23.282  0.00  0.00    +0.003 C 
ATOM     23  C   UNL     1      32.728 -10.089 -23.694  0.00  0.00    +0.000 C 
BRANCH  23  24
ATOM     24  C   UNL     1      32.970 -11.528 -23.494  0.00  0.00    +0.000 C 
ATOM     25  C   UNL     1      33.436 -11.994 -22.265  0.00  0.00    +0.001 C 
ATOM     26  C   UNL     1      32.731 -12.426 -24.535  0.00  0.00    +0.001 C 
ATOM     27  C   UNL     1      33.426 -14.255 -23.118  0.00  0.00    +0.064 C 
ATOM     28  C   UNL     1      33.665 -13.358 -22.077  0.00  0.00    +0.016 C 
ATOM     29  C   UNL     1      32.960 -13.789 -24.348  0.00  0.00    +0.016 C 
BRANCH  27  30
ATOM     30  N   UNL     1      33.660 -15.650 -22.926  0.00  0.00    -0.219 N 
ATOM     31  H   UNL     1      33.768 -16.025 -22.021  0.00  0.00    +0.173 HD
BRANCH  30  32
ATOM     32  S   UNL     1      33.748 -16.660 -24.318  0.00  0.00    +0.056 S 
ATOM     33  O   UNL     1      32.396 -16.970 -24.745  0.00  0.00    -0.154 OA
ATOM     34  O   UNL     1      34.722 -16.154 -25.265  0.00  0.00    -0.154 OA
ATOM     35  C   UNL     1      34.411 -18.141 -23.591  0.00  0.00    +0.200 C 
ENDBRANCH  30  32
ENDBRANCH  27  30
ENDBRANCH  23  24
ENDBRANCH   5  22
TORSDOF 7
ENDMDL
