MODEL 1
REMARK VINA RESULT:     -11.2      0.000      0.000
REMARK  Name = 24883486
REMARK  5 active torsions:
REMARK  status: ('A' for Active; 'I' for Inactive)
REMARK    1  A    between atoms: N_2  and  C_10
REMARK    2  A    between atoms: C_3  and  C_19
REMARK    3  A    between atoms: C_19  and  C_20
REMARK    4  A    between atoms: C_19  and  O_26
REMARK    5  A    between atoms: O_26  and  C_28
REMARK                            x       y       z     vdW  Elec       q    Type
REMARK                         _______ _______ _______ _____ _____    ______ ____
ROOT
ATOM      1  O   UNL     1      35.094 -25.353 -14.840  0.00  0.00    -0.270 OA
ATOM      2  N   UNL     1      34.643 -23.067 -14.517  0.00  0.00    -0.281 N 
ATOM      3  C   UNL     1      35.289 -24.286 -14.266  0.00  0.00    +0.271 C 
ATOM      4  H   UNL     1      34.934 -22.304 -13.966  0.00  0.00    +0.155 HD
ENDROOT
BRANCH   2  10
ATOM      5  O   UNL     1      32.614 -23.361 -12.837  0.00  0.00    -0.282 OA
ATOM      6  O   UNL     1      29.041 -22.293 -16.652  0.00  0.00    -0.270 OA
ATOM      7  O   UNL     1      30.050 -23.374 -12.275  0.00  0.00    -0.266 OA
ATOM      8  N   UNL     1      29.537 -22.830 -14.472  0.00  0.00    -0.246 N 
ATOM      9  C   UNL     1      32.274 -22.808 -15.131  0.00  0.00    +0.061 C 
ATOM     10  C   UNL     1      33.636 -22.800 -15.450  0.00  0.00    +0.054 C 
ATOM     11  C   UNL     1      31.319 -22.532 -16.110  0.00  0.00    +0.058 C 
ATOM     12  C   UNL     1      34.041 -22.512 -16.753  0.00  0.00    +0.015 C 
ATOM     13  C   UNL     1      31.850 -23.110 -13.758  0.00  0.00    +0.250 C 
ATOM     14  C   UNL     1      31.732 -22.244 -17.416  0.00  0.00    +0.005 C 
ATOM     15  C   UNL     1      29.876 -22.537 -15.787  0.00  0.00    +0.252 C 
ATOM     16  C   UNL     1      33.091 -22.235 -17.735  0.00  0.00    +0.001 C 
ATOM     17  C   UNL     1      30.390 -23.119 -13.422  0.00  0.00    +0.291 C 
ATOM     18  H   UNL     1      28.575 -22.833 -14.263  0.00  0.00    +0.158 HD
ENDBRANCH   2  10
BRANCH   3  19
ATOM     19  C   UNL     1      36.335 -24.158 -13.161  0.00  0.00    +0.266 C 
BRANCH  19  20
ATOM     20  C   UNL     1      37.709 -24.550 -13.649  0.00  0.00    +0.026 C 
ATOM     21  C   UNL     1      38.258 -23.922 -14.767  0.00  0.00    -0.000 C 
ATOM     22  C   UNL     1      38.429 -25.543 -12.984  0.00  0.00    -0.000 C 
ATOM     23  C   UNL     1      39.527 -24.284 -15.219  0.00  0.00    -0.000 C 
ATOM     24  C   UNL     1      39.697 -25.906 -13.436  0.00  0.00    -0.000 C 
ATOM     25  C   UNL     1      40.247 -25.277 -14.553  0.00  0.00    -0.000 C 
ENDBRANCH  19  20
BRANCH  19  26
ATOM     26  O   UNL     1      35.977 -24.999 -12.074  0.00  0.00    -0.438 OA
BRANCH  26  28
ATOM     27  O   UNL     1      34.905 -24.841 -10.034  0.00  0.00    -0.250 OA
ATOM     28  C   UNL     1      35.586 -24.360 -10.930  0.00  0.00    +0.318 C 
ATOM     29  C   UNL     1      36.115 -22.957 -10.919  0.00  0.00    +0.121 C 
ENDBRANCH  26  28
ENDBRANCH  19  26
ENDBRANCH   3  19
TORSDOF 5
ENDMDL
MODEL 2
REMARK VINA RESULT:     -10.8      1.937      3.301
REMARK  Name = 24883486
REMARK  5 active torsions:
REMARK  status: ('A' for Active; 'I' for Inactive)
REMARK    1  A    between atoms: N_2  and  C_10
REMARK    2  A    between atoms: C_3  and  C_19
REMARK    3  A    between atoms: C_19  and  C_20
REMARK    4  A    between atoms: C_19  and  O_26
REMARK    5  A    between atoms: O_26  and  C_28
REMARK                            x       y       z     vdW  Elec       q    Type
REMARK                         _______ _______ _______ _____ _____    ______ ____
ROOT
ATOM      1  O   UNL     1      34.977 -25.364 -14.775  0.00  0.00    -0.270 OA
ATOM      2  N   UNL     1      34.488 -23.087 -14.450  0.00  0.00    -0.281 N 
ATOM      3  C   UNL     1      35.164 -24.291 -14.210  0.00  0.00    +0.271 C 
ATOM      4  H   UNL     1      34.777 -22.315 -13.909  0.00  0.00    +0.155 HD
ENDROOT
BRANCH   2  10
ATOM      5  O   UNL     1      36.032 -22.179 -16.403  0.00  0.00    -0.282 OA
ATOM      6  O   UNL     1      31.845 -21.375 -19.610  0.00  0.00    -0.270 OA
ATOM      7  O   UNL     1      36.393 -21.208 -18.815  0.00  0.00    -0.266 OA
ATOM      8  N   UNL     1      34.110 -21.290 -19.220  0.00  0.00    -0.246 N 
ATOM      9  C   UNL     1      33.665 -22.328 -16.642  0.00  0.00    +0.061 C 
ATOM     10  C   UNL     1      33.453 -22.843 -15.359  0.00  0.00    +0.054 C 
ATOM     11  C   UNL     1      32.588 -22.109 -17.501  0.00  0.00    +0.058 C 
ATOM     12  C   UNL     1      32.158 -23.140 -14.936  0.00  0.00    +0.015 C 
ATOM     13  C   UNL     1      35.031 -22.017 -17.084  0.00  0.00    +0.250 C 
ATOM     14  C   UNL     1      31.290 -22.409 -17.071  0.00  0.00    +0.005 C 
ATOM     15  C   UNL     1      32.797 -21.565 -18.859  0.00  0.00    +0.252 C 
ATOM     16  C   UNL     1      31.078 -22.923 -15.790  0.00  0.00    +0.001 C 
ATOM     17  C   UNL     1      35.252 -21.464 -18.460  0.00  0.00    +0.291 C 
ATOM     18  H   UNL     1      34.244 -20.928 -20.126  0.00  0.00    +0.158 HD
ENDBRANCH   2  10
BRANCH   3  19
ATOM     19  C   UNL     1      36.234 -24.138 -13.131  0.00  0.00    +0.266 C 
BRANCH  19  20
ATOM     20  C   UNL     1      37.600 -24.528 -13.645  0.00  0.00    +0.026 C 
ATOM     21  C   UNL     1      38.136 -23.886 -14.761  0.00  0.00    -0.000 C 
ATOM     22  C   UNL     1      38.325 -25.533 -13.003  0.00  0.00    -0.000 C 
ATOM     23  C   UNL     1      39.397 -24.248 -15.236  0.00  0.00    -0.000 C 
ATOM     24  C   UNL     1      39.585 -25.895 -13.478  0.00  0.00    -0.000 C 
ATOM     25  C   UNL     1      40.122 -25.252 -14.594  0.00  0.00    -0.000 C 
ENDBRANCH  19  20
BRANCH  19  26
ATOM     26  O   UNL     1      35.908 -24.962 -12.022  0.00  0.00    -0.438 OA
BRANCH  26  28
ATOM     27  O   UNL     1      34.929 -24.771  -9.939  0.00  0.00    -0.250 OA
ATOM     28  C   UNL     1      35.573 -24.307 -10.870  0.00  0.00    +0.318 C 
ATOM     29  C   UNL     1      36.115 -22.909 -10.899  0.00  0.00    +0.121 C 
ENDBRANCH  26  28
ENDBRANCH  19  26
ENDBRANCH   3  19
TORSDOF 5
ENDMDL
MODEL 3
REMARK VINA RESULT:     -10.5      1.658      3.171
REMARK  Name = 24883486
REMARK  5 active torsions:
REMARK  status: ('A' for Active; 'I' for Inactive)
REMARK    1  A    between atoms: N_2  and  C_10
REMARK    2  A    between atoms: C_3  and  C_19
REMARK    3  A    between atoms: C_19  and  C_20
REMARK    4  A    between atoms: C_19  and  O_26
REMARK    5  A    between atoms: O_26  and  C_28
REMARK                            x       y       z     vdW  Elec       q    Type
REMARK                         _______ _______ _______ _____ _____    ______ ____
ROOT
ATOM      1  O   UNL     1      36.598 -22.056 -15.958  0.00  0.00    -0.270 OA
ATOM      2  N   UNL     1      34.843 -23.524 -15.413  0.00  0.00    -0.281 N 
ATOM      3  C   UNL     1      36.158 -23.040 -15.371  0.00  0.00    +0.271 C 
ATOM      4  H   UNL     1      34.661 -24.325 -14.868  0.00  0.00    +0.155 HD
ENDROOT
BRANCH   2  10
ATOM      5  O   UNL     1      33.006 -24.066 -13.582  0.00  0.00    -0.282 OA
ATOM      6  O   UNL     1      29.106 -22.039 -16.606  0.00  0.00    -0.270 OA
ATOM      7  O   UNL     1      30.530 -24.071 -12.708  0.00  0.00    -0.266 OA
ATOM      8  N   UNL     1      29.809 -23.049 -14.664  0.00  0.00    -0.246 N 
ATOM      9  C   UNL     1      32.445 -23.024 -15.651  0.00  0.00    +0.061 C 
ATOM     10  C   UNL     1      33.757 -23.016 -16.134  0.00  0.00    +0.054 C 
ATOM     11  C   UNL     1      31.407 -22.500 -16.421  0.00  0.00    +0.058 C 
ATOM     12  C   UNL     1      34.030 -22.479 -17.393  0.00  0.00    +0.015 C 
ATOM     13  C   UNL     1      32.161 -23.589 -14.325  0.00  0.00    +0.250 C 
ATOM     14  C   UNL     1      31.686 -21.963 -17.683  0.00  0.00    +0.005 C 
ATOM     15  C   UNL     1      30.015 -22.502 -15.924  0.00  0.00    +0.252 C 
ATOM     16  C   UNL     1      32.996 -21.954 -18.166  0.00  0.00    +0.001 C 
ATOM     17  C   UNL     1      30.753 -23.597 -13.813  0.00  0.00    +0.291 C 
ATOM     18  H   UNL     1      28.880 -23.049 -14.337  0.00  0.00    +0.158 HD
ENDBRANCH   2  10
BRANCH   3  19
ATOM     19  C   UNL     1      37.046 -23.884 -14.460  0.00  0.00    +0.266 C 
BRANCH  19  20
ATOM     20  C   UNL     1      36.626 -23.768 -13.014  0.00  0.00    +0.026 C 
ATOM     21  C   UNL     1      36.057 -24.863 -12.363  0.00  0.00    -0.000 C 
ATOM     22  C   UNL     1      36.806 -22.566 -12.329  0.00  0.00    -0.000 C 
ATOM     23  C   UNL     1      35.669 -24.757 -11.027  0.00  0.00    -0.000 C 
ATOM     24  C   UNL     1      36.416 -22.459 -10.994  0.00  0.00    -0.000 C 
ATOM     25  C   UNL     1      35.848 -23.554 -10.343  0.00  0.00    -0.000 C 
ENDBRANCH  19  20
BRANCH  19  26
ATOM     26  O   UNL     1      38.393 -23.452 -14.582  0.00  0.00    -0.438 OA
BRANCH  26  28
ATOM     27  O   UNL     1      40.521 -24.223 -14.121  0.00  0.00    -0.250 OA
ATOM     28  C   UNL     1      39.347 -24.416 -14.407  0.00  0.00    +0.318 C 
ATOM     29  C   UNL     1      38.748 -25.774 -14.619  0.00  0.00    +0.121 C 
ENDBRANCH  26  28
ENDBRANCH  19  26
ENDBRANCH   3  19
TORSDOF 5
ENDMDL
MODEL 4
REMARK VINA RESULT:      -9.9      9.131     11.926
REMARK  Name = 24883486
REMARK  5 active torsions:
REMARK  status: ('A' for Active; 'I' for Inactive)
REMARK    1  A    between atoms: N_2  and  C_10
REMARK    2  A    between atoms: C_3  and  C_19
REMARK    3  A    between atoms: C_19  and  C_20
REMARK    4  A    between atoms: C_19  and  O_26
REMARK    5  A    between atoms: O_26  and  C_28
REMARK                            x       y       z     vdW  Elec       q    Type
REMARK                         _______ _______ _______ _____ _____    ______ ____
ROOT
ATOM      1  O   UNL     1      35.404 -17.172 -20.554  0.00  0.00    -0.270 OA
ATOM      2  N   UNL     1      33.695 -16.422 -21.986  0.00  0.00    -0.281 N 
ATOM      3  C   UNL     1      34.518 -17.380 -21.377  0.00  0.00    +0.271 C 
ATOM      4  H   UNL     1      33.024 -16.769 -22.618  0.00  0.00    +0.155 HD
ENDROOT
BRANCH   2  10
ATOM      5  O   UNL     1      33.245 -15.808 -24.524  0.00  0.00    -0.282 OA
ATOM      6  O   UNL     1      33.361 -10.576 -23.488  0.00  0.00    -0.270 OA
ATOM      7  O   UNL     1      32.893 -14.077 -26.466  0.00  0.00    -0.266 OA
ATOM      8  N   UNL     1      33.126 -12.315 -24.974  0.00  0.00    -0.246 N 
ATOM      9  C   UNL     1      33.516 -14.127 -22.856  0.00  0.00    +0.061 C 
ATOM     10  C   UNL     1      33.708 -15.034 -21.809  0.00  0.00    +0.054 C 
ATOM     11  C   UNL     1      33.540 -12.753 -22.612  0.00  0.00    +0.058 C 
ATOM     12  C   UNL     1      33.926 -14.564 -20.515  0.00  0.00    +0.015 C 
ATOM     13  C   UNL     1      33.286 -14.626 -24.218  0.00  0.00    +0.250 C 
ATOM     14  C   UNL     1      33.759 -12.287 -21.311  0.00  0.00    +0.005 C 
ATOM     15  C   UNL     1      33.338 -11.783 -23.708  0.00  0.00    +0.252 C 
ATOM     16  C   UNL     1      33.952 -13.192 -20.266  0.00  0.00    +0.001 C 
ATOM     17  C   UNL     1      33.082 -13.649 -25.337  0.00  0.00    +0.291 C 
ATOM     18  H   UNL     1      32.993 -11.664 -25.701  0.00  0.00    +0.158 HD
ENDBRANCH   2  10
BRANCH   3  19
ATOM     19  C   UNL     1      34.182 -18.795 -21.841  0.00  0.00    +0.266 C 
BRANCH  19  20
ATOM     20  C   UNL     1      34.291 -19.791 -20.710  0.00  0.00    +0.026 C 
ATOM     21  C   UNL     1      35.546 -20.216 -20.274  0.00  0.00    -0.000 C 
ATOM     22  C   UNL     1      33.137 -20.286 -20.103  0.00  0.00    -0.000 C 
ATOM     23  C   UNL     1      35.647 -21.136 -19.230  0.00  0.00    -0.000 C 
ATOM     24  C   UNL     1      33.237 -21.206 -19.060  0.00  0.00    -0.000 C 
ATOM     25  C   UNL     1      34.492 -21.631 -18.623  0.00  0.00    -0.000 C 
ENDBRANCH  19  20
BRANCH  19  26
ATOM     26  O   UNL     1      35.076 -19.177 -22.876  0.00  0.00    -0.438 OA
BRANCH  26  28
ATOM     27  O   UNL     1      34.889 -20.552 -24.722  0.00  0.00    -0.250 OA
ATOM     28  C   UNL     1      34.496 -19.622 -24.032  0.00  0.00    +0.318 C 
ATOM     29  C   UNL     1      33.284 -18.798 -24.347  0.00  0.00    +0.121 C 
ENDBRANCH  26  28
ENDBRANCH  19  26
ENDBRANCH   3  19
TORSDOF 5
ENDMDL
MODEL 5
REMARK VINA RESULT:      -9.8     12.989     16.215
REMARK  Name = 24883486
REMARK  5 active torsions:
REMARK  status: ('A' for Active; 'I' for Inactive)
REMARK    1  A    between atoms: N_2  and  C_10
REMARK    2  A    between atoms: C_3  and  C_19
REMARK    3  A    between atoms: C_19  and  C_20
REMARK    4  A    between atoms: C_19  and  O_26
REMARK    5  A    between atoms: O_26  and  C_28
REMARK                            x       y       z     vdW  Elec       q    Type
REMARK                         _______ _______ _______ _____ _____    ______ ____
ROOT
ATOM      1  O   UNL     1      33.850  -9.925 -23.629  0.00  0.00    -0.270 OA
ATOM      2  N   UNL     1      32.107 -11.474 -23.320  0.00  0.00    -0.281 N 
ATOM      3  C   UNL     1      32.730 -10.222 -23.225  0.00  0.00    +0.271 C 
ATOM      4  H   UNL     1      31.196 -11.531 -22.950  0.00  0.00    +0.155 HD
ENDROOT
BRANCH   2  10
ATOM      5  O   UNL     1      32.845 -12.567 -21.022  0.00  0.00    -0.282 OA
ATOM      6  O   UNL     1      34.700 -16.933 -23.465  0.00  0.00    -0.270 OA
ATOM      7  O   UNL     1      33.912 -14.507 -19.612  0.00  0.00    -0.266 OA
ATOM      8  N   UNL     1      34.309 -15.730 -21.544  0.00  0.00    -0.246 N 
ATOM      9  C   UNL     1      33.181 -13.678 -23.104  0.00  0.00    +0.061 C 
ATOM     10  C   UNL     1      32.618 -12.653 -23.872  0.00  0.00    +0.054 C 
ATOM     11  C   UNL     1      33.672 -14.830 -23.718  0.00  0.00    +0.058 C 
ATOM     12  C   UNL     1      32.548 -12.784 -25.259  0.00  0.00    +0.015 C 
ATOM     13  C   UNL     1      33.252 -13.537 -21.644  0.00  0.00    +0.250 C 
ATOM     14  C   UNL     1      33.599 -14.956 -25.110  0.00  0.00    +0.005 C 
ATOM     15  C   UNL     1      34.269 -15.921 -22.919  0.00  0.00    +0.252 C 
ATOM     16  C   UNL     1      33.038 -13.934 -25.877  0.00  0.00    +0.001 C 
ATOM     17  C   UNL     1      33.857 -14.638 -20.826  0.00  0.00    +0.291 C 
ATOM     18  H   UNL     1      34.709 -16.460 -21.016  0.00  0.00    +0.158 HD
ENDBRANCH   2  10
BRANCH   3  19
ATOM     19  C   UNL     1      31.830  -9.189 -22.550  0.00  0.00    +0.266 C 
BRANCH  19  20
ATOM     20  C   UNL     1      32.156  -7.786 -23.005  0.00  0.00    +0.026 C 
ATOM     21  C   UNL     1      31.507  -7.244 -24.115  0.00  0.00    -0.000 C 
ATOM     22  C   UNL     1      33.108  -7.033 -22.318  0.00  0.00    -0.000 C 
ATOM     23  C   UNL     1      31.809  -5.949 -24.536  0.00  0.00    -0.000 C 
ATOM     24  C   UNL     1      33.410  -5.738 -22.740  0.00  0.00    -0.000 C 
ATOM     25  C   UNL     1      32.760  -5.196 -23.849  0.00  0.00    -0.000 C 
ENDBRANCH  19  20
BRANCH  19  26
ATOM     26  O   UNL     1      32.000  -9.264 -21.142  0.00  0.00    -0.438 OA
BRANCH  26  28
ATOM     27  O   UNL     1      30.031 -10.456 -20.940  0.00  0.00    -0.250 OA
ATOM     28  C   UNL     1      30.985  -9.867 -20.450  0.00  0.00    +0.318 C 
ATOM     29  C   UNL     1      31.205  -9.707 -18.976  0.00  0.00    +0.121 C 
ENDBRANCH  26  28
ENDBRANCH  19  26
ENDBRANCH   3  19
TORSDOF 5
ENDMDL
MODEL 6
REMARK VINA RESULT:      -9.7      2.533      4.093
REMARK  Name = 24883486
REMARK  5 active torsions:
REMARK  status: ('A' for Active; 'I' for Inactive)
REMARK    1  A    between atoms: N_2  and  C_10
REMARK    2  A    between atoms: C_3  and  C_19
REMARK    3  A    between atoms: C_19  and  C_20
REMARK    4  A    between atoms: C_19  and  O_26
REMARK    5  A    between atoms: O_26  and  C_28
REMARK                            x       y       z     vdW  Elec       q    Type
REMARK                         _______ _______ _______ _____ _____    ______ ____
ROOT
ATOM      1  O   UNL     1      37.333 -21.307 -15.367  0.00  0.00    -0.270 OA
ATOM      2  N   UNL     1      35.985 -22.852 -16.518  0.00  0.00    -0.281 N 
ATOM      3  C   UNL     1      36.888 -22.439 -15.530  0.00  0.00    +0.271 C 
ATOM      4  H   UNL     1      35.724 -23.802 -16.495  0.00  0.00    +0.155 HD
ENDROOT
BRANCH   2  10
ATOM      5  O   UNL     1      33.467 -23.312 -15.831  0.00  0.00    -0.282 OA
ATOM      6  O   UNL     1      31.615 -20.307 -19.831  0.00  0.00    -0.270 OA
ATOM      7  O   UNL     1      30.880 -23.021 -16.165  0.00  0.00    -0.266 OA
ATOM      8  N   UNL     1      31.243 -21.656 -18.007  0.00  0.00    -0.246 N 
ATOM      9  C   UNL     1      34.026 -21.939 -17.697  0.00  0.00    +0.061 C 
ATOM     10  C   UNL     1      35.408 -22.085 -17.537  0.00  0.00    +0.054 C 
ATOM     11  C   UNL     1      33.516 -21.159 -18.735  0.00  0.00    +0.058 C 
ATOM     12  C   UNL     1      36.281 -21.447 -18.417  0.00  0.00    +0.015 C 
ATOM     13  C   UNL     1      33.111 -22.613 -16.767  0.00  0.00    +0.250 C 
ATOM     14  C   UNL     1      34.396 -20.520 -19.616  0.00  0.00    +0.005 C 
ATOM     15  C   UNL     1      32.058 -20.995 -18.917  0.00  0.00    +0.252 C 
ATOM     16  C   UNL     1      35.775 -20.665 -19.456  0.00  0.00    +0.001 C 
ATOM     17  C   UNL     1      31.631 -22.454 -16.945  0.00  0.00    +0.291 C 
ATOM     18  H   UNL     1      30.273 -21.545 -18.133  0.00  0.00    +0.158 HD
ENDBRANCH   2  10
BRANCH   3  19
ATOM     19  C   UNL     1      37.281 -23.587 -14.603  0.00  0.00    +0.266 C 
BRANCH  19  20
ATOM     20  C   UNL     1      36.560 -23.503 -13.278  0.00  0.00    +0.026 C 
ATOM     21  C   UNL     1      37.139 -22.815 -12.211  0.00  0.00    -0.000 C 
ATOM     22  C   UNL     1      35.316 -24.114 -13.121  0.00  0.00    -0.000 C 
ATOM     23  C   UNL     1      36.474 -22.738 -10.988  0.00  0.00    -0.000 C 
ATOM     24  C   UNL     1      34.651 -24.037 -11.897  0.00  0.00    -0.000 C 
ATOM     25  C   UNL     1      35.229 -23.349 -10.830  0.00  0.00    -0.000 C 
ENDBRANCH  19  20
BRANCH  19  26
ATOM     26  O   UNL     1      38.681 -23.545 -14.367  0.00  0.00    -0.438 OA
BRANCH  26  28
ATOM     27  O   UNL     1      40.494 -24.938 -14.039  0.00  0.00    -0.250 OA
ATOM     28  C   UNL     1      39.306 -24.758 -14.269  0.00  0.00    +0.318 C 
ATOM     29  C   UNL     1      38.316 -25.863 -14.487  0.00  0.00    +0.121 C 
ENDBRANCH  26  28
ENDBRANCH  19  26
ENDBRANCH   3  19
TORSDOF 5
ENDMDL
MODEL 7
REMARK VINA RESULT:      -9.5      2.585      5.462
REMARK  Name = 24883486
REMARK  5 active torsions:
REMARK  status: ('A' for Active; 'I' for Inactive)
REMARK    1  A    between atoms: N_2  and  C_10
REMARK    2  A    between atoms: C_3  and  C_19
REMARK    3  A    between atoms: C_19  and  C_20
REMARK    4  A    between atoms: C_19  and  O_26
REMARK    5  A    between atoms: O_26  and  C_28
REMARK                            x       y       z     vdW  Elec       q    Type
REMARK                         _______ _______ _______ _____ _____    ______ ____
ROOT
ATOM      1  O   UNL     1      35.350 -25.027 -14.269  0.00  0.00    -0.270 OA
ATOM      2  N   UNL     1      34.615 -22.797 -14.405  0.00  0.00    -0.281 N 
ATOM      3  C   UNL     1      34.624 -24.107 -13.906  0.00  0.00    +0.271 C 
ATOM      4  H   UNL     1      33.970 -22.181 -13.988  0.00  0.00    +0.155 HD
ENDROOT
BRANCH   2  10
ATOM      5  O   UNL     1      32.687 -22.659 -16.218  0.00  0.00    -0.282 OA
ATOM      6  O   UNL     1      35.992 -20.605 -19.868  0.00  0.00    -0.270 OA
ATOM      7  O   UNL     1      31.794 -22.074 -18.616  0.00  0.00    -0.266 OA
ATOM      8  N   UNL     1      33.900 -21.334 -19.250  0.00  0.00    -0.246 N 
ATOM      9  C   UNL     1      34.911 -21.948 -16.697  0.00  0.00    +0.061 C 
ATOM     10  C   UNL     1      35.406 -22.256 -15.425  0.00  0.00    +0.054 C 
ATOM     11  C   UNL     1      35.754 -21.409 -17.669  0.00  0.00    +0.058 C 
ATOM     12  C   UNL     1      36.748 -22.023 -15.127  0.00  0.00    +0.015 C 
ATOM     13  C   UNL     1      33.497 -22.194 -17.006  0.00  0.00    +0.250 C 
ATOM     14  C   UNL     1      37.101 -21.177 -17.364  0.00  0.00    +0.005 C 
ATOM     15  C   UNL     1      35.246 -21.079 -19.017  0.00  0.00    +0.252 C 
ATOM     16  C   UNL     1      37.595 -21.485 -16.096  0.00  0.00    +0.001 C 
ATOM     17  C   UNL     1      32.973 -21.863 -18.371  0.00  0.00    +0.291 C 
ATOM     18  H   UNL     1      33.567 -21.113 -20.150  0.00  0.00    +0.158 HD
ENDBRANCH   2  10
BRANCH   3  19
ATOM     19  C   UNL     1      33.602 -24.295 -12.788  0.00  0.00    +0.266 C 
BRANCH  19  20
ATOM     20  C   UNL     1      32.200 -23.987 -13.259  0.00  0.00    +0.026 C 
ATOM     21  C   UNL     1      31.434 -24.981 -13.867  0.00  0.00    -0.000 C 
ATOM     22  C   UNL     1      31.673 -22.707 -13.089  0.00  0.00    -0.000 C 
ATOM     23  C   UNL     1      30.140 -24.696 -14.303  0.00  0.00    -0.000 C 
ATOM     24  C   UNL     1      30.380 -22.421 -13.526  0.00  0.00    -0.000 C 
ATOM     25  C   UNL     1      29.612 -23.416 -14.133  0.00  0.00    -0.000 C 
ENDBRANCH  19  20
BRANCH  19  26
ATOM     26  O   UNL     1      33.921 -23.434 -11.705  0.00  0.00    -0.438 OA
BRANCH  26  28
ATOM     27  O   UNL     1      34.988 -24.786 -10.166  0.00  0.00    -0.250 OA
ATOM     28  C   UNL     1      34.972 -23.824 -10.922  0.00  0.00    +0.318 C 
ATOM     29  C   UNL     1      36.131 -22.892 -11.119  0.00  0.00    +0.121 C 
ENDBRANCH  26  28
ENDBRANCH  19  26
ENDBRANCH   3  19
TORSDOF 5
ENDMDL
MODEL 8
REMARK VINA RESULT:      -9.4      3.441      5.970
REMARK  Name = 24883486
REMARK  5 active torsions:
REMARK  status: ('A' for Active; 'I' for Inactive)
REMARK    1  A    between atoms: N_2  and  C_10
REMARK    2  A    between atoms: C_3  and  C_19
REMARK    3  A    between atoms: C_19  and  C_20
REMARK    4  A    between atoms: C_19  and  O_26
REMARK    5  A    between atoms: O_26  and  C_28
REMARK                            x       y       z     vdW  Elec       q    Type
REMARK                         _______ _______ _______ _____ _____    ______ ____
ROOT
ATOM      1  O   UNL     1      33.378 -23.623 -17.744  0.00  0.00    -0.270 OA
ATOM      2  N   UNL     1      33.064 -22.435 -15.738  0.00  0.00    -0.281 N 
ATOM      3  C   UNL     1      33.574 -22.647 -17.026  0.00  0.00    +0.271 C 
ATOM      4  H   UNL     1      33.316 -21.585 -15.308  0.00  0.00    +0.155 HD
ENDROOT
BRANCH   2  10
ATOM      5  O   UNL     1      30.790 -21.746 -16.910  0.00  0.00    -0.282 OA
ATOM      6  O   UNL     1      27.968 -25.087 -13.855  0.00  0.00    -0.270 OA
ATOM      7  O   UNL     1      28.187 -21.917 -17.209  0.00  0.00    -0.266 OA
ATOM      8  N   UNL     1      28.072 -23.511 -15.526  0.00  0.00    -0.246 N 
ATOM      9  C   UNL     1      30.858 -23.362 -15.160  0.00  0.00    +0.061 C 
ATOM     10  C   UNL     1      32.244 -23.282 -14.984  0.00  0.00    +0.054 C 
ATOM     11  C   UNL     1      30.097 -24.228 -14.374  0.00  0.00    +0.058 C 
ATOM     12  C   UNL     1      32.868 -24.072 -14.020  0.00  0.00    +0.015 C 
ATOM     13  C   UNL     1      30.205 -22.528 -16.177  0.00  0.00    +0.250 C 
ATOM     14  C   UNL     1      30.729 -25.019 -13.408  0.00  0.00    +0.005 C 
ATOM     15  C   UNL     1      28.633 -24.324 -14.549  0.00  0.00    +0.252 C 
ATOM     16  C   UNL     1      32.112 -24.939 -13.232  0.00  0.00    +0.001 C 
ATOM     17  C   UNL     1      28.720 -22.617 -16.360  0.00  0.00    +0.291 C 
ATOM     18  H   UNL     1      27.096 -23.577 -15.637  0.00  0.00    +0.158 HD
ENDBRANCH   2  10
BRANCH   3  19
ATOM     19  C   UNL     1      34.434 -21.475 -17.496  0.00  0.00    +0.266 C 
BRANCH  19  20
ATOM     20  C   UNL     1      33.940 -20.916 -18.809  0.00  0.00    +0.026 C 
ATOM     21  C   UNL     1      34.852 -20.470 -19.766  0.00  0.00    -0.000 C 
ATOM     22  C   UNL     1      32.570 -20.844 -19.065  0.00  0.00    -0.000 C 
ATOM     23  C   UNL     1      34.395 -19.953 -20.978  0.00  0.00    -0.000 C 
ATOM     24  C   UNL     1      32.113 -20.326 -20.277  0.00  0.00    -0.000 C 
ATOM     25  C   UNL     1      33.026 -19.881 -21.234  0.00  0.00    -0.000 C 
ENDBRANCH  19  20
BRANCH  19  26
ATOM     26  O   UNL     1      35.776 -21.910 -17.660  0.00  0.00    -0.438 OA
BRANCH  26  28
ATOM     27  O   UNL     1      37.040 -20.105 -16.968  0.00  0.00    -0.250 OA
ATOM     28  C   UNL     1      36.707 -21.279 -16.881  0.00  0.00    +0.318 C 
ATOM     29  C   UNL     1      37.278 -22.242 -15.884  0.00  0.00    +0.121 C 
ENDBRANCH  26  28
ENDBRANCH  19  26
ENDBRANCH   3  19
TORSDOF 5
ENDMDL
MODEL 9
REMARK VINA RESULT:      -9.4      2.003      3.691
REMARK  Name = 24883486
REMARK  5 active torsions:
REMARK  status: ('A' for Active; 'I' for Inactive)
REMARK    1  A    between atoms: N_2  and  C_10
REMARK    2  A    between atoms: C_3  and  C_19
REMARK    3  A    between atoms: C_19  and  C_20
REMARK    4  A    between atoms: C_19  and  O_26
REMARK    5  A    between atoms: O_26  and  C_28
REMARK                            x       y       z     vdW  Elec       q    Type
REMARK                         _______ _______ _______ _____ _____    ______ ____
ROOT
ATOM      1  O   UNL     1      34.097 -23.239 -11.976  0.00  0.00    -0.270 OA
ATOM      2  N   UNL     1      33.423 -24.296 -13.966  0.00  0.00    -0.281 N 
ATOM      3  C   UNL     1      34.348 -23.823 -13.026  0.00  0.00    +0.271 C 
ATOM      4  H   UNL     1      33.803 -24.754 -14.752  0.00  0.00    +0.155 HD
ENDROOT
BRANCH   2  10
ATOM      5  O   UNL     1      33.177 -22.931 -16.225  0.00  0.00    -0.282 OA
ATOM      6  O   UNL     1      27.865 -22.747 -15.768  0.00  0.00    -0.270 OA
ATOM      7  O   UNL     1      31.744 -21.711 -18.054  0.00  0.00    -0.266 OA
ATOM      8  N   UNL     1      29.792 -22.229 -16.911  0.00  0.00    -0.246 N 
ATOM      9  C   UNL     1      31.281 -23.545 -14.918  0.00  0.00    +0.061 C 
ATOM     10  C   UNL     1      32.028 -24.197 -13.931  0.00  0.00    +0.054 C 
ATOM     11  C   UNL     1      29.890 -23.484 -14.823  0.00  0.00    +0.058 C 
ATOM     12  C   UNL     1      31.380 -24.789 -12.847  0.00  0.00    +0.015 C 
ATOM     13  C   UNL     1      31.966 -22.924 -16.058  0.00  0.00    +0.250 C 
ATOM     14  C   UNL     1      29.245 -24.080 -13.733  0.00  0.00    +0.005 C 
ATOM     15  C   UNL     1      29.087 -22.798 -15.857  0.00  0.00    +0.252 C 
ATOM     16  C   UNL     1      29.991 -24.730 -12.748  0.00  0.00    +0.001 C 
ATOM     17  C   UNL     1      31.161 -22.225 -17.111  0.00  0.00    +0.291 C 
ATOM     18  H   UNL     1      29.253 -21.773 -17.597  0.00  0.00    +0.158 HD
ENDBRANCH   2  10
BRANCH   3  19
ATOM     19  C   UNL     1      35.786 -24.132 -13.437  0.00  0.00    +0.266 C 
BRANCH  19  20
ATOM     20  C   UNL     1      36.289 -23.155 -14.473  0.00  0.00    +0.026 C 
ATOM     21  C   UNL     1      37.545 -23.337 -15.053  0.00  0.00    -0.000 C 
ATOM     22  C   UNL     1      35.499 -22.069 -14.850  0.00  0.00    -0.000 C 
ATOM     23  C   UNL     1      38.010 -22.434 -16.009  0.00  0.00    -0.000 C 
ATOM     24  C   UNL     1      35.964 -21.165 -15.805  0.00  0.00    -0.000 C 
ATOM     25  C   UNL     1      37.220 -21.348 -16.385  0.00  0.00    -0.000 C 
ENDBRANCH  19  20
BRANCH  19  26
ATOM     26  O   UNL     1      35.852 -25.445 -13.975  0.00  0.00    -0.438 OA
BRANCH  26  28
ATOM     27  O   UNL     1      37.534 -27.004 -14.242  0.00  0.00    -0.250 OA
ATOM     28  C   UNL     1      36.906 -26.209 -13.557  0.00  0.00    +0.318 C 
ATOM     29  C   UNL     1      37.196 -25.934 -12.111  0.00  0.00    +0.121 C 
ENDBRANCH  26  28
ENDBRANCH  19  26
ENDBRANCH   3  19
TORSDOF 5
ENDMDL
