MODEL 1
REMARK VINA RESULT:     -11.5      0.000      0.000
REMARK  Name = 5280445
REMARK  5 active torsions:
REMARK  status: ('A' for Active; 'I' for Inactive)
REMARK    1  A    between atoms: C_5  and  C_12
REMARK    2  A    between atoms: C_8  and  O_22
REMARK    3  A    between atoms: C_10  and  O_24
REMARK    4  A    between atoms: C_15  and  O_18
REMARK    5  A    between atoms: C_17  and  O_20
REMARK                            x       y       z     vdW  Elec       q    Type
REMARK                         _______ _______ _______ _____ _____    ______ ____
ROOT
ATOM      1  O   UNL     1      34.209 -17.355 -21.029  0.00  0.00    -0.453 OA
ATOM      2  O   UNL     1      33.722 -18.172 -24.991  0.00  0.00    -0.286 OA
ATOM      3  C   UNL     1      33.919 -16.536 -23.297  0.00  0.00    +0.107 C 
ATOM      4  C   UNL     1      34.089 -16.327 -21.929  0.00  0.00    +0.154 C 
ATOM      5  C   UNL     1      34.150 -18.658 -21.501  0.00  0.00    +0.149 C 
ATOM      6  C   UNL     1      33.866 -17.916 -23.804  0.00  0.00    +0.205 C 
ATOM      7  C   UNL     1      33.996 -18.986 -22.794  0.00  0.00    +0.080 C 
ATOM      8  C   UNL     1      33.804 -15.450 -24.168  0.00  0.00    +0.143 C 
ATOM      9  C   UNL     1      34.145 -15.028 -21.423  0.00  0.00    +0.074 C 
ATOM     10  C   UNL     1      34.030 -13.942 -22.290  0.00  0.00    +0.140 C 
ATOM     11  C   UNL     1      33.860 -14.152 -23.659  0.00  0.00    +0.073 C 
ENDROOT
BRANCH   5  12
ATOM     12  C   UNL     1      34.294 -19.685 -20.450  0.00  0.00    +0.038 C 
ATOM     13  C   UNL     1      33.164 -20.317 -19.927  0.00  0.00    +0.043 C 
ATOM     14  C   UNL     1      35.562 -20.028 -19.975  0.00  0.00    +0.006 C 
ATOM     15  C   UNL     1      33.301 -21.287 -18.934  0.00  0.00    +0.168 C 
ATOM     16  C   UNL     1      35.699 -20.999 -18.982  0.00  0.00    +0.040 C 
ATOM     17  C   UNL     1      34.569 -21.628 -18.462  0.00  0.00    +0.167 C 
BRANCH  15  18
ATOM     18  O   UNL     1      32.189 -21.895 -18.432  0.00  0.00    -0.503 OA
ATOM     19  H   UNL     1      32.152 -22.126 -17.525  0.00  0.00    +0.292 HD
ENDBRANCH  15  18
BRANCH  17  20
ATOM     20  O   UNL     1      34.715 -22.575 -17.494  0.00  0.00    -0.503 OA
ATOM     21  H   UNL     1      34.478 -22.380 -16.608  0.00  0.00    +0.292 HD
ENDBRANCH  17  20
ENDBRANCH   5  12
BRANCH   8  22
ATOM     22  O   UNL     1      33.637 -15.601 -25.511  0.00  0.00    -0.505 OA
ATOM     23  H   UNL     1      34.386 -15.663 -26.073  0.00  0.00    +0.292 HD
ENDBRANCH   8  22
BRANCH  10  24
ATOM     24  O   UNL     1      34.085 -12.672 -21.800  0.00  0.00    -0.505 OA
ATOM     25  H   UNL     1      33.361 -12.326 -21.316  0.00  0.00    +0.292 HD
ENDBRANCH  10  24
TORSDOF 5
ENDMDL
MODEL 2
REMARK VINA RESULT:     -11.1      3.376      8.509
REMARK  Name = 5280445
REMARK  5 active torsions:
REMARK  status: ('A' for Active; 'I' for Inactive)
REMARK    1  A    between atoms: C_5  and  C_12
REMARK    2  A    between atoms: C_8  and  O_22
REMARK    3  A    between atoms: C_10  and  O_24
REMARK    4  A    between atoms: C_15  and  O_18
REMARK    5  A    between atoms: C_17  and  O_20
REMARK                            x       y       z     vdW  Elec       q    Type
REMARK                         _______ _______ _______ _____ _____    ______ ____
ROOT
ATOM      1  O   UNL     1      33.238 -13.136 -22.066  0.00  0.00    -0.453 OA
ATOM      2  O   UNL     1      33.017 -14.522 -25.892  0.00  0.00    -0.286 OA
ATOM      3  C   UNL     1      33.643 -14.932 -23.650  0.00  0.00    +0.107 C 
ATOM      4  C   UNL     1      33.688 -14.398 -22.364  0.00  0.00    +0.154 C 
ATOM      5  C   UNL     1      32.724 -12.359 -23.093  0.00  0.00    +0.149 C 
ATOM      6  C   UNL     1      33.090 -14.114 -24.741  0.00  0.00    +0.205 C 
ATOM      7  C   UNL     1      32.621 -12.763 -24.369  0.00  0.00    +0.080 C 
ATOM      8  C   UNL     1      34.115 -16.224 -23.895  0.00  0.00    +0.143 C 
ATOM      9  C   UNL     1      34.206 -15.153 -21.312  0.00  0.00    +0.074 C 
ATOM     10  C   UNL     1      34.678 -16.443 -21.553  0.00  0.00    +0.140 C 
ATOM     11  C   UNL     1      34.633 -16.977 -22.841  0.00  0.00    +0.073 C 
ENDROOT
BRANCH   5  12
ATOM     12  C   UNL     1      32.264 -11.023 -22.662  0.00  0.00    +0.038 C 
ATOM     13  C   UNL     1      32.750  -9.876 -23.294  0.00  0.00    +0.043 C 
ATOM     14  C   UNL     1      31.340 -10.901 -21.621  0.00  0.00    +0.006 C 
ATOM     15  C   UNL     1      32.316  -8.615 -22.887  0.00  0.00    +0.168 C 
ATOM     16  C   UNL     1      30.906  -9.639 -21.214  0.00  0.00    +0.040 C 
ATOM     17  C   UNL     1      31.393  -8.496 -21.847  0.00  0.00    +0.167 C 
BRANCH  15  18
ATOM     18  O   UNL     1      32.800  -7.505 -23.512  0.00  0.00    -0.503 OA
ATOM     19  H   UNL     1      33.560  -7.568 -24.056  0.00  0.00    +0.292 HD
ENDBRANCH  15  18
BRANCH  17  20
ATOM     20  O   UNL     1      30.961  -7.270 -21.442  0.00  0.00    -0.503 OA
ATOM     21  H   UNL     1      30.123  -6.954 -21.717  0.00  0.00    +0.292 HD
ENDBRANCH  17  20
ENDBRANCH   5  12
BRANCH   8  22
ATOM     22  O   UNL     1      34.093 -16.791 -25.133  0.00  0.00    -0.505 OA
ATOM     23  H   UNL     1      33.290 -17.129 -25.479  0.00  0.00    +0.292 HD
ENDBRANCH   8  22
BRANCH  10  24
ATOM     24  O   UNL     1      35.185 -17.184 -20.528  0.00  0.00    -0.505 OA
ATOM     25  H   UNL     1      35.994 -17.641 -20.637  0.00  0.00    +0.292 HD
ENDBRANCH  10  24
TORSDOF 5
ENDMDL
MODEL 3
REMARK VINA RESULT:     -10.8      1.787      7.374
REMARK  Name = 5280445
REMARK  5 active torsions:
REMARK  status: ('A' for Active; 'I' for Inactive)
REMARK    1  A    between atoms: C_5  and  C_12
REMARK    2  A    between atoms: C_8  and  O_22
REMARK    3  A    between atoms: C_10  and  O_24
REMARK    4  A    between atoms: C_15  and  O_18
REMARK    5  A    between atoms: C_17  and  O_20
REMARK                            x       y       z     vdW  Elec       q    Type
REMARK                         _______ _______ _______ _____ _____    ______ ____
ROOT
ATOM      1  O   UNL     1      35.257 -20.050 -19.509  0.00  0.00    -0.453 OA
ATOM      2  O   UNL     1      31.780 -21.931 -18.521  0.00  0.00    -0.286 OA
ATOM      3  C   UNL     1      34.079 -21.615 -18.074  0.00  0.00    +0.107 C 
ATOM      4  C   UNL     1      35.234 -20.937 -18.464  0.00  0.00    +0.154 C 
ATOM      5  C   UNL     1      34.083 -19.825 -20.212  0.00  0.00    +0.149 C 
ATOM      6  C   UNL     1      32.830 -21.373 -18.811  0.00  0.00    +0.205 C 
ATOM      7  C   UNL     1      32.909 -20.411 -19.929  0.00  0.00    +0.080 C 
ATOM      8  C   UNL     1      34.114 -22.508 -17.000  0.00  0.00    +0.143 C 
ATOM      9  C   UNL     1      36.431 -21.148 -17.781  0.00  0.00    +0.074 C 
ATOM     10  C   UNL     1      36.469 -22.039 -16.707  0.00  0.00    +0.140 C 
ATOM     11  C   UNL     1      35.314 -22.717 -16.318  0.00  0.00    +0.073 C 
ENDROOT
BRANCH   5  12
ATOM     12  C   UNL     1      34.219 -18.849 -21.313  0.00  0.00    +0.038 C 
ATOM     13  C   UNL     1      33.670 -19.125 -22.567  0.00  0.00    +0.043 C 
ATOM     14  C   UNL     1      34.898 -17.647 -21.103  0.00  0.00    +0.006 C 
ATOM     15  C   UNL     1      33.799 -18.204 -23.606  0.00  0.00    +0.168 C 
ATOM     16  C   UNL     1      35.027 -16.725 -22.143  0.00  0.00    +0.040 C 
ATOM     17  C   UNL     1      34.477 -17.003 -23.393  0.00  0.00    +0.167 C 
BRANCH  15  18
ATOM     18  O   UNL     1      33.258 -18.487 -24.824  0.00  0.00    -0.503 OA
ATOM     19  H   UNL     1      33.754 -18.972 -25.455  0.00  0.00    +0.292 HD
ENDBRANCH  15  18
BRANCH  17  20
ATOM     20  O   UNL     1      34.608 -16.095 -24.400  0.00  0.00    -0.503 OA
ATOM     21  H   UNL     1      35.449 -15.732 -24.597  0.00  0.00    +0.292 HD
ENDBRANCH  17  20
ENDBRANCH   5  12
BRANCH   8  22
ATOM     22  O   UNL     1      33.015 -23.194 -16.580  0.00  0.00    -0.505 OA
ATOM     23  H   UNL     1      32.651 -23.024 -15.733  0.00  0.00    +0.292 HD
ENDBRANCH   8  22
BRANCH  10  24
ATOM     24  O   UNL     1      37.637 -22.246 -16.038  0.00  0.00    -0.505 OA
ATOM     25  H   UNL     1      37.696 -22.933 -15.404  0.00  0.00    +0.292 HD
ENDBRANCH  10  24
TORSDOF 5
ENDMDL
MODEL 4
REMARK VINA RESULT:     -10.5      2.559      8.109
REMARK  Name = 5280445
REMARK  5 active torsions:
REMARK  status: ('A' for Active; 'I' for Inactive)
REMARK    1  A    between atoms: C_5  and  C_12
REMARK    2  A    between atoms: C_8  and  O_22
REMARK    3  A    between atoms: C_10  and  O_24
REMARK    4  A    between atoms: C_15  and  O_18
REMARK    5  A    between atoms: C_17  and  O_20
REMARK                            x       y       z     vdW  Elec       q    Type
REMARK                         _______ _______ _______ _____ _____    ______ ____
ROOT
ATOM      1  O   UNL     1      35.678 -20.956 -18.304  0.00  0.00    -0.453 OA
ATOM      2  O   UNL     1      32.211 -22.908 -17.425  0.00  0.00    -0.286 OA
ATOM      3  C   UNL     1      34.459 -22.466 -16.845  0.00  0.00    +0.107 C 
ATOM      4  C   UNL     1      35.612 -21.770 -17.201  0.00  0.00    +0.154 C 
ATOM      5  C   UNL     1      34.550 -20.829 -19.100  0.00  0.00    +0.149 C 
ATOM      6  C   UNL     1      33.257 -22.328 -17.681  0.00  0.00    +0.205 C 
ATOM      7  C   UNL     1      33.381 -21.443 -18.858  0.00  0.00    +0.080 C 
ATOM      8  C   UNL     1      34.449 -23.281 -15.709  0.00  0.00    +0.143 C 
ATOM      9  C   UNL     1      36.765 -21.883 -16.424  0.00  0.00    +0.074 C 
ATOM     10  C   UNL     1      36.758 -22.695 -15.290  0.00  0.00    +0.140 C 
ATOM     11  C   UNL     1      35.604 -23.393 -14.934  0.00  0.00    +0.073 C 
ENDROOT
BRANCH   5  12
ATOM     12  C   UNL     1      34.729 -19.927 -20.256  0.00  0.00    +0.038 C 
ATOM     13  C   UNL     1      35.978 -19.358 -20.515  0.00  0.00    +0.043 C 
ATOM     14  C   UNL     1      33.649 -19.637 -21.093  0.00  0.00    +0.006 C 
ATOM     15  C   UNL     1      36.146 -18.506 -21.606  0.00  0.00    +0.168 C 
ATOM     16  C   UNL     1      33.817 -18.784 -22.184  0.00  0.00    +0.040 C 
ATOM     17  C   UNL     1      35.066 -18.219 -22.441  0.00  0.00    +0.167 C 
BRANCH  15  18
ATOM     18  O   UNL     1      37.371 -17.958 -21.847  0.00  0.00    -0.503 OA
ATOM     19  H   UNL     1      37.484 -17.362 -22.561  0.00  0.00    +0.292 HD
ENDBRANCH  15  18
BRANCH  17  20
ATOM     20  O   UNL     1      35.218 -17.389 -23.510  0.00  0.00    -0.503 OA
ATOM     21  H   UNL     1      35.484 -17.736 -24.339  0.00  0.00    +0.292 HD
ENDBRANCH  17  20
ENDBRANCH   5  12
BRANCH   8  22
ATOM     22  O   UNL     1      33.349 -23.982 -15.318  0.00  0.00    -0.505 OA
ATOM     23  H   UNL     1      32.834 -24.440 -15.955  0.00  0.00    +0.292 HD
ENDBRANCH   8  22
BRANCH  10  24
ATOM     24  O   UNL     1      37.882 -22.807 -14.528  0.00  0.00    -0.505 OA
ATOM     25  H   UNL     1      38.461 -23.533 -14.654  0.00  0.00    +0.292 HD
ENDBRANCH  10  24
TORSDOF 5
ENDMDL
MODEL 5
REMARK VINA RESULT:     -10.5      4.586     10.345
REMARK  Name = 5280445
REMARK  5 active torsions:
REMARK  status: ('A' for Active; 'I' for Inactive)
REMARK    1  A    between atoms: C_5  and  C_12
REMARK    2  A    between atoms: C_8  and  O_22
REMARK    3  A    between atoms: C_10  and  O_24
REMARK    4  A    between atoms: C_15  and  O_18
REMARK    5  A    between atoms: C_17  and  O_20
REMARK                            x       y       z     vdW  Elec       q    Type
REMARK                         _______ _______ _______ _____ _____    ______ ____
ROOT
ATOM      1  O   UNL     1      36.063 -23.292 -15.725  0.00  0.00    -0.453 OA
ATOM      2  O   UNL     1      33.153 -23.404 -12.875  0.00  0.00    -0.286 OA
ATOM      3  C   UNL     1      35.345 -24.008 -13.519  0.00  0.00    +0.107 C 
ATOM      4  C   UNL     1      36.296 -23.932 -14.535  0.00  0.00    +0.154 C 
ATOM      5  C   UNL     1      34.824 -22.703 -15.928  0.00  0.00    +0.149 C 
ATOM      6  C   UNL     1      34.032 -23.377 -13.725  0.00  0.00    +0.205 C 
ATOM      7  C   UNL     1      33.830 -22.704 -15.025  0.00  0.00    +0.080 C 
ATOM      8  C   UNL     1      35.639 -24.673 -12.326  0.00  0.00    +0.143 C 
ATOM      9  C   UNL     1      37.549 -24.520 -14.364  0.00  0.00    +0.074 C 
ATOM     10  C   UNL     1      37.846 -25.185 -13.173  0.00  0.00    +0.140 C 
ATOM     11  C   UNL     1      36.893 -25.261 -12.157  0.00  0.00    +0.073 C 
ENDROOT
BRANCH   5  12
ATOM     12  C   UNL     1      34.681 -22.038 -17.239  0.00  0.00    +0.038 C 
ATOM     13  C   UNL     1      33.444 -22.020 -17.886  0.00  0.00    +0.043 C 
ATOM     14  C   UNL     1      35.784 -21.425 -17.837  0.00  0.00    +0.006 C 
ATOM     15  C   UNL     1      33.309 -21.392 -19.123  0.00  0.00    +0.168 C 
ATOM     16  C   UNL     1      35.650 -20.796 -19.076  0.00  0.00    +0.040 C 
ATOM     17  C   UNL     1      34.413 -20.780 -19.718  0.00  0.00    +0.167 C 
BRANCH  15  18
ATOM     18  O   UNL     1      32.096 -21.383 -19.743  0.00  0.00    -0.503 OA
ATOM     19  H   UNL     1      31.997 -21.783 -20.585  0.00  0.00    +0.292 HD
ENDBRANCH  15  18
BRANCH  17  20
ATOM     20  O   UNL     1      34.294 -20.162 -20.927  0.00  0.00    -0.503 OA
ATOM     21  H   UNL     1      33.590 -19.563 -21.080  0.00  0.00    +0.292 HD
ENDBRANCH  17  20
ENDBRANCH   5  12
BRANCH   8  22
ATOM     22  O   UNL     1      34.744 -24.776 -11.303  0.00  0.00    -0.505 OA
ATOM     23  H   UNL     1      35.042 -24.741 -10.415  0.00  0.00    +0.292 HD
ENDBRANCH   8  22
BRANCH  10  24
ATOM     24  O   UNL     1      39.068 -25.760 -13.002  0.00  0.00    -0.505 OA
ATOM     25  H   UNL     1      39.338 -26.460 -13.564  0.00  0.00    +0.292 HD
ENDBRANCH  10  24
TORSDOF 5
ENDMDL
MODEL 6
REMARK VINA RESULT:     -10.5      4.270      7.266
REMARK  Name = 5280445
REMARK  5 active torsions:
REMARK  status: ('A' for Active; 'I' for Inactive)
REMARK    1  A    between atoms: C_5  and  C_12
REMARK    2  A    between atoms: C_8  and  O_22
REMARK    3  A    between atoms: C_10  and  O_24
REMARK    4  A    between atoms: C_15  and  O_18
REMARK    5  A    between atoms: C_17  and  O_20
REMARK                            x       y       z     vdW  Elec       q    Type
REMARK                         _______ _______ _______ _____ _____    ______ ____
ROOT
ATOM      1  O   UNL     1      35.529 -22.205 -16.767  0.00  0.00    -0.453 OA
ATOM      2  O   UNL     1      31.555 -22.503 -17.617  0.00  0.00    -0.286 OA
ATOM      3  C   UNL     1      33.674 -21.660 -18.237  0.00  0.00    +0.107 C 
ATOM      4  C   UNL     1      35.022 -21.598 -17.889  0.00  0.00    +0.154 C 
ATOM      5  C   UNL     1      34.659 -22.902 -15.942  0.00  0.00    +0.149 C 
ATOM      6  C   UNL     1      32.749 -22.406 -17.370  0.00  0.00    +0.205 C 
ATOM      7  C   UNL     1      33.344 -23.038 -16.174  0.00  0.00    +0.080 C 
ATOM      8  C   UNL     1      33.214 -21.023 -19.392  0.00  0.00    +0.143 C 
ATOM      9  C   UNL     1      35.921 -20.899 -18.694  0.00  0.00    +0.074 C 
ATOM     10  C   UNL     1      35.465 -20.263 -19.849  0.00  0.00    +0.140 C 
ATOM     11  C   UNL     1      34.115 -20.324 -20.197  0.00  0.00    +0.073 C 
ENDROOT
BRANCH   5  12
ATOM     12  C   UNL     1      35.309 -23.519 -14.768  0.00  0.00    +0.038 C 
ATOM     13  C   UNL     1      34.576 -23.750 -13.602  0.00  0.00    +0.043 C 
ATOM     14  C   UNL     1      36.659 -23.873 -14.820  0.00  0.00    +0.006 C 
ATOM     15  C   UNL     1      35.189 -24.333 -12.493  0.00  0.00    +0.168 C 
ATOM     16  C   UNL     1      37.273 -24.456 -13.710  0.00  0.00    +0.040 C 
ATOM     17  C   UNL     1      36.538 -24.686 -12.548  0.00  0.00    +0.167 C 
BRANCH  15  18
ATOM     18  O   UNL     1      34.462 -24.552 -11.362  0.00  0.00    -0.503 OA
ATOM     19  H   UNL     1      34.238 -25.427 -11.112  0.00  0.00    +0.292 HD
ENDBRANCH  15  18
BRANCH  17  20
ATOM     20  O   UNL     1      37.148 -25.257 -11.472  0.00  0.00    -0.503 OA
ATOM     21  H   UNL     1      37.658 -24.730 -10.888  0.00  0.00    +0.292 HD
ENDBRANCH  17  20
ENDBRANCH   5  12
BRANCH   8  22
ATOM     22  O   UNL     1      31.908 -21.054 -19.776  0.00  0.00    -0.505 OA
ATOM     23  H   UNL     1      31.306 -20.417 -19.442  0.00  0.00    +0.292 HD
ENDBRANCH   8  22
BRANCH  10  24
ATOM     24  O   UNL     1      36.339 -19.579 -20.638  0.00  0.00    -0.505 OA
ATOM     25  H   UNL     1      36.165 -18.687 -20.865  0.00  0.00    +0.292 HD
ENDBRANCH  10  24
TORSDOF 5
ENDMDL
MODEL 7
REMARK VINA RESULT:     -10.4      1.601      2.322
REMARK  Name = 5280445
REMARK  5 active torsions:
REMARK  status: ('A' for Active; 'I' for Inactive)
REMARK    1  A    between atoms: C_5  and  C_12
REMARK    2  A    between atoms: C_8  and  O_22
REMARK    3  A    between atoms: C_10  and  O_24
REMARK    4  A    between atoms: C_15  and  O_18
REMARK    5  A    between atoms: C_17  and  O_20
REMARK                            x       y       z     vdW  Elec       q    Type
REMARK                         _______ _______ _______ _____ _____    ______ ____
ROOT
ATOM      1  O   UNL     1      33.912 -15.666 -21.418  0.00  0.00    -0.453 OA
ATOM      2  O   UNL     1      33.851 -15.419 -25.485  0.00  0.00    -0.286 OA
ATOM      3  C   UNL     1      33.414 -14.372 -23.412  0.00  0.00    +0.107 C 
ATOM      4  C   UNL     1      33.462 -14.522 -22.027  0.00  0.00    +0.154 C 
ATOM      5  C   UNL     1      34.329 -16.720 -22.217  0.00  0.00    +0.149 C 
ATOM      6  C   UNL     1      33.863 -15.484 -24.263  0.00  0.00    +0.205 C 
ATOM      7  C   UNL     1      34.336 -16.694 -23.559  0.00  0.00    +0.080 C 
ATOM      8  C   UNL     1      32.946 -13.183 -23.977  0.00  0.00    +0.143 C 
ATOM      9  C   UNL     1      33.043 -13.482 -21.197  0.00  0.00    +0.074 C 
ATOM     10  C   UNL     1      32.575 -12.293 -21.758  0.00  0.00    +0.140 C 
ATOM     11  C   UNL     1      32.527 -12.144 -23.145  0.00  0.00    +0.073 C 
ENDROOT
BRANCH   5  12
ATOM     12  C   UNL     1      34.798 -17.898 -21.460  0.00  0.00    +0.038 C 
ATOM     13  C   UNL     1      33.880 -18.838 -20.986  0.00  0.00    +0.043 C 
ATOM     14  C   UNL     1      36.161 -18.076 -21.215  0.00  0.00    +0.006 C 
ATOM     15  C   UNL     1      34.324 -19.951 -20.271  0.00  0.00    +0.168 C 
ATOM     16  C   UNL     1      36.605 -19.189 -20.500  0.00  0.00    +0.040 C 
ATOM     17  C   UNL     1      35.686 -20.127 -20.029  0.00  0.00    +0.167 C 
BRANCH  15  18
ATOM     18  O   UNL     1      33.417 -20.859 -19.814  0.00  0.00    -0.503 OA
ATOM     19  H   UNL     1      32.501 -20.721 -19.959  0.00  0.00    +0.292 HD
ENDBRANCH  15  18
BRANCH  17  20
ATOM     20  O   UNL     1      36.131 -21.210 -19.333  0.00  0.00    -0.503 OA
ATOM     21  H   UNL     1      35.936 -22.074 -19.637  0.00  0.00    +0.292 HD
ENDBRANCH  17  20
ENDBRANCH   5  12
BRANCH   8  22
ATOM     22  O   UNL     1      32.879 -12.987 -25.323  0.00  0.00    -0.505 OA
ATOM     23  H   UNL     1      33.654 -12.771 -25.805  0.00  0.00    +0.292 HD
ENDBRANCH   8  22
BRANCH  10  24
ATOM     24  O   UNL     1      32.166 -11.276 -20.951  0.00  0.00    -0.505 OA
ATOM     25  H   UNL     1      31.269 -11.006 -20.957  0.00  0.00    +0.292 HD
ENDBRANCH  10  24
TORSDOF 5
ENDMDL
MODEL 8
REMARK VINA RESULT:     -10.4      1.560      7.331
REMARK  Name = 5280445
REMARK  5 active torsions:
REMARK  status: ('A' for Active; 'I' for Inactive)
REMARK    1  A    between atoms: C_5  and  C_12
REMARK    2  A    between atoms: C_8  and  O_22
REMARK    3  A    between atoms: C_10  and  O_24
REMARK    4  A    between atoms: C_15  and  O_18
REMARK    5  A    between atoms: C_17  and  O_20
REMARK                            x       y       z     vdW  Elec       q    Type
REMARK                         _______ _______ _______ _____ _____    ______ ____
ROOT
ATOM      1  O   UNL     1      33.060 -19.953 -20.280  0.00  0.00    -0.453 OA
ATOM      2  O   UNL     1      36.563 -21.288 -18.683  0.00  0.00    -0.286 OA
ATOM      3  C   UNL     1      34.201 -21.293 -18.607  0.00  0.00    +0.107 C 
ATOM      4  C   UNL     1      33.040 -20.800 -19.201  0.00  0.00    +0.154 C 
ATOM      5  C   UNL     1      34.288 -19.565 -20.794  0.00  0.00    +0.149 C 
ATOM      6  C   UNL     1      35.506 -20.892 -19.154  0.00  0.00    +0.205 C 
ATOM      7  C   UNL     1      35.472 -19.976 -20.313  0.00  0.00    +0.080 C 
ATOM      8  C   UNL     1      34.121 -22.154 -17.509  0.00  0.00    +0.143 C 
ATOM      9  C   UNL     1      31.791 -21.167 -18.702  0.00  0.00    +0.074 C 
ATOM     10  C   UNL     1      31.707 -22.027 -17.607  0.00  0.00    +0.140 C 
ATOM     11  C   UNL     1      32.869 -22.519 -17.012  0.00  0.00    +0.073 C 
ENDROOT
BRANCH   5  12
ATOM     12  C   UNL     1      34.193 -18.658 -21.956  0.00  0.00    +0.038 C 
ATOM     13  C   UNL     1      34.598 -17.326 -21.841  0.00  0.00    +0.043 C 
ATOM     14  C   UNL     1      33.698 -19.128 -23.174  0.00  0.00    +0.006 C 
ATOM     15  C   UNL     1      34.509 -16.470 -22.938  0.00  0.00    +0.168 C 
ATOM     16  C   UNL     1      33.608 -18.272 -24.271  0.00  0.00    +0.040 C 
ATOM     17  C   UNL     1      34.014 -16.943 -24.154  0.00  0.00    +0.167 C 
BRANCH  15  18
ATOM     18  O   UNL     1      34.908 -15.173 -22.811  0.00  0.00    -0.503 OA
ATOM     19  H   UNL     1      34.329 -14.541 -22.431  0.00  0.00    +0.292 HD
ENDBRANCH  15  18
BRANCH  17  20
ATOM     20  O   UNL     1      33.923 -16.116 -25.232  0.00  0.00    -0.503 OA
ATOM     21  H   UNL     1      34.577 -16.147 -25.903  0.00  0.00    +0.292 HD
ENDBRANCH  17  20
ENDBRANCH   5  12
BRANCH   8  22
ATOM     22  O   UNL     1      35.224 -22.662 -16.893  0.00  0.00    -0.505 OA
ATOM     23  H   UNL     1      35.233 -23.556 -16.608  0.00  0.00    +0.292 HD
ENDBRANCH   8  22
BRANCH  10  24
ATOM     24  O   UNL     1      30.488 -22.387 -17.117  0.00  0.00    -0.505 OA
ATOM     25  H   UNL     1      30.166 -23.255 -17.259  0.00  0.00    +0.292 HD
ENDBRANCH  10  24
TORSDOF 5
ENDMDL
MODEL 9
REMARK VINA RESULT:     -10.3      2.933      4.876
REMARK  Name = 5280445
REMARK  5 active torsions:
REMARK  status: ('A' for Active; 'I' for Inactive)
REMARK    1  A    between atoms: C_5  and  C_12
REMARK    2  A    between atoms: C_8  and  O_22
REMARK    3  A    between atoms: C_10  and  O_24
REMARK    4  A    between atoms: C_15  and  O_18
REMARK    5  A    between atoms: C_17  and  O_20
REMARK                            x       y       z     vdW  Elec       q    Type
REMARK                         _______ _______ _______ _____ _____    ______ ____
ROOT
ATOM      1  O   UNL     1      35.587 -20.706 -18.762  0.00  0.00    -0.453 OA
ATOM      2  O   UNL     1      31.921 -20.531 -20.533  0.00  0.00    -0.286 OA
ATOM      3  C   UNL     1      34.191 -19.874 -20.567  0.00  0.00    +0.107 C 
ATOM      4  C   UNL     1      35.417 -19.976 -19.911  0.00  0.00    +0.154 C 
ATOM      5  C   UNL     1      34.488 -21.362 -18.227  0.00  0.00    +0.149 C 
ATOM      6  C   UNL     1      33.026 -20.576 -20.008  0.00  0.00    +0.205 C 
ATOM      7  C   UNL     1      33.260 -21.345 -18.769  0.00  0.00    +0.080 C 
ATOM      8  C   UNL     1      34.078 -19.116 -21.735  0.00  0.00    +0.143 C 
ATOM      9  C   UNL     1      36.539 -19.322 -20.420  0.00  0.00    +0.074 C 
ATOM     10  C   UNL     1      36.428 -18.565 -21.587  0.00  0.00    +0.140 C 
ATOM     11  C   UNL     1      35.201 -18.462 -22.243  0.00  0.00    +0.073 C 
ENDROOT
BRANCH   5  12
ATOM     12  C   UNL     1      34.783 -22.121 -16.994  0.00  0.00    +0.038 C 
ATOM     13  C   UNL     1      36.060 -22.076 -16.432  0.00  0.00    +0.043 C 
ATOM     14  C   UNL     1      33.785 -22.887 -16.388  0.00  0.00    +0.006 C 
ATOM     15  C   UNL     1      36.338 -22.793 -15.268  0.00  0.00    +0.168 C 
ATOM     16  C   UNL     1      34.063 -23.604 -15.223  0.00  0.00    +0.040 C 
ATOM     17  C   UNL     1      35.340 -23.557 -14.663  0.00  0.00    +0.167 C 
BRANCH  15  18
ATOM     18  O   UNL     1      37.590 -22.740 -14.730  0.00  0.00    -0.503 OA
ATOM     19  H   UNL     1      38.060 -23.533 -14.561  0.00  0.00    +0.292 HD
ENDBRANCH  15  18
BRANCH  17  20
ATOM     20  O   UNL     1      35.599 -24.260 -13.526  0.00  0.00    -0.503 OA
ATOM     21  H   UNL     1      35.462 -23.864 -12.688  0.00  0.00    +0.292 HD
ENDBRANCH  17  20
ENDBRANCH   5  12
BRANCH   8  22
ATOM     22  O   UNL     1      32.903 -18.985 -22.413  0.00  0.00    -0.505 OA
ATOM     23  H   UNL     1      32.887 -19.079 -23.346  0.00  0.00    +0.292 HD
ENDBRANCH   8  22
BRANCH  10  24
ATOM     24  O   UNL     1      37.521 -17.925 -22.088  0.00  0.00    -0.505 OA
ATOM     25  H   UNL     1      37.425 -17.319 -22.795  0.00  0.00    +0.292 HD
ENDBRANCH  10  24
TORSDOF 5
ENDMDL
