MODEL 1
REMARK VINA RESULT:     -11.6      0.000      0.000
REMARK  Name = 11197931
REMARK  3 active torsions:
REMARK  status: ('A' for Active; 'I' for Inactive)
REMARK    1  A    between atoms: C_9  and  C_16
REMARK    2  A    between atoms: C_14  and  O_24
REMARK    3  A    between atoms: C_21  and  O_22
REMARK                            x       y       z     vdW  Elec       q    Type
REMARK                         _______ _______ _______ _____ _____    ______ ____
ROOT
ATOM      1  F   UNL     1      31.816 -18.535 -25.008  0.00  0.00    -0.204 F 
ATOM      2  F   UNL     1      33.858 -19.250 -25.271  0.00  0.00    -0.204 F 
ATOM      3  O   UNL     1      33.947 -16.877 -20.725  0.00  0.00    -0.475 OA
ATOM      4  C   UNL     1      34.577 -18.084 -22.767  0.00  0.00    +0.054 C 
ATOM      5  C   UNL     1      34.607 -16.773 -23.585  0.00  0.00    +0.035 C 
ATOM      6  C   UNL     1      33.202 -18.684 -23.088  0.00  0.00    +0.071 C 
ATOM      7  C   UNL     1      33.587 -16.976 -24.730  0.00  0.00    +0.071 C 
ATOM      8  C   UNL     1      33.079 -18.396 -24.566  0.00  0.00    +0.264 C 
ATOM      9  C   UNL     1      34.860 -17.832 -21.283  0.00  0.00    +0.188 C 
ATOM     10  C   UNL     1      34.277 -15.559 -22.746  0.00  0.00    +0.015 C 
ATOM     11  C   UNL     1      33.954 -15.677 -21.388  0.00  0.00    +0.135 C 
ATOM     12  C   UNL     1      34.280 -14.281 -23.328  0.00  0.00    +0.035 C 
ATOM     13  C   UNL     1      33.586 -14.554 -20.643  0.00  0.00    +0.040 C 
ATOM     14  C   UNL     1      33.934 -13.156 -22.578  0.00  0.00    +0.134 C 
ATOM     15  C   UNL     1      33.579 -13.294 -21.239  0.00  0.00    +0.040 C 
ENDROOT
BRANCH   9  16
ATOM     16  C   UNL     1      34.835 -19.112 -20.468  0.00  0.00    +0.017 C 
ATOM     17  C   UNL     1      33.624 -19.760 -20.227  0.00  0.00    +0.002 C 
ATOM     18  C   UNL     1      36.022 -19.638 -19.961  0.00  0.00    +0.002 C 
ATOM     19  C   UNL     1      33.600 -20.936 -19.477  0.00  0.00    +0.036 C 
ATOM     20  C   UNL     1      35.999 -20.814 -19.212  0.00  0.00    +0.036 C 
ATOM     21  C   UNL     1      34.788 -21.463 -18.970  0.00  0.00    +0.134 C 
BRANCH  21  22
ATOM     22  O   UNL     1      34.765 -22.611 -18.238  0.00  0.00    -0.506 OA
ATOM     23  H   UNL     1      35.469 -22.805 -17.651  0.00  0.00    +0.292 HD
ENDBRANCH  21  22
ENDBRANCH   9  16
BRANCH  14  24
ATOM     24  O   UNL     1      33.935 -11.925 -23.160  0.00  0.00    -0.506 OA
ATOM     25  H   UNL     1      33.697 -11.833 -24.061  0.00  0.00    +0.292 HD
ENDBRANCH  14  24
TORSDOF 3
ENDMDL
MODEL 2
REMARK VINA RESULT:     -11.0      5.636      9.916
REMARK  Name = 11197931
REMARK  3 active torsions:
REMARK  status: ('A' for Active; 'I' for Inactive)
REMARK    1  A    between atoms: C_9  and  C_16
REMARK    2  A    between atoms: C_14  and  O_24
REMARK    3  A    between atoms: C_21  and  O_22
REMARK                            x       y       z     vdW  Elec       q    Type
REMARK                         _______ _______ _______ _____ _____    ______ ____
ROOT
ATOM      1  F   UNL     1      36.454 -22.039 -13.484  0.00  0.00    -0.204 F 
ATOM      2  F   UNL     1      36.937 -23.540 -14.988  0.00  0.00    -0.204 F 
ATOM      3  O   UNL     1      32.227 -21.966 -16.269  0.00  0.00    -0.475 OA
ATOM      4  C   UNL     1      34.375 -23.150 -16.184  0.00  0.00    +0.054 C 
ATOM      5  C   UNL     1      33.889 -24.037 -15.015  0.00  0.00    +0.035 C 
ATOM      6  C   UNL     1      35.193 -22.051 -15.493  0.00  0.00    +0.071 C 
ATOM      7  C   UNL     1      34.887 -23.784 -13.860  0.00  0.00    +0.071 C 
ATOM      8  C   UNL     1      35.925 -22.835 -14.429  0.00  0.00    +0.264 C 
ATOM      9  C   UNL     1      33.208 -22.664 -17.049  0.00  0.00    +0.188 C 
ATOM     10  C   UNL     1      32.466 -23.729 -14.607  0.00  0.00    +0.015 C 
ATOM     11  C   UNL     1      31.730 -22.716 -15.235  0.00  0.00    +0.135 C 
ATOM     12  C   UNL     1      31.859 -24.459 -13.572  0.00  0.00    +0.035 C 
ATOM     13  C   UNL     1      30.441 -22.399 -14.803  0.00  0.00    +0.040 C 
ATOM     14  C   UNL     1      30.562 -24.156 -13.154  0.00  0.00    +0.134 C 
ATOM     15  C   UNL     1      29.856 -23.122 -13.764  0.00  0.00    +0.040 C 
ENDROOT
BRANCH   9  16
ATOM     16  C   UNL     1      33.672 -21.793 -18.202  0.00  0.00    +0.017 C 
ATOM     17  C   UNL     1      35.034 -21.661 -18.469  0.00  0.00    +0.002 C 
ATOM     18  C   UNL     1      32.736 -21.126 -18.991  0.00  0.00    +0.002 C 
ATOM     19  C   UNL     1      35.461 -20.859 -19.528  0.00  0.00    +0.036 C 
ATOM     20  C   UNL     1      33.162 -20.326 -20.051  0.00  0.00    +0.036 C 
ATOM     21  C   UNL     1      34.525 -20.192 -20.319  0.00  0.00    +0.134 C 
BRANCH  21  22
ATOM     22  O   UNL     1      34.942 -19.410 -21.353  0.00  0.00    -0.506 OA
ATOM     23  H   UNL     1      35.476 -19.776 -22.030  0.00  0.00    +0.292 HD
ENDBRANCH  21  22
ENDBRANCH   9  16
BRANCH  14  24
ATOM     24  O   UNL     1      29.990 -24.869 -12.144  0.00  0.00    -0.506 OA
ATOM     25  H   UNL     1      30.284 -25.739 -11.959  0.00  0.00    +0.292 HD
ENDBRANCH  14  24
TORSDOF 3
ENDMDL
MODEL 3
REMARK VINA RESULT:     -10.5      6.419      9.331
REMARK  Name = 11197931
REMARK  3 active torsions:
REMARK  status: ('A' for Active; 'I' for Inactive)
REMARK    1  A    between atoms: C_9  and  C_16
REMARK    2  A    between atoms: C_14  and  O_24
REMARK    3  A    between atoms: C_21  and  O_22
REMARK                            x       y       z     vdW  Elec       q    Type
REMARK                         _______ _______ _______ _____ _____    ______ ____
ROOT
ATOM      1  F   UNL     1      36.185 -25.703 -14.963  0.00  0.00    -0.204 F 
ATOM      2  F   UNL     1      35.624 -24.431 -13.285  0.00  0.00    -0.204 F 
ATOM      3  O   UNL     1      32.466 -22.980 -17.058  0.00  0.00    -0.475 OA
ATOM      4  C   UNL     1      33.659 -23.160 -14.920  0.00  0.00    +0.054 C 
ATOM      5  C   UNL     1      34.878 -22.396 -15.486  0.00  0.00    +0.035 C 
ATOM      6  C   UNL     1      34.068 -24.634 -15.033  0.00  0.00    +0.071 C 
ATOM      7  C   UNL     1      36.079 -23.358 -15.329  0.00  0.00    +0.071 C 
ATOM      8  C   UNL     1      35.523 -24.582 -14.627  0.00  0.00    +0.264 C 
ATOM      9  C   UNL     1      32.364 -22.774 -15.642  0.00  0.00    +0.188 C 
ATOM     10  C   UNL     1      34.680 -21.973 -16.924  0.00  0.00    +0.015 C 
ATOM     11  C   UNL     1      33.511 -22.297 -17.625  0.00  0.00    +0.135 C 
ATOM     12  C   UNL     1      35.683 -21.248 -17.588  0.00  0.00    +0.035 C 
ATOM     13  C   UNL     1      33.371 -21.957 -18.973  0.00  0.00    +0.040 C 
ATOM     14  C   UNL     1      35.533 -20.890 -18.928  0.00  0.00    +0.134 C 
ATOM     15  C   UNL     1      34.382 -21.251 -19.622  0.00  0.00    +0.040 C 
ENDROOT
BRANCH   9  16
ATOM     16  C   UNL     1      31.159 -23.517 -15.095  0.00  0.00    +0.017 C 
ATOM     17  C   UNL     1      30.042 -23.722 -15.904  0.00  0.00    +0.002 C 
ATOM     18  C   UNL     1      31.170 -23.991 -13.784  0.00  0.00    +0.002 C 
ATOM     19  C   UNL     1      28.933 -24.403 -15.401  0.00  0.00    +0.036 C 
ATOM     20  C   UNL     1      30.062 -24.673 -13.281  0.00  0.00    +0.036 C 
ATOM     21  C   UNL     1      28.943 -24.879 -14.090  0.00  0.00    +0.134 C 
BRANCH  21  22
ATOM     22  O   UNL     1      27.862 -25.544 -13.598  0.00  0.00    -0.506 OA
ATOM     23  H   UNL     1      27.198 -25.855 -14.183  0.00  0.00    +0.292 HD
ENDBRANCH  21  22
ENDBRANCH   9  16
BRANCH  14  24
ATOM     24  O   UNL     1      36.519 -20.193 -19.559  0.00  0.00    -0.506 OA
ATOM     25  H   UNL     1      37.088 -19.635 -19.066  0.00  0.00    +0.292 HD
ENDBRANCH  14  24
TORSDOF 3
ENDMDL
MODEL 4
REMARK VINA RESULT:     -10.3      5.922     10.667
REMARK  Name = 11197931
REMARK  3 active torsions:
REMARK  status: ('A' for Active; 'I' for Inactive)
REMARK    1  A    between atoms: C_9  and  C_16
REMARK    2  A    between atoms: C_14  and  O_24
REMARK    3  A    between atoms: C_21  and  O_22
REMARK                            x       y       z     vdW  Elec       q    Type
REMARK                         _______ _______ _______ _____ _____    ______ ____
ROOT
ATOM      1  F   UNL     1      30.904 -24.173 -14.445  0.00  0.00    -0.204 F 
ATOM      2  F   UNL     1      31.266 -22.057 -14.071  0.00  0.00    -0.204 F 
ATOM      3  O   UNL     1      35.724 -23.771 -15.939  0.00  0.00    -0.475 OA
ATOM      4  C   UNL     1      33.952 -22.367 -14.984  0.00  0.00    +0.054 C 
ATOM      5  C   UNL     1      34.176 -22.966 -13.577  0.00  0.00    +0.035 C 
ATOM      6  C   UNL     1      32.750 -23.149 -15.527  0.00  0.00    +0.071 C 
ATOM      7  C   UNL     1      32.816 -23.578 -13.167  0.00  0.00    +0.071 C 
ATOM      8  C   UNL     1      31.868 -23.247 -14.304  0.00  0.00    +0.264 C 
ATOM      9  C   UNL     1      35.224 -22.431 -15.835  0.00  0.00    +0.188 C 
ATOM     10  C   UNL     1      35.285 -23.993 -13.554  0.00  0.00    +0.015 C 
ATOM     11  C   UNL     1      35.977 -24.346 -14.720  0.00  0.00    +0.135 C 
ATOM     12  C   UNL     1      35.635 -24.622 -12.348  0.00  0.00    +0.035 C 
ATOM     13  C   UNL     1      36.953 -25.344 -14.695  0.00  0.00    +0.040 C 
ATOM     14  C   UNL     1      36.626 -25.604 -12.319  0.00  0.00    +0.134 C 
ATOM     15  C   UNL     1      37.279 -25.971 -13.493  0.00  0.00    +0.040 C 
ENDROOT
BRANCH   9  16
ATOM     16  C   UNL     1      35.019 -21.844 -17.220  0.00  0.00    +0.017 C 
ATOM     17  C   UNL     1      36.077 -21.211 -17.871  0.00  0.00    +0.002 C 
ATOM     18  C   UNL     1      33.772 -21.938 -17.837  0.00  0.00    +0.002 C 
ATOM     19  C   UNL     1      35.888 -20.670 -19.143  0.00  0.00    +0.036 C 
ATOM     20  C   UNL     1      33.584 -21.398 -19.110  0.00  0.00    +0.036 C 
ATOM     21  C   UNL     1      34.642 -20.764 -19.762  0.00  0.00    +0.134 C 
BRANCH  21  22
ATOM     22  O   UNL     1      34.457 -20.237 -21.004  0.00  0.00    -0.506 OA
ATOM     23  H   UNL     1      35.195 -20.081 -21.561  0.00  0.00    +0.292 HD
ENDBRANCH  21  22
ENDBRANCH   9  16
BRANCH  14  24
ATOM     24  O   UNL     1      36.948 -26.210 -11.143  0.00  0.00    -0.506 OA
ATOM     25  H   UNL     1      36.974 -27.145 -11.089  0.00  0.00    +0.292 HD
ENDBRANCH  14  24
TORSDOF 3
ENDMDL
MODEL 5
REMARK VINA RESULT:      -9.9      7.479     10.872
REMARK  Name = 11197931
REMARK  3 active torsions:
REMARK  status: ('A' for Active; 'I' for Inactive)
REMARK    1  A    between atoms: C_9  and  C_16
REMARK    2  A    between atoms: C_14  and  O_24
REMARK    3  A    between atoms: C_21  and  O_22
REMARK                            x       y       z     vdW  Elec       q    Type
REMARK                         _______ _______ _______ _____ _____    ______ ____
ROOT
ATOM      1  F   UNL     1      32.816  -5.714 -19.257  0.00  0.00    -0.204 F 
ATOM      2  F   UNL     1      30.888  -6.697 -19.004  0.00  0.00    -0.204 F 
ATOM      3  O   UNL     1      32.232  -7.816 -23.826  0.00  0.00    -0.475 OA
ATOM      4  C   UNL     1      31.018  -7.622 -21.701  0.00  0.00    +0.054 C 
ATOM      5  C   UNL     1      30.581  -6.177 -22.033  0.00  0.00    +0.035 C 
ATOM      6  C   UNL     1      32.232  -7.434 -20.783  0.00  0.00    +0.071 C 
ATOM      7  C   UNL     1      31.134  -5.303 -20.883  0.00  0.00    +0.071 C 
ATOM      8  C   UNL     1      31.790  -6.275 -19.921  0.00  0.00    +0.264 C 
ATOM      9  C   UNL     1      31.267  -8.444 -22.970  0.00  0.00    +0.188 C 
ATOM     10  C   UNL     1      31.083  -5.715 -23.382  0.00  0.00    +0.015 C 
ATOM     11  C   UNL     1      31.881  -6.540 -24.185  0.00  0.00    +0.135 C 
ATOM     12  C   UNL     1      30.758  -4.432 -23.851  0.00  0.00    +0.035 C 
ATOM     13  C   UNL     1      32.392  -6.075 -25.398  0.00  0.00    +0.040 C 
ATOM     14  C   UNL     1      31.251  -3.975 -25.074  0.00  0.00    +0.134 C 
ATOM     15  C   UNL     1      32.074  -4.793 -25.843  0.00  0.00    +0.040 C 
ENDROOT
BRANCH   9  16
ATOM     16  C   UNL     1      31.696  -9.866 -22.658  0.00  0.00    +0.017 C 
ATOM     17  C   UNL     1      32.747 -10.447 -23.367  0.00  0.00    +0.002 C 
ATOM     18  C   UNL     1      31.038 -10.589 -21.664  0.00  0.00    +0.002 C 
ATOM     19  C   UNL     1      33.140 -11.754 -23.081  0.00  0.00    +0.036 C 
ATOM     20  C   UNL     1      31.432 -11.896 -21.378  0.00  0.00    +0.036 C 
ATOM     21  C   UNL     1      32.483 -12.479 -22.087  0.00  0.00    +0.134 C 
BRANCH  21  22
ATOM     22  O   UNL     1      32.867 -13.755 -21.808  0.00  0.00    -0.506 OA
ATOM     23  H   UNL     1      33.762 -14.009 -21.920  0.00  0.00    +0.292 HD
ENDBRANCH  21  22
ENDBRANCH   9  16
BRANCH  14  24
ATOM     24  O   UNL     1      30.932  -2.725 -25.510  0.00  0.00    -0.506 OA
ATOM     25  H   UNL     1      31.308  -2.395 -26.303  0.00  0.00    +0.292 HD
ENDBRANCH  14  24
TORSDOF 3
ENDMDL
MODEL 6
REMARK VINA RESULT:      -9.5      7.873     10.099
REMARK  Name = 11197931
REMARK  3 active torsions:
REMARK  status: ('A' for Active; 'I' for Inactive)
REMARK    1  A    between atoms: C_9  and  C_16
REMARK    2  A    between atoms: C_14  and  O_24
REMARK    3  A    between atoms: C_21  and  O_22
REMARK                            x       y       z     vdW  Elec       q    Type
REMARK                         _______ _______ _______ _____ _____    ______ ____
ROOT
ATOM      1  F   UNL     1      33.339 -23.192 -18.902  0.00  0.00    -0.204 F 
ATOM      2  F   UNL     1      34.132 -21.525 -17.744  0.00  0.00    -0.204 F 
ATOM      3  O   UNL     1      32.086 -24.632 -14.213  0.00  0.00    -0.475 OA
ATOM      4  C   UNL     1      33.178 -22.750 -15.349  0.00  0.00    +0.054 C 
ATOM      5  C   UNL     1      31.816 -22.181 -15.808  0.00  0.00    +0.035 C 
ATOM      6  C   UNL     1      33.687 -23.514 -16.578  0.00  0.00    +0.071 C 
ATOM      7  C   UNL     1      31.890 -22.124 -17.352  0.00  0.00    +0.071 C 
ATOM      8  C   UNL     1      33.292 -22.586 -17.703  0.00  0.00    +0.264 C 
ATOM      9  C   UNL     1      33.042 -23.574 -14.065  0.00  0.00    +0.188 C 
ATOM     10  C   UNL     1      30.648 -23.015 -15.331  0.00  0.00    +0.015 C 
ATOM     11  C   UNL     1      30.844 -24.185 -14.586  0.00  0.00    +0.135 C 
ATOM     12  C   UNL     1      29.335 -22.627 -15.642  0.00  0.00    +0.035 C 
ATOM     13  C   UNL     1      29.760 -24.980 -14.209  0.00  0.00    +0.040 C 
ATOM     14  C   UNL     1      28.250 -23.411 -15.247  0.00  0.00    +0.134 C 
ATOM     15  C   UNL     1      28.462 -24.590 -14.538  0.00  0.00    +0.040 C 
ENDROOT
BRANCH   9  16
ATOM     16  C   UNL     1      34.374 -24.138 -13.602  0.00  0.00    +0.017 C 
ATOM     17  C   UNL     1      35.176 -24.849 -14.494  0.00  0.00    +0.002 C 
ATOM     18  C   UNL     1      34.791 -23.945 -12.285  0.00  0.00    +0.002 C 
ATOM     19  C   UNL     1      36.399 -25.368 -14.068  0.00  0.00    +0.036 C 
ATOM     20  C   UNL     1      36.014 -24.463 -11.860  0.00  0.00    +0.036 C 
ATOM     21  C   UNL     1      36.818 -25.175 -12.752  0.00  0.00    +0.134 C 
BRANCH  21  22
ATOM     22  O   UNL     1      38.011 -25.682 -12.336  0.00  0.00    -0.506 OA
ATOM     23  H   UNL     1      38.743 -25.694 -12.921  0.00  0.00    +0.292 HD
ENDBRANCH  21  22
ENDBRANCH   9  16
BRANCH  14  24
ATOM     24  O   UNL     1      26.983 -23.025 -15.563  0.00  0.00    -0.506 OA
ATOM     25  H   UNL     1      26.699 -23.033 -16.456  0.00  0.00    +0.292 HD
ENDBRANCH  14  24
TORSDOF 3
ENDMDL
MODEL 7
REMARK VINA RESULT:      -9.5      3.068      4.938
REMARK  Name = 11197931
REMARK  3 active torsions:
REMARK  status: ('A' for Active; 'I' for Inactive)
REMARK    1  A    between atoms: C_9  and  C_16
REMARK    2  A    between atoms: C_14  and  O_24
REMARK    3  A    between atoms: C_21  and  O_22
REMARK                            x       y       z     vdW  Elec       q    Type
REMARK                         _______ _______ _______ _____ _____    ______ ____
ROOT
ATOM      1  F   UNL     1      31.456 -13.038 -26.543  0.00  0.00    -0.204 F 
ATOM      2  F   UNL     1      33.632 -12.947 -26.592  0.00  0.00    -0.204 F 
ATOM      3  O   UNL     1      32.516 -13.373 -21.604  0.00  0.00    -0.475 OA
ATOM      4  C   UNL     1      33.692 -13.120 -23.744  0.00  0.00    +0.054 C 
ATOM      5  C   UNL     1      33.324 -11.621 -23.820  0.00  0.00    +0.035 C 
ATOM      6  C   UNL     1      32.647 -13.799 -24.638  0.00  0.00    +0.071 C 
ATOM      7  C   UNL     1      32.536 -11.455 -25.140  0.00  0.00    +0.071 C 
ATOM      8  C   UNL     1      32.549 -12.825 -25.790  0.00  0.00    +0.264 C 
ATOM      9  C   UNL     1      33.748 -13.617 -22.296  0.00  0.00    +0.188 C 
ATOM     10  C   UNL     1      32.521 -11.161 -22.624  0.00  0.00    +0.015 C 
ATOM     11  C   UNL     1      32.153 -12.050 -21.606  0.00  0.00    +0.135 C 
ATOM     12  C   UNL     1      32.121  -9.819 -22.521  0.00  0.00    +0.035 C 
ATOM     13  C   UNL     1      31.355 -11.625 -20.542  0.00  0.00    +0.040 C 
ATOM     14  C   UNL     1      31.342  -9.389 -21.446  0.00  0.00    +0.134 C 
ATOM     15  C   UNL     1      30.952 -10.293 -20.461  0.00  0.00    +0.040 C 
ENDROOT
BRANCH   9  16
ATOM     16  C   UNL     1      34.111 -15.089 -22.207  0.00  0.00    +0.017 C 
ATOM     17  C   UNL     1      34.243 -15.843 -23.372  0.00  0.00    +0.002 C 
ATOM     18  C   UNL     1      34.309 -15.683 -20.962  0.00  0.00    +0.002 C 
ATOM     19  C   UNL     1      34.576 -17.196 -23.291  0.00  0.00    +0.036 C 
ATOM     20  C   UNL     1      34.643 -17.035 -20.881  0.00  0.00    +0.036 C 
ATOM     21  C   UNL     1      34.775 -17.792 -22.046  0.00  0.00    +0.134 C 
BRANCH  21  22
ATOM     22  O   UNL     1      35.100 -19.112 -21.966  0.00  0.00    -0.506 OA
ATOM     23  H   UNL     1      34.559 -19.697 -21.473  0.00  0.00    +0.292 HD
ENDBRANCH  21  22
ENDBRANCH   9  16
BRANCH  14  24
ATOM     24  O   UNL     1      30.955  -8.086 -21.366  0.00  0.00    -0.506 OA
ATOM     25  H   UNL     1      30.542  -7.673 -22.099  0.00  0.00    +0.292 HD
ENDBRANCH  14  24
TORSDOF 3
ENDMDL
MODEL 8
REMARK VINA RESULT:      -9.4      8.004     10.703
REMARK  Name = 11197931
REMARK  3 active torsions:
REMARK  status: ('A' for Active; 'I' for Inactive)
REMARK    1  A    between atoms: C_9  and  C_16
REMARK    2  A    between atoms: C_14  and  O_24
REMARK    3  A    between atoms: C_21  and  O_22
REMARK                            x       y       z     vdW  Elec       q    Type
REMARK                         _______ _______ _______ _____ _____    ______ ____
ROOT
ATOM      1  F   UNL     1      36.806 -20.376 -16.265  0.00  0.00    -0.204 F 
ATOM      2  F   UNL     1      36.280 -22.000 -17.619  0.00  0.00    -0.204 F 
ATOM      3  O   UNL     1      33.676 -23.061 -13.329  0.00  0.00    -0.475 OA
ATOM      4  C   UNL     1      34.649 -23.155 -15.581  0.00  0.00    +0.054 C 
ATOM      5  C   UNL     1      36.003 -23.651 -15.023  0.00  0.00    +0.035 C 
ATOM      6  C   UNL     1      34.865 -21.649 -15.778  0.00  0.00    +0.071 C 
ATOM      7  C   UNL     1      37.046 -22.604 -15.478  0.00  0.00    +0.071 C 
ATOM      8  C   UNL     1      36.274 -21.609 -16.323  0.00  0.00    +0.264 C 
ATOM      9  C   UNL     1      33.483 -23.543 -14.666  0.00  0.00    +0.188 C 
ATOM     10  C   UNL     1      35.985 -23.812 -13.520  0.00  0.00    +0.015 C 
ATOM     11  C   UNL     1      34.847 -23.498 -12.765  0.00  0.00    +0.135 C 
ATOM     12  C   UNL     1      37.129 -24.276 -12.850  0.00  0.00    +0.035 C 
ATOM     13  C   UNL     1      34.869 -23.589 -11.372  0.00  0.00    +0.040 C 
ATOM     14  C   UNL     1      37.143 -24.388 -11.459  0.00  0.00    +0.134 C 
ATOM     15  C   UNL     1      36.017 -24.037 -10.720  0.00  0.00    +0.040 C 
ENDROOT
BRANCH   9  16
ATOM     16  C   UNL     1      32.147 -23.063 -15.204  0.00  0.00    +0.017 C 
ATOM     17  C   UNL     1      32.013 -22.751 -16.556  0.00  0.00    +0.002 C 
ATOM     18  C   UNL     1      31.057 -22.934 -14.344  0.00  0.00    +0.002 C 
ATOM     19  C   UNL     1      30.786 -22.309 -17.050  0.00  0.00    +0.036 C 
ATOM     20  C   UNL     1      29.829 -22.493 -14.838  0.00  0.00    +0.036 C 
ATOM     21  C   UNL     1      29.694 -22.180 -16.192  0.00  0.00    +0.134 C 
BRANCH  21  22
ATOM     22  O   UNL     1      28.496 -21.749 -16.674  0.00  0.00    -0.506 OA
ATOM     23  H   UNL     1      27.887 -21.324 -16.102  0.00  0.00    +0.292 HD
ENDBRANCH  21  22
ENDBRANCH   9  16
BRANCH  14  24
ATOM     24  O   UNL     1      38.263 -24.832 -10.825  0.00  0.00    -0.506 OA
ATOM     25  H   UNL     1      38.441 -25.751 -10.775  0.00  0.00    +0.292 HD
ENDBRANCH  14  24
TORSDOF 3
ENDMDL
MODEL 9
REMARK VINA RESULT:      -9.1      5.164      8.144
REMARK  Name = 11197931
REMARK  3 active torsions:
REMARK  status: ('A' for Active; 'I' for Inactive)
REMARK    1  A    between atoms: C_9  and  C_16
REMARK    2  A    between atoms: C_14  and  O_24
REMARK    3  A    between atoms: C_21  and  O_22
REMARK                            x       y       z     vdW  Elec       q    Type
REMARK                         _______ _______ _______ _____ _____    ______ ____
ROOT
ATOM      1  F   UNL     1      31.207 -10.023 -19.097  0.00  0.00    -0.204 F 
ATOM      2  F   UNL     1      29.715 -10.825 -20.468  0.00  0.00    -0.204 F 
ATOM      3  O   UNL     1      33.875 -10.174 -23.397  0.00  0.00    -0.475 OA
ATOM      4  C   UNL     1      31.608 -10.672 -22.599  0.00  0.00    +0.054 C 
ATOM      5  C   UNL     1      31.235  -9.172 -22.589  0.00  0.00    +0.035 C 
ATOM      6  C   UNL     1      31.962 -10.971 -21.137  0.00  0.00    +0.071 C 
ATOM      7  C   UNL     1      30.823  -8.858 -21.132  0.00  0.00    +0.071 C 
ATOM      8  C   UNL     1      30.905 -10.183 -20.397  0.00  0.00    +0.264 C 
ATOM      9  C   UNL     1      32.707 -10.976 -23.622  0.00  0.00    +0.188 C 
ATOM     10  C   UNL     1      32.371  -8.290 -23.055  0.00  0.00    +0.015 C 
ATOM     11  C   UNL     1      33.614  -8.829 -23.412  0.00  0.00    +0.135 C 
ATOM     12  C   UNL     1      32.195  -6.899 -23.128  0.00  0.00    +0.035 C 
ATOM     13  C   UNL     1      34.673  -7.995 -23.777  0.00  0.00    +0.040 C 
ATOM     14  C   UNL     1      33.248  -6.067 -23.513  0.00  0.00    +0.134 C 
ATOM     15  C   UNL     1      34.488  -6.615 -23.830  0.00  0.00    +0.040 C 
ENDROOT
BRANCH   9  16
ATOM     16  C   UNL     1      33.081 -12.446 -23.644  0.00  0.00    +0.017 C 
ATOM     17  C   UNL     1      33.711 -13.020 -22.540  0.00  0.00    +0.002 C 
ATOM     18  C   UNL     1      32.796 -13.221 -24.768  0.00  0.00    +0.002 C 
ATOM     19  C   UNL     1      34.056 -14.371 -22.560  0.00  0.00    +0.036 C 
ATOM     20  C   UNL     1      33.140 -14.572 -24.787  0.00  0.00    +0.036 C 
ATOM     21  C   UNL     1      33.771 -15.147 -23.683  0.00  0.00    +0.134 C 
BRANCH  21  22
ATOM     22  O   UNL     1      34.108 -16.467 -23.702  0.00  0.00    -0.506 OA
ATOM     23  H   UNL     1      34.228 -16.906 -24.521  0.00  0.00    +0.292 HD
ENDBRANCH  21  22
ENDBRANCH   9  16
BRANCH  14  24
ATOM     24  O   UNL     1      33.063  -4.720 -23.571  0.00  0.00    -0.506 OA
ATOM     25  H   UNL     1      32.255  -4.371 -23.895  0.00  0.00    +0.292 HD
ENDBRANCH  14  24
TORSDOF 3
ENDMDL
