MODEL 1
REMARK VINA RESULT:     -11.9      0.000      0.000
REMARK  Name = 9956726
REMARK  9 active torsions:
REMARK  status: ('A' for Active; 'I' for Inactive)
REMARK    1  A    between atoms: N_2  and  C_21
REMARK    2  A    between atoms: C_3  and  C_7
REMARK    3  A    between atoms: C_8  and  C_11
REMARK    4  A    between atoms: C_14  and  C_20
REMARK    5  A    between atoms: C_21  and  C_22
REMARK    6  A    between atoms: C_23  and  O_28
REMARK    7  A    between atoms: O_28  and  C_29
REMARK    8  A    between atoms: C_29  and  C_33
REMARK    9  A    between atoms: C_33  and  O_34
REMARK                            x       y       z     vdW  Elec       q    Type
REMARK                         _______ _______ _______ _____ _____    ______ ____
ROOT
ATOM      1  O   UNL     1      33.330 -23.529 -18.815  0.00  0.00    -0.274 OA
ATOM      2  N   UNL     1      32.792 -22.026 -17.163  0.00  0.00    -0.299 N 
ATOM      3  C   UNL     1      33.373 -22.376 -18.382  0.00  0.00    +0.239 C 
ATOM      4  H   UNL     1      32.852 -21.092 -16.859  0.00  0.00    +0.150 HD
ENDROOT
BRANCH   3   7
ATOM      5  S   UNL     1      33.074 -20.406 -20.235  0.00  0.00    -0.067 S 
ATOM      6  N   UNL     1      35.560 -19.777 -19.908  0.00  0.00    -0.403 NA
ATOM      7  C   UNL     1      34.009 -21.281 -19.128  0.00  0.00    +0.178 C 
ATOM      8  C   UNL     1      34.469 -19.465 -20.573  0.00  0.00    +0.157 C 
ATOM      9  C   UNL     1      35.283 -20.837 -19.067  0.00  0.00    +0.107 C 
ATOM     10  C   UNL     1      36.377 -21.355 -18.219  0.00  0.00    +0.063 C 
BRANCH   8  11
ATOM     11  C   UNL     1      34.370 -18.405 -21.548  0.00  0.00    +0.036 C 
ATOM     12  C   UNL     1      34.682 -17.096 -21.187  0.00  0.00    +0.003 C 
ATOM     13  C   UNL     1      33.961 -18.694 -22.849  0.00  0.00    +0.003 C 
ATOM     14  C   UNL     1      34.178 -16.359 -23.432  0.00  0.00    +0.071 C 
ATOM     15  C   UNL     1      34.585 -16.071 -22.130  0.00  0.00    +0.004 C 
ATOM     16  C   UNL     1      33.865 -17.670 -23.792  0.00  0.00    +0.004 C 
BRANCH  14  20
ATOM     17  F   UNL     1      35.017 -15.336 -25.425  0.00  0.00    -0.166 F 
ATOM     18  F   UNL     1      32.876 -15.239 -25.097  0.00  0.00    -0.166 F 
ATOM     19  F   UNL     1      34.215 -14.025 -23.887  0.00  0.00    -0.166 F 
ATOM     20  C   UNL     1      34.074 -15.265 -24.440  0.00  0.00    +0.419 C 
ENDBRANCH  14  20
ENDBRANCH   8  11
ENDBRANCH   3   7
BRANCH   2  21
ATOM     21  C   UNL     1      32.106 -22.985 -16.335  0.00  0.00    +0.116 C 
BRANCH  21  22
ATOM     22  C   UNL     1      32.959 -23.484 -15.218  0.00  0.00    -0.002 C 
ATOM     23  C   UNL     1      34.553 -24.414 -13.135  0.00  0.00    +0.139 C 
ATOM     24  C   UNL     1      32.476 -23.466 -13.910  0.00  0.00    +0.000 C 
ATOM     25  C   UNL     1      34.241 -23.968 -15.482  0.00  0.00    +0.000 C 
ATOM     26  C   UNL     1      33.275 -23.932 -12.865  0.00  0.00    +0.037 C 
ATOM     27  C   UNL     1      35.039 -24.432 -14.438  0.00  0.00    +0.037 C 
BRANCH  23  28
ATOM     28  O   UNL     1      35.335 -24.870 -12.110  0.00  0.00    -0.472 OA
BRANCH  28  29
ATOM     29  C   UNL     1      36.232 -23.928 -11.521  0.00  0.00    +0.221 C 
ATOM     30  C   UNL     1      37.632 -24.534 -11.538  0.00  0.00    +0.055 C 
ATOM     31  C   UNL     1      36.151 -22.633 -12.324  0.00  0.00    +0.055 C 
BRANCH  29  33
ATOM     32  O   UNL     1      34.954 -24.475  -9.521  0.00  0.00    -0.246 OA
ATOM     33  C   UNL     1      35.734 -23.724 -10.096  0.00  0.00    +0.350 C 
BRANCH  33  34
ATOM     34  O   UNL     1      36.243 -22.615  -9.501  0.00  0.00    -0.478 OA
ATOM     35  H   UNL     1      35.767 -21.808  -9.531  0.00  0.00    +0.295 HD
ENDBRANCH  33  34
ENDBRANCH  29  33
ENDBRANCH  28  29
ENDBRANCH  23  28
ENDBRANCH  21  22
ENDBRANCH   2  21
TORSDOF 9
ENDMDL
MODEL 2
REMARK VINA RESULT:     -11.7      0.792      1.466
REMARK  Name = 9956726
REMARK  9 active torsions:
REMARK  status: ('A' for Active; 'I' for Inactive)
REMARK    1  A    between atoms: N_2  and  C_21
REMARK    2  A    between atoms: C_3  and  C_7
REMARK    3  A    between atoms: C_8  and  C_11
REMARK    4  A    between atoms: C_14  and  C_20
REMARK    5  A    between atoms: C_21  and  C_22
REMARK    6  A    between atoms: C_23  and  O_28
REMARK    7  A    between atoms: O_28  and  C_29
REMARK    8  A    between atoms: C_29  and  C_33
REMARK    9  A    between atoms: C_33  and  O_34
REMARK                            x       y       z     vdW  Elec       q    Type
REMARK                         _______ _______ _______ _____ _____    ______ ____
ROOT
ATOM      1  O   UNL     1      33.198 -23.562 -18.832  0.00  0.00    -0.274 OA
ATOM      2  N   UNL     1      32.541 -22.043 -17.238  0.00  0.00    -0.299 N 
ATOM      3  C   UNL     1      33.201 -22.402 -18.413  0.00  0.00    +0.239 C 
ATOM      4  H   UNL     1      32.571 -21.105 -16.944  0.00  0.00    +0.150 HD
ENDROOT
BRANCH   3   7
ATOM      5  S   UNL     1      32.967 -20.394 -20.234  0.00  0.00    -0.067 S 
ATOM      6  N   UNL     1      35.463 -19.830 -19.873  0.00  0.00    -0.403 NA
ATOM      7  C   UNL     1      33.870 -21.310 -19.134  0.00  0.00    +0.178 C 
ATOM      8  C   UNL     1      34.387 -19.481 -20.542  0.00  0.00    +0.157 C 
ATOM      9  C   UNL     1      35.154 -20.898 -19.053  0.00  0.00    +0.107 C 
ATOM     10  C   UNL     1      36.226 -21.456 -18.205  0.00  0.00    +0.063 C 
BRANCH   8  11
ATOM     11  C   UNL     1      34.322 -18.402 -21.499  0.00  0.00    +0.036 C 
ATOM     12  C   UNL     1      34.663 -17.107 -21.113  0.00  0.00    +0.003 C 
ATOM     13  C   UNL     1      33.918 -18.659 -22.809  0.00  0.00    +0.003 C 
ATOM     14  C   UNL     1      34.197 -16.320 -23.349  0.00  0.00    +0.071 C 
ATOM     15  C   UNL     1      34.600 -16.065 -22.039  0.00  0.00    +0.004 C 
ATOM     16  C   UNL     1      33.856 -17.616 -23.734  0.00  0.00    +0.004 C 
BRANCH  14  20
ATOM     17  F   UNL     1      32.925 -15.114 -24.977  0.00  0.00    -0.166 F 
ATOM     18  F   UNL     1      34.333 -13.972 -23.787  0.00  0.00    -0.166 F 
ATOM     19  F   UNL     1      35.061 -15.323 -25.328  0.00  0.00    -0.166 F 
ATOM     20  C   UNL     1      34.129 -15.206 -24.338  0.00  0.00    +0.419 C 
ENDBRANCH  14  20
ENDBRANCH   8  11
ENDBRANCH   3   7
BRANCH   2  21
ATOM     21  C   UNL     1      31.815 -22.999 -16.441  0.00  0.00    +0.116 C 
BRANCH  21  22
ATOM     22  C   UNL     1      32.550 -23.377 -15.199  0.00  0.00    -0.002 C 
ATOM     23  C   UNL     1      33.923 -24.080 -12.882  0.00  0.00    +0.139 C 
ATOM     24  C   UNL     1      31.958 -23.180 -13.951  0.00  0.00    +0.000 C 
ATOM     25  C   UNL     1      33.830 -23.925 -15.286  0.00  0.00    +0.000 C 
ATOM     26  C   UNL     1      32.646 -23.533 -12.790  0.00  0.00    +0.037 C 
ATOM     27  C   UNL     1      34.518 -24.276 -14.124  0.00  0.00    +0.037 C 
BRANCH  23  28
ATOM     28  O   UNL     1      34.596 -24.425 -11.743  0.00  0.00    -0.472 OA
BRANCH  28  29
ATOM     29  C   UNL     1      35.873 -23.816 -11.546  0.00  0.00    +0.221 C 
ATOM     30  C   UNL     1      35.991 -22.641 -12.513  0.00  0.00    +0.055 C 
ATOM     31  C   UNL     1      35.967 -23.378 -10.087  0.00  0.00    +0.055 C 
BRANCH  29  33
ATOM     32  O   UNL     1      38.001 -24.685 -12.350  0.00  0.00    -0.246 OA
ATOM     33  C   UNL     1      36.896 -24.898 -11.863  0.00  0.00    +0.350 C 
BRANCH  33  34
ATOM     34  O   UNL     1      36.472 -26.149 -11.550  0.00  0.00    -0.478 OA
ATOM     35  H   UNL     1      36.913 -26.896 -11.905  0.00  0.00    +0.295 HD
ENDBRANCH  33  34
ENDBRANCH  29  33
ENDBRANCH  28  29
ENDBRANCH  23  28
ENDBRANCH  21  22
ENDBRANCH   2  21
TORSDOF 9
ENDMDL
MODEL 3
REMARK VINA RESULT:     -11.1      6.662     11.968
REMARK  Name = 9956726
REMARK  9 active torsions:
REMARK  status: ('A' for Active; 'I' for Inactive)
REMARK    1  A    between atoms: N_2  and  C_21
REMARK    2  A    between atoms: C_3  and  C_7
REMARK    3  A    between atoms: C_8  and  C_11
REMARK    4  A    between atoms: C_14  and  C_20
REMARK    5  A    between atoms: C_21  and  C_22
REMARK    6  A    between atoms: C_23  and  O_28
REMARK    7  A    between atoms: O_28  and  C_29
REMARK    8  A    between atoms: C_29  and  C_33
REMARK    9  A    between atoms: C_33  and  O_34
REMARK                            x       y       z     vdW  Elec       q    Type
REMARK                         _______ _______ _______ _____ _____    ______ ____
ROOT
ATOM      1  O   UNL     1      34.583 -19.887 -22.731  0.00  0.00    -0.274 OA
ATOM      2  N   UNL     1      34.608 -17.936 -21.517  0.00  0.00    -0.299 N 
ATOM      3  C   UNL     1      34.521 -19.324 -21.636  0.00  0.00    +0.239 C 
ATOM      4  H   UNL     1      34.554 -17.533 -20.621  0.00  0.00    +0.150 HD
ENDROOT
BRANCH   3   7
ATOM      5  S   UNL     1      35.787 -20.460 -19.511  0.00  0.00    -0.067 S 
ATOM      6  N   UNL     1      33.486 -21.186 -18.582  0.00  0.00    -0.403 NA
ATOM      7  C   UNL     1      34.385 -20.069 -20.376  0.00  0.00    +0.178 C 
ATOM      8  C   UNL     1      34.779 -21.218 -18.347  0.00  0.00    +0.157 C 
ATOM      9  C   UNL     1      33.264 -20.513 -19.767  0.00  0.00    +0.107 C 
ATOM     10  C   UNL     1      31.869 -20.358 -20.227  0.00  0.00    +0.063 C 
BRANCH   8  11
ATOM     11  C   UNL     1      35.395 -21.838 -17.198  0.00  0.00    +0.036 C 
ATOM     12  C   UNL     1      34.647 -22.678 -16.374  0.00  0.00    +0.003 C 
ATOM     13  C   UNL     1      36.739 -21.595 -16.913  0.00  0.00    +0.003 C 
ATOM     14  C   UNL     1      36.586 -23.035 -14.979  0.00  0.00    +0.071 C 
ATOM     15  C   UNL     1      35.243 -23.277 -15.264  0.00  0.00    +0.004 C 
ATOM     16  C   UNL     1      37.334 -22.195 -15.803  0.00  0.00    +0.004 C 
BRANCH  14  20
ATOM     17  F   UNL     1      37.315 -22.847 -12.708  0.00  0.00    -0.166 F 
ATOM     18  F   UNL     1      36.555 -24.777 -13.340  0.00  0.00    -0.166 F 
ATOM     19  F   UNL     1      38.498 -24.094 -14.040  0.00  0.00    -0.166 F 
ATOM     20  C   UNL     1      37.223 -23.674 -13.791  0.00  0.00    +0.419 C 
ENDBRANCH  14  20
ENDBRANCH   8  11
ENDBRANCH   3   7
BRANCH   2  21
ATOM     21  C   UNL     1      34.775 -17.076 -22.660  0.00  0.00    +0.116 C 
BRANCH  21  22
ATOM     22  C   UNL     1      34.384 -15.666 -22.370  0.00  0.00    -0.002 C 
ATOM     23  C   UNL     1      33.655 -13.034 -21.830  0.00  0.00    +0.139 C 
ATOM     24  C   UNL     1      34.258 -14.748 -23.414  0.00  0.00    +0.000 C 
ATOM     25  C   UNL     1      34.144 -15.264 -21.056  0.00  0.00    +0.000 C 
ATOM     26  C   UNL     1      33.893 -13.430 -23.143  0.00  0.00    +0.037 C 
ATOM     27  C   UNL     1      33.780 -13.945 -20.786  0.00  0.00    +0.037 C 
BRANCH  23  28
ATOM     28  O   UNL     1      33.297 -11.742 -21.566  0.00  0.00    -0.472 OA
BRANCH  28  29
ATOM     29  C   UNL     1      31.912 -11.421 -21.705  0.00  0.00    +0.221 C 
ATOM     30  C   UNL     1      31.229 -12.580 -22.425  0.00  0.00    +0.055 C 
ATOM     31  C   UNL     1      31.339 -11.185 -20.311  0.00  0.00    +0.055 C 
BRANCH  29  33
ATOM     32  O   UNL     1      32.794  -9.743 -23.235  0.00  0.00    -0.246 OA
ATOM     33  C   UNL     1      31.868 -10.148 -22.541  0.00  0.00    +0.350 C 
BRANCH  33  34
ATOM     34  O   UNL     1      30.687  -9.486 -22.451  0.00  0.00    -0.478 OA
ATOM     35  H   UNL     1      29.892  -9.907 -22.713  0.00  0.00    +0.295 HD
ENDBRANCH  33  34
ENDBRANCH  29  33
ENDBRANCH  28  29
ENDBRANCH  23  28
ENDBRANCH  21  22
ENDBRANCH   2  21
TORSDOF 9
ENDMDL
MODEL 4
REMARK VINA RESULT:     -11.0      6.738     12.087
REMARK  Name = 9956726
REMARK  9 active torsions:
REMARK  status: ('A' for Active; 'I' for Inactive)
REMARK    1  A    between atoms: N_2  and  C_21
REMARK    2  A    between atoms: C_3  and  C_7
REMARK    3  A    between atoms: C_8  and  C_11
REMARK    4  A    between atoms: C_14  and  C_20
REMARK    5  A    between atoms: C_21  and  C_22
REMARK    6  A    between atoms: C_23  and  O_28
REMARK    7  A    between atoms: O_28  and  C_29
REMARK    8  A    between atoms: C_29  and  C_33
REMARK    9  A    between atoms: C_33  and  O_34
REMARK                            x       y       z     vdW  Elec       q    Type
REMARK                         _______ _______ _______ _____ _____    ______ ____
ROOT
ATOM      1  O   UNL     1      33.605 -18.867 -23.719  0.00  0.00    -0.274 OA
ATOM      2  N   UNL     1      34.344 -16.874 -22.845  0.00  0.00    -0.299 N 
ATOM      3  C   UNL     1      34.169 -18.258 -22.807  0.00  0.00    +0.239 C 
ATOM      4  H   UNL     1      34.801 -16.433 -22.093  0.00  0.00    +0.150 HD
ENDROOT
BRANCH   3   7
ATOM      5  S   UNL     1      33.692 -19.890 -20.682  0.00  0.00    -0.067 S 
ATOM      6  N   UNL     1      36.186 -19.699 -20.029  0.00  0.00    -0.403 NA
ATOM      7  C   UNL     1      34.726 -18.944 -21.632  0.00  0.00    +0.178 C 
ATOM      8  C   UNL     1      35.041 -20.245 -19.683  0.00  0.00    +0.157 C 
ATOM      9  C   UNL     1      35.993 -18.942 -21.168  0.00  0.00    +0.107 C 
ATOM     10  C   UNL     1      37.159 -18.233 -21.735  0.00  0.00    +0.063 C 
BRANCH   8  11
ATOM     11  C   UNL     1      34.848 -21.106 -18.540  0.00  0.00    +0.036 C 
ATOM     12  C   UNL     1      35.878 -21.280 -17.617  0.00  0.00    +0.003 C 
ATOM     13  C   UNL     1      33.631 -21.763 -18.362  0.00  0.00    +0.003 C 
ATOM     14  C   UNL     1      34.473 -22.769 -16.333  0.00  0.00    +0.071 C 
ATOM     15  C   UNL     1      35.691 -22.113 -16.513  0.00  0.00    +0.004 C 
ATOM     16  C   UNL     1      33.444 -22.595 -17.257  0.00  0.00    +0.004 C 
BRANCH  14  20
ATOM     17  F   UNL     1      32.961 -23.850 -14.828  0.00  0.00    -0.166 F 
ATOM     18  F   UNL     1      34.782 -24.916 -15.326  0.00  0.00    -0.166 F 
ATOM     19  F   UNL     1      34.865 -23.176 -14.023  0.00  0.00    -0.166 F 
ATOM     20  C   UNL     1      34.273 -23.660 -15.154  0.00  0.00    +0.419 C 
ENDBRANCH  14  20
ENDBRANCH   8  11
ENDBRANCH   3   7
BRANCH   2  21
ATOM     21  C   UNL     1      33.880 -16.070 -23.946  0.00  0.00    +0.116 C 
BRANCH  21  22
ATOM     22  C   UNL     1      33.551 -14.676 -23.532  0.00  0.00    -0.002 C 
ATOM     23  C   UNL     1      32.939 -12.073 -22.758  0.00  0.00    +0.139 C 
ATOM     24  C   UNL     1      32.990 -13.789 -24.451  0.00  0.00    +0.000 C 
ATOM     25  C   UNL     1      33.805 -14.258 -22.225  0.00  0.00    +0.000 C 
ATOM     26  C   UNL     1      32.683 -12.484 -24.064  0.00  0.00    +0.037 C 
ATOM     27  C   UNL     1      33.499 -12.953 -21.839  0.00  0.00    +0.037 C 
BRANCH  23  28
ATOM     28  O   UNL     1      32.638 -10.794 -22.380  0.00  0.00    -0.472 OA
BRANCH  28  29
ATOM     29  C   UNL     1      31.494 -10.629 -21.540  0.00  0.00    +0.221 C 
ATOM     30  C   UNL     1      30.371 -11.501 -22.093  0.00  0.00    +0.055 C 
ATOM     31  C   UNL     1      31.890 -11.025 -20.120  0.00  0.00    +0.055 C 
BRANCH  29  33
ATOM     32  O   UNL     1      30.781  -8.579 -22.643  0.00  0.00    -0.246 OA
ATOM     33  C   UNL     1      31.137  -9.151 -21.620  0.00  0.00    +0.350 C 
BRANCH  33  34
ATOM     34  O   UNL     1      31.248  -8.505 -20.431  0.00  0.00    -0.478 OA
ATOM     35  H   UNL     1      30.592  -7.888 -20.170  0.00  0.00    +0.295 HD
ENDBRANCH  33  34
ENDBRANCH  29  33
ENDBRANCH  28  29
ENDBRANCH  23  28
ENDBRANCH  21  22
ENDBRANCH   2  21
TORSDOF 9
ENDMDL
MODEL 5
REMARK VINA RESULT:     -10.8      6.303     11.711
REMARK  Name = 9956726
REMARK  9 active torsions:
REMARK  status: ('A' for Active; 'I' for Inactive)
REMARK    1  A    between atoms: N_2  and  C_21
REMARK    2  A    between atoms: C_3  and  C_7
REMARK    3  A    between atoms: C_8  and  C_11
REMARK    4  A    between atoms: C_14  and  C_20
REMARK    5  A    between atoms: C_21  and  C_22
REMARK    6  A    between atoms: C_23  and  O_28
REMARK    7  A    between atoms: O_28  and  C_29
REMARK    8  A    between atoms: C_29  and  C_33
REMARK    9  A    between atoms: C_33  and  O_34
REMARK                            x       y       z     vdW  Elec       q    Type
REMARK                         _______ _______ _______ _____ _____    ______ ____
ROOT
ATOM      1  O   UNL     1      36.510 -19.324 -20.923  0.00  0.00    -0.274 OA
ATOM      2  N   UNL     1      34.359 -19.328 -21.732  0.00  0.00    -0.299 N 
ATOM      3  C   UNL     1      35.336 -19.676 -20.797  0.00  0.00    +0.239 C 
ATOM      4  H   UNL     1      33.435 -19.633 -21.588  0.00  0.00    +0.150 HD
ENDROOT
BRANCH   3   7
ATOM      5  S   UNL     1      36.013 -20.997 -18.516  0.00  0.00    -0.067 S 
ATOM      6  N   UNL     1      33.517 -21.568 -18.155  0.00  0.00    -0.403 NA
ATOM      7  C   UNL     1      34.870 -20.458 -19.643  0.00  0.00    +0.178 C 
ATOM      8  C   UNL     1      34.720 -21.716 -17.646  0.00  0.00    +0.157 C 
ATOM      9  C   UNL     1      33.613 -20.832 -19.320  0.00  0.00    +0.107 C 
ATOM     10  C   UNL     1      32.369 -20.544 -20.064  0.00  0.00    +0.063 C 
BRANCH   8  11
ATOM     11  C   UNL     1      35.019 -22.430 -16.427  0.00  0.00    +0.036 C 
ATOM     12  C   UNL     1      34.061 -23.265 -15.856  0.00  0.00    +0.003 C 
ATOM     13  C   UNL     1      36.268 -22.283 -15.824  0.00  0.00    +0.003 C 
ATOM     14  C   UNL     1      35.599 -23.809 -14.074  0.00  0.00    +0.071 C 
ATOM     15  C   UNL     1      34.350 -23.955 -14.678  0.00  0.00    +0.004 C 
ATOM     16  C   UNL     1      36.557 -22.973 -14.646  0.00  0.00    +0.004 C 
BRANCH  14  20
ATOM     17  F   UNL     1      36.963 -24.025 -12.121  0.00  0.00    -0.166 F 
ATOM     18  F   UNL     1      34.872 -24.564 -11.924  0.00  0.00    -0.166 F 
ATOM     19  F   UNL     1      36.225 -25.855 -13.035  0.00  0.00    -0.166 F 
ATOM     20  C   UNL     1      35.908 -24.545 -12.814  0.00  0.00    +0.419 C 
ENDBRANCH  14  20
ENDBRANCH   8  11
ENDBRANCH   3   7
BRANCH   2  21
ATOM     21  C   UNL     1      34.659 -18.538 -22.898  0.00  0.00    +0.116 C 
BRANCH  21  22
ATOM     22  C   UNL     1      34.472 -17.078 -22.658  0.00  0.00    -0.002 C 
ATOM     23  C   UNL     1      34.120 -14.353 -22.212  0.00  0.00    +0.139 C 
ATOM     24  C   UNL     1      34.336 -16.596 -21.356  0.00  0.00    +0.000 C 
ATOM     25  C   UNL     1      34.431 -16.193 -23.737  0.00  0.00    +0.000 C 
ATOM     26  C   UNL     1      34.160 -15.231 -21.132  0.00  0.00    +0.037 C 
ATOM     27  C   UNL     1      34.254 -14.829 -23.512  0.00  0.00    +0.037 C 
BRANCH  23  28
ATOM     28  O   UNL     1      33.948 -13.015 -21.991  0.00  0.00    -0.472 OA
BRANCH  28  29
ATOM     29  C   UNL     1      32.789 -12.415 -22.572  0.00  0.00    +0.221 C 
ATOM     30  C   UNL     1      33.179 -11.030 -23.081  0.00  0.00    +0.055 C 
ATOM     31  C   UNL     1      32.296 -13.327 -23.692  0.00  0.00    +0.055 C 
BRANCH  29  33
ATOM     32  O   UNL     1      31.927 -12.792 -20.326  0.00  0.00    -0.246 OA
ATOM     33  C   UNL     1      31.767 -12.323 -21.447  0.00  0.00    +0.350 C 
BRANCH  33  34
ATOM     34  O   UNL     1      30.637 -11.660 -21.800  0.00  0.00    -0.478 OA
ATOM     35  H   UNL     1      30.668 -10.739 -21.970  0.00  0.00    +0.295 HD
ENDBRANCH  33  34
ENDBRANCH  29  33
ENDBRANCH  28  29
ENDBRANCH  23  28
ENDBRANCH  21  22
ENDBRANCH   2  21
TORSDOF 9
ENDMDL
MODEL 6
REMARK VINA RESULT:     -10.6      4.595      7.508
REMARK  Name = 9956726
REMARK  9 active torsions:
REMARK  status: ('A' for Active; 'I' for Inactive)
REMARK    1  A    between atoms: N_2  and  C_21
REMARK    2  A    between atoms: C_3  and  C_7
REMARK    3  A    between atoms: C_8  and  C_11
REMARK    4  A    between atoms: C_14  and  C_20
REMARK    5  A    between atoms: C_21  and  C_22
REMARK    6  A    between atoms: C_23  and  O_28
REMARK    7  A    between atoms: O_28  and  C_29
REMARK    8  A    between atoms: C_29  and  C_33
REMARK    9  A    between atoms: C_33  and  O_34
REMARK                            x       y       z     vdW  Elec       q    Type
REMARK                         _______ _______ _______ _____ _____    ______ ____
ROOT
ATOM      1  O   UNL     1      34.915 -16.544 -20.401  0.00  0.00    -0.274 OA
ATOM      2  N   UNL     1      35.011 -17.570 -22.455  0.00  0.00    -0.299 N 
ATOM      3  C   UNL     1      34.687 -16.506 -21.612  0.00  0.00    +0.239 C 
ATOM      4  H   UNL     1      34.811 -17.493 -23.415  0.00  0.00    +0.150 HD
ENDROOT
BRANCH   3   7
ATOM      5  S   UNL     1      33.723 -13.979 -21.311  0.00  0.00    -0.067 S 
ATOM      6  N   UNL     1      33.225 -13.912 -23.847  0.00  0.00    -0.403 NA
ATOM      7  C   UNL     1      34.091 -15.331 -22.262  0.00  0.00    +0.178 C 
ATOM      8  C   UNL     1      33.150 -13.213 -22.736  0.00  0.00    +0.157 C 
ATOM      9  C   UNL     1      33.776 -15.146 -23.563  0.00  0.00    +0.107 C 
ATOM     10  C   UNL     1      33.955 -16.100 -24.676  0.00  0.00    +0.063 C 
BRANCH   8  11
ATOM     11  C   UNL     1      32.626 -11.871 -22.637  0.00  0.00    +0.036 C 
ATOM     12  C   UNL     1      33.182 -10.849 -23.404  0.00  0.00    +0.003 C 
ATOM     13  C   UNL     1      31.565 -11.601 -21.774  0.00  0.00    +0.003 C 
ATOM     14  C   UNL     1      31.614  -9.280 -22.445  0.00  0.00    +0.071 C 
ATOM     15  C   UNL     1      32.676  -9.552 -23.308  0.00  0.00    +0.004 C 
ATOM     16  C   UNL     1      31.059 -10.304 -21.678  0.00  0.00    +0.004 C 
BRANCH  14  20
ATOM     17  F   UNL     1      29.885  -7.720 -22.992  0.00  0.00    -0.166 F 
ATOM     18  F   UNL     1      30.836  -7.495 -21.056  0.00  0.00    -0.166 F 
ATOM     19  F   UNL     1      31.918  -6.959 -22.866  0.00  0.00    -0.166 F 
ATOM     20  C   UNL     1      31.073  -7.894 -22.342  0.00  0.00    +0.419 C 
ENDBRANCH  14  20
ENDBRANCH   8  11
ENDBRANCH   3   7
BRANCH   2  21
ATOM     21  C   UNL     1      35.629 -18.777 -21.967  0.00  0.00    +0.116 C 
BRANCH  21  22
ATOM     22  C   UNL     1      34.742 -19.533 -21.036  0.00  0.00    -0.002 C 
ATOM     23  C   UNL     1      33.086 -20.945 -19.302  0.00  0.00    +0.139 C 
ATOM     24  C   UNL     1      35.298 -20.322 -20.030  0.00  0.00    +0.000 C 
ATOM     25  C   UNL     1      33.356 -19.452 -21.174  0.00  0.00    +0.000 C 
ATOM     26  C   UNL     1      34.469 -21.030 -19.160  0.00  0.00    +0.037 C 
ATOM     27  C   UNL     1      32.527 -20.160 -20.305  0.00  0.00    +0.037 C 
BRANCH  23  28
ATOM     28  O   UNL     1      32.274 -21.639 -18.449  0.00  0.00    -0.472 OA
BRANCH  28  29
ATOM     29  C   UNL     1      32.909 -22.591 -17.594  0.00  0.00    +0.221 C 
ATOM     30  C   UNL     1      33.190 -23.848 -18.412  0.00  0.00    +0.055 C 
ATOM     31  C   UNL     1      34.186 -21.958 -17.048  0.00  0.00    +0.055 C 
BRANCH  29  33
ATOM     32  O   UNL     1      32.193 -23.416 -15.417  0.00  0.00    -0.246 OA
ATOM     33  C   UNL     1      31.912 -22.869 -16.477  0.00  0.00    +0.350 C 
BRANCH  33  34
ATOM     34  O   UNL     1      30.653 -22.449 -16.763  0.00  0.00    -0.478 OA
ATOM     35  H   UNL     1      30.068 -23.008 -17.235  0.00  0.00    +0.295 HD
ENDBRANCH  33  34
ENDBRANCH  29  33
ENDBRANCH  28  29
ENDBRANCH  23  28
ENDBRANCH  21  22
ENDBRANCH   2  21
TORSDOF 9
ENDMDL
MODEL 7
REMARK VINA RESULT:     -10.6      3.494      5.586
REMARK  Name = 9956726
REMARK  9 active torsions:
REMARK  status: ('A' for Active; 'I' for Inactive)
REMARK    1  A    between atoms: N_2  and  C_21
REMARK    2  A    between atoms: C_3  and  C_7
REMARK    3  A    between atoms: C_8  and  C_11
REMARK    4  A    between atoms: C_14  and  C_20
REMARK    5  A    between atoms: C_21  and  C_22
REMARK    6  A    between atoms: C_23  and  O_28
REMARK    7  A    between atoms: O_28  and  C_29
REMARK    8  A    between atoms: C_29  and  C_33
REMARK    9  A    between atoms: C_33  and  O_34
REMARK                            x       y       z     vdW  Elec       q    Type
REMARK                         _______ _______ _______ _____ _____    ______ ____
ROOT
ATOM      1  O   UNL     1      36.674 -18.257 -20.468  0.00  0.00    -0.274 OA
ATOM      2  N   UNL     1      34.702 -19.436 -20.464  0.00  0.00    -0.299 N 
ATOM      3  C   UNL     1      35.481 -18.321 -20.773  0.00  0.00    +0.239 C 
ATOM      4  H   UNL     1      33.754 -19.441 -20.729  0.00  0.00    +0.150 HD
ENDROOT
BRANCH   3   7
ATOM      5  S   UNL     1      34.407 -15.822 -20.685  0.00  0.00    -0.067 S 
ATOM      6  N   UNL     1      33.799 -16.039 -23.188  0.00  0.00    -0.403 NA
ATOM      7  C   UNL     1      34.801 -17.246 -21.510  0.00  0.00    +0.178 C 
ATOM      8  C   UNL     1      33.736 -15.234 -22.151  0.00  0.00    +0.157 C 
ATOM      9  C   UNL     1      34.422 -17.211 -22.806  0.00  0.00    +0.107 C 
ATOM     10  C   UNL     1      34.600 -18.267 -23.825  0.00  0.00    +0.063 C 
BRANCH   8  11
ATOM     11  C   UNL     1      33.152 -13.913 -22.164  0.00  0.00    +0.036 C 
ATOM     12  C   UNL     1      32.437 -13.457 -21.057  0.00  0.00    +0.003 C 
ATOM     13  C   UNL     1      33.303 -13.097 -23.284  0.00  0.00    +0.003 C 
ATOM     14  C   UNL     1      32.023 -11.364 -22.190  0.00  0.00    +0.071 C 
ATOM     15  C   UNL     1      31.872 -12.181 -21.070  0.00  0.00    +0.004 C 
ATOM     16  C   UNL     1      32.738 -11.821 -23.296  0.00  0.00    +0.004 C 
BRANCH  14  20
ATOM     17  F   UNL     1      31.753  -9.265 -23.306  0.00  0.00    -0.166 F 
ATOM     18  F   UNL     1      30.052 -10.009 -22.184  0.00  0.00    -0.166 F 
ATOM     19  F   UNL     1      31.797  -9.246 -21.132  0.00  0.00    -0.166 F 
ATOM     20  C   UNL     1      31.419 -10.001 -22.204  0.00  0.00    +0.419 C 
ENDBRANCH  14  20
ENDBRANCH   8  11
ENDBRANCH   3   7
BRANCH   2  21
ATOM     21  C   UNL     1      35.237 -20.581 -19.773  0.00  0.00    +0.116 C 
BRANCH  21  22
ATOM     22  C   UNL     1      34.231 -21.229 -18.883  0.00  0.00    -0.002 C 
ATOM     23  C   UNL     1      32.351 -22.440 -17.226  0.00  0.00    +0.139 C 
ATOM     24  C   UNL     1      34.650 -22.055 -17.840  0.00  0.00    +0.000 C 
ATOM     25  C   UNL     1      32.869 -21.010 -19.095  0.00  0.00    +0.000 C 
ATOM     26  C   UNL     1      33.709 -22.662 -17.009  0.00  0.00    +0.037 C 
ATOM     27  C   UNL     1      31.928 -21.618 -18.265  0.00  0.00    +0.037 C 
BRANCH  23  28
ATOM     28  O   UNL     1      31.429 -23.035 -16.410  0.00  0.00    -0.472 OA
BRANCH  28  29
ATOM     29  C   UNL     1      31.745 -23.085 -15.018  0.00  0.00    +0.221 C 
ATOM     30  C   UNL     1      33.260 -23.194 -14.881  0.00  0.00    +0.055 C 
ATOM     31  C   UNL     1      31.193 -21.822 -14.363  0.00  0.00    +0.055 C 
BRANCH  29  33
ATOM     32  O   UNL     1      29.904 -24.660 -14.770  0.00  0.00    -0.246 OA
ATOM     33  C   UNL     1      31.049 -24.330 -14.484  0.00  0.00    +0.350 C 
BRANCH  33  34
ATOM     34  O   UNL     1      31.826 -25.063 -13.647  0.00  0.00    -0.478 OA
ATOM     35  H   UNL     1      32.758 -24.976 -13.675  0.00  0.00    +0.295 HD
ENDBRANCH  33  34
ENDBRANCH  29  33
ENDBRANCH  28  29
ENDBRANCH  23  28
ENDBRANCH  21  22
ENDBRANCH   2  21
TORSDOF 9
ENDMDL
MODEL 8
REMARK VINA RESULT:     -10.6      6.549      9.953
REMARK  Name = 9956726
REMARK  9 active torsions:
REMARK  status: ('A' for Active; 'I' for Inactive)
REMARK    1  A    between atoms: N_2  and  C_21
REMARK    2  A    between atoms: C_3  and  C_7
REMARK    3  A    between atoms: C_8  and  C_11
REMARK    4  A    between atoms: C_14  and  C_20
REMARK    5  A    between atoms: C_21  and  C_22
REMARK    6  A    between atoms: C_23  and  O_28
REMARK    7  A    between atoms: O_28  and  C_29
REMARK    8  A    between atoms: C_29  and  C_33
REMARK    9  A    between atoms: C_33  and  O_34
REMARK                            x       y       z     vdW  Elec       q    Type
REMARK                         _______ _______ _______ _____ _____    ______ ____
ROOT
ATOM      1  O   UNL     1      32.772 -13.723 -24.868  0.00  0.00    -0.274 OA
ATOM      2  N   UNL     1      33.532 -14.783 -22.976  0.00  0.00    -0.299 N 
ATOM      3  C   UNL     1      32.940 -13.712 -23.647  0.00  0.00    +0.239 C 
ATOM      4  H   UNL     1      33.645 -14.728 -22.001  0.00  0.00    +0.150 HD
ENDROOT
BRANCH   3   7
ATOM      5  S   UNL     1      32.375 -11.053 -23.504  0.00  0.00    -0.067 S 
ATOM      6  N   UNL     1      31.795 -11.354 -21.003  0.00  0.00    -0.403 NA
ATOM      7  C   UNL     1      32.502 -12.590 -22.804  0.00  0.00    +0.178 C 
ATOM      8  C   UNL     1      31.867 -10.469 -21.972  0.00  0.00    +0.157 C 
ATOM      9  C   UNL     1      32.167 -12.589 -21.496  0.00  0.00    +0.107 C 
ATOM     10  C   UNL     1      32.159 -13.738 -20.568  0.00  0.00    +0.063 C 
BRANCH   8  11
ATOM     11  C   UNL     1      31.553  -9.066 -21.836  0.00  0.00    +0.036 C 
ATOM     12  C   UNL     1      31.607  -8.459 -20.583  0.00  0.00    +0.003 C 
ATOM     13  C   UNL     1      31.197  -8.322 -22.960  0.00  0.00    +0.003 C 
ATOM     14  C   UNL     1      30.948  -6.357 -21.575  0.00  0.00    +0.071 C 
ATOM     15  C   UNL     1      31.304  -7.103 -20.452  0.00  0.00    +0.004 C 
ATOM     16  C   UNL     1      30.894  -6.966 -22.829  0.00  0.00    +0.004 C 
BRANCH  14  20
ATOM     17  F   UNL     1      30.104  -4.578 -20.216  0.00  0.00    -0.166 F 
ATOM     18  F   UNL     1      31.704  -4.088 -21.596  0.00  0.00    -0.166 F 
ATOM     19  F   UNL     1      29.703  -4.485 -22.351  0.00  0.00    -0.166 F 
ATOM     20  C   UNL     1      30.623  -4.908 -21.436  0.00  0.00    +0.419 C 
ENDBRANCH  14  20
ENDBRANCH   8  11
ENDBRANCH   3   7
BRANCH   2  21
ATOM     21  C   UNL     1      33.983 -15.966 -23.664  0.00  0.00    +0.116 C 
BRANCH  21  22
ATOM     22  C   UNL     1      34.466 -17.019 -22.725  0.00  0.00    -0.002 C 
ATOM     23  C   UNL     1      35.370 -18.985 -20.974  0.00  0.00    +0.139 C 
ATOM     24  C   UNL     1      34.894 -16.669 -21.444  0.00  0.00    +0.000 C 
ATOM     25  C   UNL     1      34.491 -18.355 -23.128  0.00  0.00    +0.000 C 
ATOM     26  C   UNL     1      35.347 -17.654 -20.566  0.00  0.00    +0.037 C 
ATOM     27  C   UNL     1      34.945 -19.339 -22.250  0.00  0.00    +0.037 C 
BRANCH  23  28
ATOM     28  O   UNL     1      35.814 -19.949 -20.113  0.00  0.00    -0.472 OA
BRANCH  28  29
ATOM     29  C   UNL     1      34.846 -20.899 -19.663  0.00  0.00    +0.221 C 
ATOM     30  C   UNL     1      33.478 -20.224 -19.680  0.00  0.00    +0.055 C 
ATOM     31  C   UNL     1      34.907 -22.110 -20.590  0.00  0.00    +0.055 C 
BRANCH  29  33
ATOM     32  O   UNL     1      34.716 -22.130 -17.565  0.00  0.00    -0.246 OA
ATOM     33  C   UNL     1      35.263 -21.270 -18.246  0.00  0.00    +0.350 C 
BRANCH  33  34
ATOM     34  O   UNL     1      36.320 -20.549 -17.790  0.00  0.00    -0.478 OA
ATOM     35  H   UNL     1      36.843 -20.055 -18.389  0.00  0.00    +0.295 HD
ENDBRANCH  33  34
ENDBRANCH  29  33
ENDBRANCH  28  29
ENDBRANCH  23  28
ENDBRANCH  21  22
ENDBRANCH   2  21
TORSDOF 9
ENDMDL
MODEL 9
REMARK VINA RESULT:     -10.6      3.485      5.609
REMARK  Name = 9956726
REMARK  9 active torsions:
REMARK  status: ('A' for Active; 'I' for Inactive)
REMARK    1  A    between atoms: N_2  and  C_21
REMARK    2  A    between atoms: C_3  and  C_7
REMARK    3  A    between atoms: C_8  and  C_11
REMARK    4  A    between atoms: C_14  and  C_20
REMARK    5  A    between atoms: C_21  and  C_22
REMARK    6  A    between atoms: C_23  and  O_28
REMARK    7  A    between atoms: O_28  and  C_29
REMARK    8  A    between atoms: C_29  and  C_33
REMARK    9  A    between atoms: C_33  and  O_34
REMARK                            x       y       z     vdW  Elec       q    Type
REMARK                         _______ _______ _______ _____ _____    ______ ____
ROOT
ATOM      1  O   UNL     1      36.763 -18.286 -20.628  0.00  0.00    -0.274 OA
ATOM      2  N   UNL     1      34.770 -19.413 -20.432  0.00  0.00    -0.299 N 
ATOM      3  C   UNL     1      35.548 -18.328 -20.837  0.00  0.00    +0.239 C 
ATOM      4  H   UNL     1      33.804 -19.401 -20.622  0.00  0.00    +0.150 HD
ENDROOT
BRANCH   3   7
ATOM      5  S   UNL     1      34.471 -15.831 -20.720  0.00  0.00    -0.067 S 
ATOM      6  N   UNL     1      33.771 -16.063 -23.197  0.00  0.00    -0.403 NA
ATOM      7  C   UNL     1      34.838 -17.259 -21.553  0.00  0.00    +0.178 C 
ATOM      8  C   UNL     1      33.745 -15.252 -22.162  0.00  0.00    +0.157 C 
ATOM      9  C   UNL     1      34.411 -17.232 -22.834  0.00  0.00    +0.107 C 
ATOM     10  C   UNL     1      34.553 -18.291 -23.853  0.00  0.00    +0.063 C 
BRANCH   8  11
ATOM     11  C   UNL     1      33.156 -13.934 -22.160  0.00  0.00    +0.036 C 
ATOM     12  C   UNL     1      33.310 -13.100 -23.266  0.00  0.00    +0.003 C 
ATOM     13  C   UNL     1      32.435 -13.497 -21.049  0.00  0.00    +0.003 C 
ATOM     14  C   UNL     1      32.020 -11.388 -22.153  0.00  0.00    +0.071 C 
ATOM     15  C   UNL     1      32.742 -11.825 -23.263  0.00  0.00    +0.004 C 
ATOM     16  C   UNL     1      31.867 -12.222 -21.046  0.00  0.00    +0.004 C 
BRANCH  14  20
ATOM     17  F   UNL     1      30.048 -10.034 -22.109  0.00  0.00    -0.166 F 
ATOM     18  F   UNL     1      31.794  -9.261 -21.082  0.00  0.00    -0.166 F 
ATOM     19  F   UNL     1      31.742  -9.299 -23.256  0.00  0.00    -0.166 F 
ATOM     20  C   UNL     1      31.413 -10.025 -22.149  0.00  0.00    +0.419 C 
ENDBRANCH  14  20
ENDBRANCH   8  11
ENDBRANCH   3   7
BRANCH   2  21
ATOM     21  C   UNL     1      35.331 -20.550 -19.748  0.00  0.00    +0.116 C 
BRANCH  21  22
ATOM     22  C   UNL     1      34.336 -21.231 -18.869  0.00  0.00    -0.002 C 
ATOM     23  C   UNL     1      32.482 -22.500 -17.227  0.00  0.00    +0.139 C 
ATOM     24  C   UNL     1      32.971 -21.050 -19.090  0.00  0.00    +0.000 C 
ATOM     25  C   UNL     1      34.772 -22.048 -17.825  0.00  0.00    +0.000 C 
ATOM     26  C   UNL     1      32.041 -21.686 -18.267  0.00  0.00    +0.037 C 
ATOM     27  C   UNL     1      33.842 -22.683 -17.003  0.00  0.00    +0.037 C 
BRANCH  23  28
ATOM     28  O   UNL     1      31.569 -23.124 -16.422  0.00  0.00    -0.472 OA
BRANCH  28  29
ATOM     29  C   UNL     1      31.759 -22.983 -15.013  0.00  0.00    +0.221 C 
ATOM     30  C   UNL     1      33.252 -22.805 -14.753  0.00  0.00    +0.055 C 
ATOM     31  C   UNL     1      30.941 -21.783 -14.544  0.00  0.00    +0.055 C 
BRANCH  29  33
ATOM     32  O   UNL     1      30.155 -24.782 -14.662  0.00  0.00    -0.246 OA
ATOM     33  C   UNL     1      31.241 -24.277 -14.399  0.00  0.00    +0.350 C 
BRANCH  33  34
ATOM     34  O   UNL     1      32.105 -24.837 -13.515  0.00  0.00    -0.478 OA
ATOM     35  H   UNL     1      31.778 -25.325 -12.785  0.00  0.00    +0.295 HD
ENDBRANCH  33  34
ENDBRANCH  29  33
ENDBRANCH  28  29
ENDBRANCH  23  28
ENDBRANCH  21  22
ENDBRANCH   2  21
TORSDOF 9
ENDMDL
