MODEL 1
REMARK VINA RESULT:     -10.4      0.000      0.000
REMARK  Name = 10286159
REMARK  3 active torsions:
REMARK  status: ('A' for Active; 'I' for Inactive)
REMARK    1  A    between atoms: C_7  and  C_14
REMARK    2  A    between atoms: C_12  and  O_22
REMARK    3  A    between atoms: C_19  and  O_20
REMARK                            x       y       z     vdW  Elec       q    Type
REMARK                         _______ _______ _______ _____ _____    ______ ____
ROOT
ATOM      1  O   UNL     1      32.063 -22.070 -16.456  0.00  0.00    -0.475 OA
ATOM      2  C   UNL     1      34.278 -23.113 -16.251  0.00  0.00    +0.049 C 
ATOM      3  C   UNL     1      33.772 -24.118 -15.206  0.00  0.00    +0.029 C 
ATOM      4  C   UNL     1      34.910 -21.974 -15.427  0.00  0.00    +0.004 C 
ATOM      5  C   UNL     1      34.860 -24.033 -14.132  0.00  0.00    +0.005 C 
ATOM      6  C   UNL     1      35.201 -22.552 -14.043  0.00  0.00    +0.000 C 
ATOM      7  C   UNL     1      33.133 -22.693 -17.180  0.00  0.00    +0.188 C 
ATOM      8  C   UNL     1      32.379 -23.773 -14.731  0.00  0.00    +0.015 C 
ATOM      9  C   UNL     1      31.618 -22.786 -15.375  0.00  0.00    +0.135 C 
ATOM     10  C   UNL     1      31.806 -24.461 -13.651  0.00  0.00    +0.035 C 
ATOM     11  C   UNL     1      30.343 -22.453 -14.909  0.00  0.00    +0.040 C 
ATOM     12  C   UNL     1      30.526 -24.140 -13.197  0.00  0.00    +0.134 C 
ATOM     13  C   UNL     1      29.798 -23.131 -13.821  0.00  0.00    +0.040 C 
ENDROOT
BRANCH   7  14
ATOM     14  C   UNL     1      33.613 -21.784 -18.298  0.00  0.00    +0.017 C 
ATOM     15  C   UNL     1      34.976 -21.665 -18.561  0.00  0.00    +0.002 C 
ATOM     16  C   UNL     1      32.688 -21.069 -19.057  0.00  0.00    +0.002 C 
ATOM     17  C   UNL     1      35.416 -20.828 -19.587  0.00  0.00    +0.036 C 
ATOM     18  C   UNL     1      33.128 -20.232 -20.083  0.00  0.00    +0.036 C 
ATOM     19  C   UNL     1      34.492 -20.112 -20.348  0.00  0.00    +0.134 C 
BRANCH  19  20
ATOM     20  O   UNL     1      34.922 -19.297 -21.350  0.00  0.00    -0.506 OA
ATOM     21  H   UNL     1      35.796 -18.959 -21.336  0.00  0.00    +0.292 HD
ENDBRANCH  19  20
ENDBRANCH   7  14
BRANCH  12  22
ATOM     22  O   UNL     1      29.991 -24.813 -12.140  0.00  0.00    -0.506 OA
ATOM     23  H   UNL     1      29.190 -24.518 -11.755  0.00  0.00    +0.292 HD
ENDBRANCH  12  22
TORSDOF 3
ENDMDL
MODEL 2
REMARK VINA RESULT:     -10.2      4.870      9.815
REMARK  Name = 10286159
REMARK  3 active torsions:
REMARK  status: ('A' for Active; 'I' for Inactive)
REMARK    1  A    between atoms: C_7  and  C_14
REMARK    2  A    between atoms: C_12  and  O_22
REMARK    3  A    between atoms: C_19  and  O_20
REMARK                            x       y       z     vdW  Elec       q    Type
REMARK                         _______ _______ _______ _____ _____    ______ ____
ROOT
ATOM      1  O   UNL     1      33.995 -16.557 -20.808  0.00  0.00    -0.475 OA
ATOM      2  C   UNL     1      34.670 -17.640 -22.907  0.00  0.00    +0.049 C 
ATOM      3  C   UNL     1      34.848 -16.288 -23.615  0.00  0.00    +0.029 C 
ATOM      4  C   UNL     1      33.256 -18.107 -23.303  0.00  0.00    +0.004 C 
ATOM      5  C   UNL     1      34.117 -16.525 -24.939  0.00  0.00    +0.005 C 
ATOM      6  C   UNL     1      32.877 -17.323 -24.558  0.00  0.00    +0.000 C 
ATOM      7  C   UNL     1      34.913 -17.486 -21.402  0.00  0.00    +0.188 C 
ATOM      8  C   UNL     1      34.307 -15.149 -22.782  0.00  0.00    +0.015 C 
ATOM      9  C   UNL     1      33.920 -15.347 -21.448  0.00  0.00    +0.135 C 
ATOM     10  C   UNL     1      34.212 -13.857 -23.322  0.00  0.00    +0.035 C 
ATOM     11  C   UNL     1      33.392 -14.293 -20.697  0.00  0.00    +0.040 C 
ATOM     12  C   UNL     1      33.700 -12.802 -22.565  0.00  0.00    +0.134 C 
ATOM     13  C   UNL     1      33.284 -13.022 -21.256  0.00  0.00    +0.040 C 
ENDROOT
BRANCH   7  14
ATOM     14  C   UNL     1      34.856 -18.819 -20.677  0.00  0.00    +0.017 C 
ATOM     15  C   UNL     1      36.031 -19.417 -20.225  0.00  0.00    +0.002 C 
ATOM     16  C   UNL     1      33.627 -19.443 -20.467  0.00  0.00    +0.002 C 
ATOM     17  C   UNL     1      35.977 -20.642 -19.561  0.00  0.00    +0.036 C 
ATOM     18  C   UNL     1      33.573 -20.669 -19.802  0.00  0.00    +0.036 C 
ATOM     19  C   UNL     1      34.749 -21.267 -19.349  0.00  0.00    +0.134 C 
BRANCH  19  20
ATOM     20  O   UNL     1      34.697 -22.463 -18.699  0.00  0.00    -0.506 OA
ATOM     21  H   UNL     1      33.962 -23.031 -18.822  0.00  0.00    +0.292 HD
ENDBRANCH  19  20
ENDBRANCH   7  14
BRANCH  12  22
ATOM     22  O   UNL     1      33.607 -11.558 -23.110  0.00  0.00    -0.506 OA
ATOM     23  H   UNL     1      32.992 -10.941 -22.766  0.00  0.00    +0.292 HD
ENDBRANCH  12  22
TORSDOF 3
ENDMDL
MODEL 3
REMARK VINA RESULT:      -9.9      9.903     13.864
REMARK  Name = 10286159
REMARK  3 active torsions:
REMARK  status: ('A' for Active; 'I' for Inactive)
REMARK    1  A    between atoms: C_7  and  C_14
REMARK    2  A    between atoms: C_12  and  O_22
REMARK    3  A    between atoms: C_19  and  O_20
REMARK                            x       y       z     vdW  Elec       q    Type
REMARK                         _______ _______ _______ _____ _____    ______ ____
ROOT
ATOM      1  O   UNL     1      33.637 -11.070 -23.273  0.00  0.00    -0.475 OA
ATOM      2  C   UNL     1      31.591 -11.851 -22.159  0.00  0.00    +0.049 C 
ATOM      3  C   UNL     1      30.939 -10.463 -22.256  0.00  0.00    +0.029 C 
ATOM      4  C   UNL     1      32.196 -11.902 -20.742  0.00  0.00    +0.004 C 
ATOM      5  C   UNL     1      30.394 -10.269 -20.838  0.00  0.00    +0.005 C 
ATOM      6  C   UNL     1      31.480 -10.826 -19.928  0.00  0.00    +0.000 C 
ATOM      7  C   UNL     1      32.588 -12.049 -23.306  0.00  0.00    +0.188 C 
ATOM      8  C   UNL     1      31.929  -9.414 -22.708  0.00  0.00    +0.015 C 
ATOM      9  C   UNL     1      33.199  -9.773 -23.184  0.00  0.00    +0.135 C 
ATOM     10  C   UNL     1      31.580  -8.055 -22.690  0.00  0.00    +0.035 C 
ATOM     11  C   UNL     1      34.117  -8.794 -23.571  0.00  0.00    +0.040 C 
ATOM     12  C   UNL     1      32.492  -7.078 -23.093  0.00  0.00    +0.134 C 
ATOM     13  C   UNL     1      33.762  -7.447 -23.526  0.00  0.00    +0.040 C 
ENDROOT
BRANCH   7  14
ATOM     14  C   UNL     1      33.176 -13.449 -23.312  0.00  0.00    +0.017 C 
ATOM     15  C   UNL     1      33.794 -13.949 -22.168  0.00  0.00    +0.002 C 
ATOM     16  C   UNL     1      33.097 -14.230 -24.464  0.00  0.00    +0.002 C 
ATOM     17  C   UNL     1      34.334 -15.236 -22.175  0.00  0.00    +0.036 C 
ATOM     18  C   UNL     1      33.637 -15.517 -24.471  0.00  0.00    +0.036 C 
ATOM     19  C   UNL     1      34.256 -16.019 -23.326  0.00  0.00    +0.134 C 
BRANCH  19  20
ATOM     20  O   UNL     1      34.782 -17.275 -23.331  0.00  0.00    -0.506 OA
ATOM     21  H   UNL     1      35.535 -17.468 -22.809  0.00  0.00    +0.292 HD
ENDBRANCH  19  20
ENDBRANCH   7  14
BRANCH  12  22
ATOM     22  O   UNL     1      32.139  -5.764 -23.060  0.00  0.00    -0.506 OA
ATOM     23  H   UNL     1      31.259  -5.510 -23.257  0.00  0.00    +0.292 HD
ENDBRANCH  12  22
TORSDOF 3
ENDMDL
MODEL 4
REMARK VINA RESULT:      -9.4      9.310     12.345
REMARK  Name = 10286159
REMARK  3 active torsions:
REMARK  status: ('A' for Active; 'I' for Inactive)
REMARK    1  A    between atoms: C_7  and  C_14
REMARK    2  A    between atoms: C_12  and  O_22
REMARK    3  A    between atoms: C_19  and  O_20
REMARK                            x       y       z     vdW  Elec       q    Type
REMARK                         _______ _______ _______ _____ _____    ______ ____
ROOT
ATOM      1  O   UNL     1      32.755 -12.830 -23.658  0.00  0.00    -0.475 OA
ATOM      2  C   UNL     1      33.247 -12.491 -21.275  0.00  0.00    +0.049 C 
ATOM      3  C   UNL     1      34.049 -13.799 -21.195  0.00  0.00    +0.029 C 
ATOM      4  C   UNL     1      31.839 -12.863 -20.771  0.00  0.00    +0.004 C 
ATOM      5  C   UNL     1      33.487 -14.438 -19.921  0.00  0.00    +0.005 C 
ATOM      6  C   UNL     1      31.992 -14.158 -19.976  0.00  0.00    +0.000 C 
ATOM      7  C   UNL     1      33.307 -11.920 -22.695  0.00  0.00    +0.188 C 
ATOM      8  C   UNL     1      33.887 -14.628 -22.448  0.00  0.00    +0.015 C 
ATOM      9  C   UNL     1      33.261 -14.103 -23.589  0.00  0.00    +0.135 C 
ATOM     10  C   UNL     1      34.392 -15.936 -22.505  0.00  0.00    +0.035 C 
ATOM     11  C   UNL     1      33.089 -14.888 -24.732  0.00  0.00    +0.040 C 
ATOM     12  C   UNL     1      34.235 -16.713 -23.654  0.00  0.00    +0.134 C 
ATOM     13  C   UNL     1      33.577 -16.192 -24.764  0.00  0.00    +0.040 C 
ENDROOT
BRANCH   7  14
ATOM     14  C   UNL     1      32.619 -10.569 -22.794  0.00  0.00    +0.017 C 
ATOM     15  C   UNL     1      33.318  -9.467 -23.282  0.00  0.00    +0.002 C 
ATOM     16  C   UNL     1      31.291 -10.435 -22.394  0.00  0.00    +0.002 C 
ATOM     17  C   UNL     1      32.686  -8.226 -23.371  0.00  0.00    +0.036 C 
ATOM     18  C   UNL     1      30.659  -9.194 -22.483  0.00  0.00    +0.036 C 
ATOM     19  C   UNL     1      31.357  -8.090 -22.972  0.00  0.00    +0.134 C 
BRANCH  19  20
ATOM     20  O   UNL     1      30.740  -6.880 -23.061  0.00  0.00    -0.506 OA
ATOM     21  H   UNL     1      30.460  -6.439 -22.283  0.00  0.00    +0.292 HD
ENDBRANCH  19  20
ENDBRANCH   7  14
BRANCH  12  22
ATOM     22  O   UNL     1      34.724 -17.984 -23.686  0.00  0.00    -0.506 OA
ATOM     23  H   UNL     1      34.183 -18.686 -23.988  0.00  0.00    +0.292 HD
ENDBRANCH  12  22
TORSDOF 3
ENDMDL
MODEL 5
REMARK VINA RESULT:      -9.1      2.355      4.067
REMARK  Name = 10286159
REMARK  3 active torsions:
REMARK  status: ('A' for Active; 'I' for Inactive)
REMARK    1  A    between atoms: C_7  and  C_14
REMARK    2  A    between atoms: C_12  and  O_22
REMARK    3  A    between atoms: C_19  and  O_20
REMARK                            x       y       z     vdW  Elec       q    Type
REMARK                         _______ _______ _______ _____ _____    ______ ____
ROOT
ATOM      1  O   UNL     1      35.964 -23.620 -15.904  0.00  0.00    -0.475 OA
ATOM      2  C   UNL     1      34.011 -22.423 -15.015  0.00  0.00    +0.049 C 
ATOM      3  C   UNL     1      34.308 -22.885 -13.581  0.00  0.00    +0.029 C 
ATOM      4  C   UNL     1      32.963 -23.424 -15.541  0.00  0.00    +0.004 C 
ATOM      5  C   UNL     1      32.931 -23.359 -13.109  0.00  0.00    +0.005 C 
ATOM      6  C   UNL     1      32.337 -24.079 -14.311  0.00  0.00    +0.000 C 
ATOM      7  C   UNL     1      35.309 -22.346 -15.826  0.00  0.00    +0.188 C 
ATOM      8  C   UNL     1      35.390 -23.940 -13.549  0.00  0.00    +0.015 C 
ATOM      9  C   UNL     1      36.144 -24.239 -14.694  0.00  0.00    +0.135 C 
ATOM     10  C   UNL     1      35.685 -24.619 -12.357  0.00  0.00    +0.035 C 
ATOM     11  C   UNL     1      37.121 -25.237 -14.661  0.00  0.00    +0.040 C 
ATOM     12  C   UNL     1      36.673 -25.604 -12.322  0.00  0.00    +0.134 C 
ATOM     13  C   UNL     1      37.386 -25.918 -13.474  0.00  0.00    +0.040 C 
ENDROOT
BRANCH   7  14
ATOM     14  C   UNL     1      35.076 -21.788 -17.219  0.00  0.00    +0.017 C 
ATOM     15  C   UNL     1      33.823 -21.910 -17.817  0.00  0.00    +0.002 C 
ATOM     16  C   UNL     1      36.117 -21.156 -17.898  0.00  0.00    +0.002 C 
ATOM     17  C   UNL     1      33.611 -21.398 -19.098  0.00  0.00    +0.036 C 
ATOM     18  C   UNL     1      35.905 -20.644 -19.178  0.00  0.00    +0.036 C 
ATOM     19  C   UNL     1      34.651 -20.765 -19.777  0.00  0.00    +0.134 C 
BRANCH  19  20
ATOM     20  O   UNL     1      34.442 -20.264 -21.026  0.00  0.00    -0.506 OA
ATOM     21  H   UNL     1      33.791 -19.604 -21.163  0.00  0.00    +0.292 HD
ENDBRANCH  19  20
ENDBRANCH   7  14
BRANCH  12  22
ATOM     22  O   UNL     1      36.938 -26.259 -11.157  0.00  0.00    -0.506 OA
ATOM     23  H   UNL     1      36.237 -26.628 -10.658  0.00  0.00    +0.292 HD
ENDBRANCH  12  22
TORSDOF 3
ENDMDL
MODEL 6
REMARK VINA RESULT:      -9.1     13.186     17.194
REMARK  Name = 10286159
REMARK  3 active torsions:
REMARK  status: ('A' for Active; 'I' for Inactive)
REMARK    1  A    between atoms: C_7  and  C_14
REMARK    2  A    between atoms: C_12  and  O_22
REMARK    3  A    between atoms: C_19  and  O_20
REMARK                            x       y       z     vdW  Elec       q    Type
REMARK                         _______ _______ _______ _____ _____    ______ ____
ROOT
ATOM      1  O   UNL     1      32.703  -7.718 -23.493  0.00  0.00    -0.475 OA
ATOM      2  C   UNL     1      31.130  -7.468 -21.623  0.00  0.00    +0.049 C 
ATOM      3  C   UNL     1      30.777  -6.031 -22.035  0.00  0.00    +0.029 C 
ATOM      4  C   UNL     1      32.208  -7.311 -20.533  0.00  0.00    +0.004 C 
ATOM      5  C   UNL     1      30.867  -5.288 -20.699  0.00  0.00    +0.005 C 
ATOM      6  C   UNL     1      32.086  -5.882 -20.007  0.00  0.00    +0.000 C 
ATOM      7  C   UNL     1      31.551  -8.283 -22.850  0.00  0.00    +0.188 C 
ATOM      8  C   UNL     1      31.704  -5.519 -23.113  0.00  0.00    +0.015 C 
ATOM      9  C   UNL     1      32.597  -6.379 -23.770  0.00  0.00    +0.135 C 
ATOM     10  C   UNL     1      31.664  -4.171 -23.502  0.00  0.00    +0.035 C 
ATOM     11  C   UNL     1      33.471  -5.889 -24.744  0.00  0.00    +0.040 C 
ATOM     12  C   UNL     1      32.526  -3.687 -24.488  0.00  0.00    +0.134 C 
ATOM     13  C   UNL     1      33.433  -4.543 -25.103  0.00  0.00    +0.040 C 
ENDROOT
BRANCH   7  14
ATOM     14  C   UNL     1      31.803  -9.741 -22.506  0.00  0.00    +0.017 C 
ATOM     15  C   UNL     1      32.749 -10.471 -23.223  0.00  0.00    +0.002 C 
ATOM     16  C   UNL     1      31.087 -10.345 -21.474  0.00  0.00    +0.002 C 
ATOM     17  C   UNL     1      32.979 -11.811 -22.907  0.00  0.00    +0.036 C 
ATOM     18  C   UNL     1      31.317 -11.684 -21.158  0.00  0.00    +0.036 C 
ATOM     19  C   UNL     1      32.263 -12.416 -21.874  0.00  0.00    +0.134 C 
BRANCH  19  20
ATOM     20  O   UNL     1      32.490 -13.723 -21.566  0.00  0.00    -0.506 OA
ATOM     21  H   UNL     1      31.858 -14.202 -21.066  0.00  0.00    +0.292 HD
ENDBRANCH  19  20
ENDBRANCH   7  14
BRANCH  12  22
ATOM     22  O   UNL     1      32.479  -2.373 -24.845  0.00  0.00    -0.506 OA
ATOM     23  H   UNL     1      33.230  -1.828 -24.722  0.00  0.00    +0.292 HD
ENDBRANCH  12  22
TORSDOF 3
ENDMDL
MODEL 7
REMARK VINA RESULT:      -9.1      3.542      6.443
REMARK  Name = 10286159
REMARK  3 active torsions:
REMARK  status: ('A' for Active; 'I' for Inactive)
REMARK    1  A    between atoms: C_7  and  C_14
REMARK    2  A    between atoms: C_12  and  O_22
REMARK    3  A    between atoms: C_19  and  O_20
REMARK                            x       y       z     vdW  Elec       q    Type
REMARK                         _______ _______ _______ _____ _____    ______ ____
ROOT
ATOM      1  O   UNL     1      35.087 -24.961 -14.446  0.00  0.00    -0.475 OA
ATOM      2  C   UNL     1      35.110 -22.862 -13.170  0.00  0.00    +0.049 C 
ATOM      3  C   UNL     1      36.644 -22.793 -13.200  0.00  0.00    +0.029 C 
ATOM      4  C   UNL     1      34.773 -23.504 -11.810  0.00  0.00    +0.004 C 
ATOM      5  C   UNL     1      36.976 -22.473 -11.740  0.00  0.00    +0.005 C 
ATOM      6  C   UNL     1      36.008 -23.323 -10.929  0.00  0.00    +0.000 C 
ATOM      7  C   UNL     1      34.589 -23.616 -14.398  0.00  0.00    +0.188 C 
ATOM      8  C   UNL     1      37.248 -24.075 -13.726  0.00  0.00    +0.015 C 
ATOM      9  C   UNL     1      36.447 -25.067 -14.310  0.00  0.00    +0.135 C 
ATOM     10  C   UNL     1      38.635 -24.282 -13.667  0.00  0.00    +0.035 C 
ATOM     11  C   UNL     1      37.012 -26.261 -14.765  0.00  0.00    +0.040 C 
ATOM     12  C   UNL     1      39.200 -25.468 -14.138  0.00  0.00    +0.134 C 
ATOM     13  C   UNL     1      38.389 -26.460 -14.679  0.00  0.00    +0.040 C 
ENDROOT
BRANCH   7  14
ATOM     14  C   UNL     1      33.072 -23.614 -14.466  0.00  0.00    +0.017 C 
ATOM     15  C   UNL     1      32.337 -24.455 -13.633  0.00  0.00    +0.002 C 
ATOM     16  C   UNL     1      32.418 -22.770 -15.363  0.00  0.00    +0.002 C 
ATOM     17  C   UNL     1      30.943 -24.453 -13.696  0.00  0.00    +0.036 C 
ATOM     18  C   UNL     1      31.024 -22.768 -15.426  0.00  0.00    +0.036 C 
ATOM     19  C   UNL     1      30.287 -23.609 -14.592  0.00  0.00    +0.134 C 
BRANCH  19  20
ATOM     20  O   UNL     1      28.927 -23.607 -14.652  0.00  0.00    -0.506 OA
ATOM     21  H   UNL     1      28.484 -22.986 -15.196  0.00  0.00    +0.292 HD
ENDBRANCH  19  20
ENDBRANCH   7  14
BRANCH  12  22
ATOM     22  O   UNL     1      40.547 -25.655 -14.064  0.00  0.00    -0.506 OA
ATOM     23  H   UNL     1      40.933 -26.427 -14.426  0.00  0.00    +0.292 HD
ENDBRANCH  12  22
TORSDOF 3
ENDMDL
MODEL 8
REMARK VINA RESULT:      -9.1      1.402      6.306
REMARK  Name = 10286159
REMARK  3 active torsions:
REMARK  status: ('A' for Active; 'I' for Inactive)
REMARK    1  A    between atoms: C_7  and  C_14
REMARK    2  A    between atoms: C_12  and  O_22
REMARK    3  A    between atoms: C_19  and  O_20
REMARK                            x       y       z     vdW  Elec       q    Type
REMARK                         _______ _______ _______ _____ _____    ______ ____
ROOT
ATOM      1  O   UNL     1      32.392 -22.949 -16.976  0.00  0.00    -0.475 OA
ATOM      2  C   UNL     1      33.580 -23.092 -14.831  0.00  0.00    +0.049 C 
ATOM      3  C   UNL     1      34.726 -22.205 -15.340  0.00  0.00    +0.029 C 
ATOM      4  C   UNL     1      34.083 -24.535 -15.028  0.00  0.00    +0.004 C 
ATOM      5  C   UNL     1      35.960 -22.994 -14.891  0.00  0.00    +0.005 C 
ATOM      6  C   UNL     1      35.603 -24.451 -15.151  0.00  0.00    +0.000 C 
ATOM      7  C   UNL     1      32.278 -22.745 -15.561  0.00  0.00    +0.188 C 
ATOM      8  C   UNL     1      34.628 -21.970 -16.830  0.00  0.00    +0.015 C 
ATOM      9  C   UNL     1      33.483 -22.348 -17.549  0.00  0.00    +0.135 C 
ATOM     10  C   UNL     1      35.672 -21.336 -17.520  0.00  0.00    +0.035 C 
ATOM     11  C   UNL     1      33.415 -22.154 -18.931  0.00  0.00    +0.040 C 
ATOM     12  C   UNL     1      35.595 -21.127 -18.897  0.00  0.00    +0.134 C 
ATOM     13  C   UNL     1      34.471 -21.542 -19.604  0.00  0.00    +0.040 C 
ENDROOT
BRANCH   7  14
ATOM     14  C   UNL     1      31.094 -23.522 -15.011  0.00  0.00    +0.017 C 
ATOM     15  C   UNL     1      31.104 -23.961 -13.688  0.00  0.00    +0.002 C 
ATOM     16  C   UNL     1      30.001 -23.795 -15.831  0.00  0.00    +0.002 C 
ATOM     17  C   UNL     1      30.017 -24.675 -13.184  0.00  0.00    +0.036 C 
ATOM     18  C   UNL     1      28.913 -24.509 -15.327  0.00  0.00    +0.036 C 
ATOM     19  C   UNL     1      28.922 -24.948 -14.003  0.00  0.00    +0.134 C 
BRANCH  19  20
ATOM     20  O   UNL     1      27.860 -25.644 -13.510  0.00  0.00    -0.506 OA
ATOM     21  H   UNL     1      27.084 -25.190 -13.248  0.00  0.00    +0.292 HD
ENDBRANCH  19  20
ENDBRANCH   7  14
BRANCH  12  22
ATOM     22  O   UNL     1      36.624 -20.518 -19.551  0.00  0.00    -0.506 OA
ATOM     23  H   UNL     1      36.468 -20.082 -20.365  0.00  0.00    +0.292 HD
ENDBRANCH  12  22
TORSDOF 3
ENDMDL
MODEL 9
REMARK VINA RESULT:      -9.0      1.062      1.649
REMARK  Name = 10286159
REMARK  3 active torsions:
REMARK  status: ('A' for Active; 'I' for Inactive)
REMARK    1  A    between atoms: C_7  and  C_14
REMARK    2  A    between atoms: C_12  and  O_22
REMARK    3  A    between atoms: C_19  and  O_20
REMARK                            x       y       z     vdW  Elec       q    Type
REMARK                         _______ _______ _______ _____ _____    ______ ____
ROOT
ATOM      1  O   UNL     1      32.905 -21.987 -16.987  0.00  0.00    -0.475 OA
ATOM      2  C   UNL     1      35.315 -22.442 -16.842  0.00  0.00    +0.049 C 
ATOM      3  C   UNL     1      35.105 -23.523 -15.770  0.00  0.00    +0.029 C 
ATOM      4  C   UNL     1      35.665 -21.167 -16.050  0.00  0.00    +0.004 C 
ATOM      5  C   UNL     1      36.167 -23.150 -14.732  0.00  0.00    +0.005 C 
ATOM      6  C   UNL     1      36.130 -21.630 -14.670  0.00  0.00    +0.000 C 
ATOM      7  C   UNL     1      34.076 -22.338 -17.738  0.00  0.00    +0.188 C 
ATOM      8  C   UNL     1      33.684 -23.526 -15.255  0.00  0.00    +0.015 C 
ATOM      9  C   UNL     1      32.683 -22.772 -15.885  0.00  0.00    +0.135 C 
ATOM     10  C   UNL     1      33.332 -24.316 -14.150  0.00  0.00    +0.035 C 
ATOM     11  C   UNL     1      31.379 -22.759 -15.382  0.00  0.00    +0.040 C 
ATOM     12  C   UNL     1      32.025 -24.315 -13.659  0.00  0.00    +0.134 C 
ATOM     13  C   UNL     1      31.051 -23.531 -14.270  0.00  0.00    +0.040 C 
ENDROOT
BRANCH   7  14
ATOM     14  C   UNL     1      34.282 -21.358 -18.880  0.00  0.00    +0.017 C 
ATOM     15  C   UNL     1      33.182 -20.755 -19.487  0.00  0.00    +0.002 C 
ATOM     16  C   UNL     1      35.572 -21.064 -19.319  0.00  0.00    +0.002 C 
ATOM     17  C   UNL     1      33.372 -19.856 -20.536  0.00  0.00    +0.036 C 
ATOM     18  C   UNL     1      35.762 -20.164 -20.369  0.00  0.00    +0.036 C 
ATOM     19  C   UNL     1      34.661 -19.560 -20.976  0.00  0.00    +0.134 C 
BRANCH  19  20
ATOM     20  O   UNL     1      34.846 -18.681 -22.000  0.00  0.00    -0.506 OA
ATOM     21  H   UNL     1      34.434 -17.840 -21.974  0.00  0.00    +0.292 HD
ENDBRANCH  19  20
ENDBRANCH   7  14
BRANCH  12  22
ATOM     22  O   UNL     1      31.704 -25.081 -12.579  0.00  0.00    -0.506 OA
ATOM     23  H   UNL     1      31.488 -25.984 -12.694  0.00  0.00    +0.292 HD
ENDBRANCH  12  22
TORSDOF 3
ENDMDL
