MODEL 1
REMARK VINA RESULT:     -11.4      0.000      0.000
REMARK  Name = 445650
REMARK  8 active torsions:
REMARK  status: ('A' for Active; 'I' for Inactive)
REMARK    1  A    between atoms: C_1  and  N_8
REMARK    2  A    between atoms: C_2  and  C_18
REMARK    3  A    between atoms: C_9  and  C_11
REMARK    4  A    between atoms: C_11  and  C_12
REMARK    5  A    between atoms: C_12  and  C_13
REMARK    6  A    between atoms: C_13  and  C_15
REMARK    7  A    between atoms: C_15  and  O_16
REMARK    8  A    between atoms: C_19  and  C_20
REMARK                            x       y       z     vdW  Elec       q    Type
REMARK                         _______ _______ _______ _____ _____    ______ ____
ROOT
ATOM      1  C   UNL     1      34.106 -20.058 -20.463  0.00  0.00    +0.050 C 
ATOM      2  C   UNL     1      33.199 -21.672 -18.404  0.00  0.00    +0.000 C 
ATOM      3  C   UNL     1      32.754 -20.077 -20.164  0.00  0.00    +0.015 C 
ATOM      4  C   UNL     1      35.015 -20.827 -19.756  0.00  0.00    +0.015 C 
ATOM      5  C   UNL     1      32.297 -20.890 -19.126  0.00  0.00    +0.001 C 
ATOM      6  C   UNL     1      34.558 -21.640 -18.719  0.00  0.00    +0.001 C 
ENDROOT
BRANCH   1   8
ATOM      7  O   UNL     1      35.141 -17.238 -20.410  0.00  0.00    -0.275 OA
ATOM      8  N   UNL     1      34.571 -19.231 -21.515  0.00  0.00    -0.284 N 
ATOM      9  C   UNL     1      35.041 -17.924 -21.422  0.00  0.00    +0.226 C 
ATOM     10  H   UNL     1      34.559 -19.626 -22.416  0.00  0.00    +0.155 HD
BRANCH   9  11
ATOM     11  C   UNL     1      35.440 -17.402 -22.796  0.00  0.00    +0.086 C 
BRANCH  11  12
ATOM     12  C   UNL     1      34.275 -16.741 -23.533  0.00  0.00    +0.021 C 
BRANCH  12  13
ATOM     13  C   UNL     1      34.254 -15.227 -23.356  0.00  0.00    +0.110 C 
BRANCH  13  15
ATOM     14  O   UNL     1      32.704 -13.507 -24.045  0.00  0.00    -0.250 OA
ATOM     15  C   UNL     1      33.268 -14.567 -24.288  0.00  0.00    +0.314 C 
BRANCH  15  16
ATOM     16  O   UNL     1      33.048 -15.284 -25.417  0.00  0.00    -0.480 OA
ATOM     17  H   UNL     1      33.219 -16.205 -25.429  0.00  0.00    +0.295 HD
ENDBRANCH  15  16
ENDBRANCH  13  15
ENDBRANCH  12  13
ENDBRANCH  11  12
ENDBRANCH   9  11
ENDBRANCH   1   8
BRANCH   2  18
ATOM     18  C   UNL     1      32.723 -22.519 -17.322  0.00  0.00    +0.000 C 
ATOM     19  C   UNL     1      31.553 -22.355 -16.659  0.00  0.00    +0.000 C 
BRANCH  19  20
ATOM     20  C   UNL     1      31.061 -23.225 -15.576  0.00  0.00    +0.000 C 
ATOM     21  C   UNL     1      29.754 -23.683 -15.616  0.00  0.00    +0.000 C 
ATOM     22  C   UNL     1      31.914 -23.567 -14.540  0.00  0.00    +0.000 C 
ATOM     23  C   UNL     1      29.288 -24.506 -14.591  0.00  0.00    +0.000 C 
ATOM     24  C   UNL     1      31.449 -24.391 -13.516  0.00  0.00    +0.000 C 
ATOM     25  C   UNL     1      30.135 -24.861 -13.541  0.00  0.00    +0.000 C 
ENDBRANCH  19  20
ENDBRANCH   2  18
TORSDOF 8
ENDMDL
MODEL 2
REMARK VINA RESULT:     -11.2      5.173     10.125
REMARK  Name = 445650
REMARK  8 active torsions:
REMARK  status: ('A' for Active; 'I' for Inactive)
REMARK    1  A    between atoms: C_1  and  N_8
REMARK    2  A    between atoms: C_2  and  C_18
REMARK    3  A    between atoms: C_9  and  C_11
REMARK    4  A    between atoms: C_11  and  C_12
REMARK    5  A    between atoms: C_12  and  C_13
REMARK    6  A    between atoms: C_13  and  C_15
REMARK    7  A    between atoms: C_15  and  O_16
REMARK    8  A    between atoms: C_19  and  C_20
REMARK                            x       y       z     vdW  Elec       q    Type
REMARK                         _______ _______ _______ _____ _____    ______ ____
ROOT
ATOM      1  C   UNL     1      35.199 -22.275 -16.991  0.00  0.00    +0.050 C 
ATOM      2  C   UNL     1      34.506 -20.815 -19.240  0.00  0.00    +0.000 C 
ATOM      3  C   UNL     1      33.888 -22.297 -17.435  0.00  0.00    +0.015 C 
ATOM      4  C   UNL     1      36.172 -21.538 -17.647  0.00  0.00    +0.015 C 
ATOM      5  C   UNL     1      33.538 -21.563 -18.569  0.00  0.00    +0.001 C 
ATOM      6  C   UNL     1      35.823 -20.803 -18.779  0.00  0.00    +0.001 C 
ENDROOT
BRANCH   1   8
ATOM      7  O   UNL     1      37.562 -22.016 -15.154  0.00  0.00    -0.275 OA
ATOM      8  N   UNL     1      35.554 -23.022 -15.843  0.00  0.00    -0.284 N 
ATOM      9  C   UNL     1      36.671 -22.849 -15.029  0.00  0.00    +0.226 C 
ATOM     10  H   UNL     1      34.941 -23.749 -15.590  0.00  0.00    +0.155 HD
BRANCH   9  11
ATOM     11  C   UNL     1      36.671 -23.870 -13.899  0.00  0.00    +0.086 C 
BRANCH  11  12
ATOM     12  C   UNL     1      37.323 -25.192 -14.304  0.00  0.00    +0.021 C 
BRANCH  12  13
ATOM     13  C   UNL     1      38.699 -25.383 -13.677  0.00  0.00    +0.110 C 
BRANCH  13  15
ATOM     14  O   UNL     1      40.571 -23.987 -14.295  0.00  0.00    -0.250 OA
ATOM     15  C   UNL     1      39.802 -24.895 -14.586  0.00  0.00    +0.314 C 
BRANCH  15  16
ATOM     16  O   UNL     1      39.836 -25.548 -15.772  0.00  0.00    -0.480 OA
ATOM     17  H   UNL     1      39.055 -25.633 -16.283  0.00  0.00    +0.295 HD
ENDBRANCH  15  16
ENDBRANCH  13  15
ENDBRANCH  12  13
ENDBRANCH  11  12
ENDBRANCH   9  11
ENDBRANCH   1   8
BRANCH   2  18
ATOM     18  C   UNL     1      34.142 -20.048 -20.421  0.00  0.00    +0.000 C 
ATOM     19  C   UNL     1      34.833 -18.989 -20.907  0.00  0.00    +0.000 C 
BRANCH  19  20
ATOM     20  C   UNL     1      34.477 -18.224 -22.115  0.00  0.00    +0.000 C 
ATOM     21  C   UNL     1      34.769 -16.871 -22.171  0.00  0.00    +0.000 C 
ATOM     22  C   UNL     1      33.857 -18.873 -23.171  0.00  0.00    +0.000 C 
ATOM     23  C   UNL     1      34.431 -16.147 -23.315  0.00  0.00    +0.000 C 
ATOM     24  C   UNL     1      33.521 -18.149 -24.314  0.00  0.00    +0.000 C 
ATOM     25  C   UNL     1      33.808 -16.786 -24.387  0.00  0.00    +0.000 C 
ENDBRANCH  19  20
ENDBRANCH   2  18
TORSDOF 8
ENDMDL
MODEL 3
REMARK VINA RESULT:     -10.9      3.158      4.081
REMARK  Name = 445650
REMARK  8 active torsions:
REMARK  status: ('A' for Active; 'I' for Inactive)
REMARK    1  A    between atoms: C_1  and  N_8
REMARK    2  A    between atoms: C_2  and  C_18
REMARK    3  A    between atoms: C_9  and  C_11
REMARK    4  A    between atoms: C_11  and  C_12
REMARK    5  A    between atoms: C_12  and  C_13
REMARK    6  A    between atoms: C_13  and  C_15
REMARK    7  A    between atoms: C_15  and  O_16
REMARK    8  A    between atoms: C_19  and  C_20
REMARK                            x       y       z     vdW  Elec       q    Type
REMARK                         _______ _______ _______ _____ _____    ______ ____
ROOT
ATOM      1  C   UNL     1      34.831 -18.459 -21.443  0.00  0.00    +0.050 C 
ATOM      2  C   UNL     1      35.340 -20.392 -19.526  0.00  0.00    +0.000 C 
ATOM      3  C   UNL     1      33.798 -19.274 -21.012  0.00  0.00    +0.015 C 
ATOM      4  C   UNL     1      36.114 -18.589 -20.936  0.00  0.00    +0.015 C 
ATOM      5  C   UNL     1      34.054 -20.248 -20.046  0.00  0.00    +0.001 C 
ATOM      6  C   UNL     1      36.370 -19.562 -19.971  0.00  0.00    +0.001 C 
ENDROOT
BRANCH   1   8
ATOM      7  O   UNL     1      33.573 -18.693 -24.160  0.00  0.00    -0.275 OA
ATOM      8  N   UNL     1      34.571 -17.470 -22.421  0.00  0.00    -0.284 N 
ATOM      9  C   UNL     1      33.979 -17.645 -23.669  0.00  0.00    +0.226 C 
ATOM     10  H   UNL     1      34.839 -16.551 -22.193  0.00  0.00    +0.155 HD
BRANCH   9  11
ATOM     11  C   UNL     1      33.888 -16.316 -24.408  0.00  0.00    +0.086 C 
BRANCH  11  12
ATOM     12  C   UNL     1      34.534 -15.169 -23.631  0.00  0.00    +0.021 C 
BRANCH  12  13
ATOM     13  C   UNL     1      33.506 -14.236 -23.002  0.00  0.00    +0.110 C 
BRANCH  13  15
ATOM     14  O   UNL     1      34.255 -14.981 -20.830  0.00  0.00    -0.250 OA
ATOM     15  C   UNL     1      33.679 -14.137 -21.506  0.00  0.00    +0.314 C 
BRANCH  15  16
ATOM     16  O   UNL     1      33.107 -13.027 -20.981  0.00  0.00    -0.480 OA
ATOM     17  H   UNL     1      32.711 -13.061 -20.132  0.00  0.00    +0.295 HD
ENDBRANCH  15  16
ENDBRANCH  13  15
ENDBRANCH  12  13
ENDBRANCH  11  12
ENDBRANCH   9  11
ENDBRANCH   1   8
BRANCH   2  18
ATOM     18  C   UNL     1      35.608 -21.407 -18.519  0.00  0.00    +0.000 C 
ATOM     19  C   UNL     1      36.113 -21.167 -17.285  0.00  0.00    +0.000 C 
BRANCH  19  20
ATOM     20  C   UNL     1      36.366 -22.192 -16.257  0.00  0.00    +0.000 C 
ATOM     21  C   UNL     1      35.294 -22.865 -15.693  0.00  0.00    +0.000 C 
ATOM     22  C   UNL     1      37.670 -22.463 -15.875  0.00  0.00    +0.000 C 
ATOM     23  C   UNL     1      35.534 -23.836 -14.719  0.00  0.00    +0.000 C 
ATOM     24  C   UNL     1      37.909 -23.433 -14.903  0.00  0.00    +0.000 C 
ATOM     25  C   UNL     1      36.841 -24.121 -14.325  0.00  0.00    +0.000 C 
ENDBRANCH  19  20
ENDBRANCH   2  18
TORSDOF 8
ENDMDL
MODEL 4
REMARK VINA RESULT:     -10.7      4.971     10.319
REMARK  Name = 445650
REMARK  8 active torsions:
REMARK  status: ('A' for Active; 'I' for Inactive)
REMARK    1  A    between atoms: C_1  and  N_8
REMARK    2  A    between atoms: C_2  and  C_18
REMARK    3  A    between atoms: C_9  and  C_11
REMARK    4  A    between atoms: C_11  and  C_12
REMARK    5  A    between atoms: C_12  and  C_13
REMARK    6  A    between atoms: C_13  and  C_15
REMARK    7  A    between atoms: C_15  and  O_16
REMARK    8  A    between atoms: C_19  and  C_20
REMARK                            x       y       z     vdW  Elec       q    Type
REMARK                         _______ _______ _______ _____ _____    ______ ____
ROOT
ATOM      1  C   UNL     1      35.002 -21.997 -17.427  0.00  0.00    +0.050 C 
ATOM      2  C   UNL     1      34.423 -20.512 -19.692  0.00  0.00    +0.000 C 
ATOM      3  C   UNL     1      33.705 -21.980 -17.912  0.00  0.00    +0.015 C 
ATOM      4  C   UNL     1      36.016 -21.289 -18.050  0.00  0.00    +0.015 C 
ATOM      5  C   UNL     1      33.413 -21.232 -19.054  0.00  0.00    +0.001 C 
ATOM      6  C   UNL     1      35.724 -20.541 -19.190  0.00  0.00    +0.001 C 
ENDROOT
BRANCH   1   8
ATOM      7  O   UNL     1      37.368 -21.888 -15.581  0.00  0.00    -0.275 OA
ATOM      8  N   UNL     1      35.298 -22.758 -16.271  0.00  0.00    -0.284 N 
ATOM      9  C   UNL     1      36.421 -22.656 -15.453  0.00  0.00    +0.226 C 
ATOM     10  H   UNL     1      34.635 -23.438 -16.016  0.00  0.00    +0.155 HD
BRANCH   9  11
ATOM     11  C   UNL     1      36.344 -23.665 -14.314  0.00  0.00    +0.086 C 
BRANCH  11  12
ATOM     12  C   UNL     1      35.393 -24.822 -14.620  0.00  0.00    +0.021 C 
BRANCH  12  13
ATOM     13  C   UNL     1      36.131 -26.104 -14.990  0.00  0.00    +0.110 C 
BRANCH  13  15
ATOM     14  O   UNL     1      38.367 -26.537 -14.187  0.00  0.00    -0.250 OA
ATOM     15  C   UNL     1      37.166 -26.473 -13.956  0.00  0.00    +0.314 C 
BRANCH  15  16
ATOM     16  O   UNL     1      36.626 -26.756 -12.746  0.00  0.00    -0.480 OA
ATOM     17  H   UNL     1      36.005 -26.169 -12.361  0.00  0.00    +0.295 HD
ENDBRANCH  15  16
ENDBRANCH  13  15
ENDBRANCH  12  13
ENDBRANCH  11  12
ENDBRANCH   9  11
ENDBRANCH   1   8
BRANCH   2  18
ATOM     18  C   UNL     1      34.119 -19.732 -20.882  0.00  0.00    +0.000 C 
ATOM     19  C   UNL     1      34.648 -18.521 -21.176  0.00  0.00    +0.000 C 
BRANCH  19  20
ATOM     20  C   UNL     1      34.357 -17.739 -22.391  0.00  0.00    +0.000 C 
ATOM     21  C   UNL     1      33.771 -18.368 -23.477  0.00  0.00    +0.000 C 
ATOM     22  C   UNL     1      34.674 -16.391 -22.422  0.00  0.00    +0.000 C 
ATOM     23  C   UNL     1      33.495 -17.627 -24.627  0.00  0.00    +0.000 C 
ATOM     24  C   UNL     1      34.397 -15.651 -23.571  0.00  0.00    +0.000 C 
ATOM     25  C   UNL     1      33.807 -16.269 -24.674  0.00  0.00    +0.000 C 
ENDBRANCH  19  20
ENDBRANCH   2  18
TORSDOF 8
ENDMDL
MODEL 5
REMARK VINA RESULT:     -10.6      6.421     12.467
REMARK  Name = 445650
REMARK  8 active torsions:
REMARK  status: ('A' for Active; 'I' for Inactive)
REMARK    1  A    between atoms: C_1  and  N_8
REMARK    2  A    between atoms: C_2  and  C_18
REMARK    3  A    between atoms: C_9  and  C_11
REMARK    4  A    between atoms: C_11  and  C_12
REMARK    5  A    between atoms: C_12  and  C_13
REMARK    6  A    between atoms: C_13  and  C_15
REMARK    7  A    between atoms: C_15  and  O_16
REMARK    8  A    between atoms: C_19  and  C_20
REMARK                            x       y       z     vdW  Elec       q    Type
REMARK                         _______ _______ _______ _____ _____    ______ ____
ROOT
ATOM      1  C   UNL     1      32.933 -13.213 -22.712  0.00  0.00    +0.050 C 
ATOM      2  C   UNL     1      31.837 -10.708 -22.270  0.00  0.00    +0.000 C 
ATOM      3  C   UNL     1      32.066 -13.032 -21.648  0.00  0.00    +0.015 C 
ATOM      4  C   UNL     1      33.265 -12.169 -23.561  0.00  0.00    +0.015 C 
ATOM      5  C   UNL     1      31.513 -11.770 -21.425  0.00  0.00    +0.001 C 
ATOM      6  C   UNL     1      32.713 -10.908 -23.338  0.00  0.00    +0.001 C 
ENDROOT
BRANCH   1   8
ATOM      7  O   UNL     1      33.135 -14.827 -25.237  0.00  0.00    -0.275 OA
ATOM      8  N   UNL     1      33.492 -14.493 -22.940  0.00  0.00    -0.284 N 
ATOM      9  C   UNL     1      33.555 -15.190 -24.144  0.00  0.00    +0.226 C 
ATOM     10  H   UNL     1      33.881 -14.944 -22.156  0.00  0.00    +0.155 HD
BRANCH   9  11
ATOM     11  C   UNL     1      34.239 -16.537 -23.946  0.00  0.00    +0.086 C 
BRANCH  11  12
ATOM     12  C   UNL     1      34.789 -16.711 -22.530  0.00  0.00    +0.021 C 
BRANCH  12  13
ATOM     13  C   UNL     1      35.188 -18.152 -22.231  0.00  0.00    +0.110 C 
BRANCH  13  15
ATOM     14  O   UNL     1      36.418 -18.405 -20.168  0.00  0.00    -0.250 OA
ATOM     15  C   UNL     1      36.432 -18.224 -21.379  0.00  0.00    +0.314 C 
BRANCH  15  16
ATOM     16  O   UNL     1      37.570 -18.041 -22.091  0.00  0.00    -0.480 OA
ATOM     17  H   UNL     1      38.375 -18.416 -21.792  0.00  0.00    +0.295 HD
ENDBRANCH  15  16
ENDBRANCH  13  15
ENDBRANCH  12  13
ENDBRANCH  11  12
ENDBRANCH   9  11
ENDBRANCH   1   8
BRANCH   2  18
ATOM     18  C   UNL     1      31.262  -9.393 -22.038  0.00  0.00    +0.000 C 
ATOM     19  C   UNL     1      31.943  -8.223 -22.091  0.00  0.00    +0.000 C 
BRANCH  19  20
ATOM     20  C   UNL     1      31.356  -6.888 -21.876  0.00  0.00    +0.000 C 
ATOM     21  C   UNL     1      31.474  -6.289 -20.632  0.00  0.00    +0.000 C 
ATOM     22  C   UNL     1      30.699  -6.260 -22.921  0.00  0.00    +0.000 C 
ATOM     23  C   UNL     1      30.919  -5.025 -20.429  0.00  0.00    +0.000 C 
ATOM     24  C   UNL     1      30.145  -4.996 -22.717  0.00  0.00    +0.000 C 
ATOM     25  C   UNL     1      30.255  -4.378 -21.471  0.00  0.00    +0.000 C 
ENDBRANCH  19  20
ENDBRANCH   2  18
TORSDOF 8
ENDMDL
MODEL 6
REMARK VINA RESULT:     -10.5      4.877     10.339
REMARK  Name = 445650
REMARK  8 active torsions:
REMARK  status: ('A' for Active; 'I' for Inactive)
REMARK    1  A    between atoms: C_1  and  N_8
REMARK    2  A    between atoms: C_2  and  C_18
REMARK    3  A    between atoms: C_9  and  C_11
REMARK    4  A    between atoms: C_11  and  C_12
REMARK    5  A    between atoms: C_12  and  C_13
REMARK    6  A    between atoms: C_13  and  C_15
REMARK    7  A    between atoms: C_15  and  O_16
REMARK    8  A    between atoms: C_19  and  C_20
REMARK                            x       y       z     vdW  Elec       q    Type
REMARK                         _______ _______ _______ _____ _____    ______ ____
ROOT
ATOM      1  C   UNL     1      34.169 -22.382 -17.315  0.00  0.00    +0.050 C 
ATOM      2  C   UNL     1      33.826 -20.707 -19.494  0.00  0.00    +0.000 C 
ATOM      3  C   UNL     1      32.894 -22.171 -17.813  0.00  0.00    +0.015 C 
ATOM      4  C   UNL     1      35.276 -21.774 -17.883  0.00  0.00    +0.015 C 
ATOM      5  C   UNL     1      32.721 -21.328 -18.912  0.00  0.00    +0.001 C 
ATOM      6  C   UNL     1      35.104 -20.931 -18.980  0.00  0.00    +0.001 C 
ENDROOT
BRANCH   1   8
ATOM      7  O   UNL     1      35.511 -21.892 -14.673  0.00  0.00    -0.275 OA
ATOM      8  N   UNL     1      34.344 -23.239 -16.203  0.00  0.00    -0.284 N 
ATOM      9  C   UNL     1      34.980 -22.948 -14.998  0.00  0.00    +0.226 C 
ATOM     10  H   UNL     1      33.975 -24.147 -16.291  0.00  0.00    +0.155 HD
BRANCH   9  11
ATOM     11  C   UNL     1      34.947 -24.156 -14.072  0.00  0.00    +0.086 C 
BRANCH  11  12
ATOM     12  C   UNL     1      36.165 -24.221 -13.150  0.00  0.00    +0.021 C 
BRANCH  12  13
ATOM     13  C   UNL     1      35.790 -24.532 -11.705  0.00  0.00    +0.110 C 
BRANCH  13  15
ATOM     14  O   UNL     1      36.092 -23.459  -9.563  0.00  0.00    -0.250 OA
ATOM     15  C   UNL     1      36.099 -23.376 -10.785  0.00  0.00    +0.314 C 
BRANCH  15  16
ATOM     16  O   UNL     1      36.361 -22.226 -11.451  0.00  0.00    -0.480 OA
ATOM     17  H   UNL     1      35.658 -21.722 -11.811  0.00  0.00    +0.295 HD
ENDBRANCH  15  16
ENDBRANCH  13  15
ENDBRANCH  12  13
ENDBRANCH  11  12
ENDBRANCH   9  11
ENDBRANCH   1   8
BRANCH   2  18
ATOM     18  C   UNL     1      33.647 -19.828 -20.639  0.00  0.00    +0.000 C 
ATOM     19  C   UNL     1      34.510 -18.855 -21.018  0.00  0.00    +0.000 C 
BRANCH  19  20
ATOM     20  C   UNL     1      34.339 -17.977 -22.189  0.00  0.00    +0.000 C 
ATOM     21  C   UNL     1      33.805 -18.499 -23.356  0.00  0.00    +0.000 C 
ATOM     22  C   UNL     1      34.714 -16.646 -22.099  0.00  0.00    +0.000 C 
ATOM     23  C   UNL     1      33.644 -17.668 -24.464  0.00  0.00    +0.000 C 
ATOM     24  C   UNL     1      34.552 -15.815 -23.207  0.00  0.00    +0.000 C 
ATOM     25  C   UNL     1      34.016 -16.326 -24.390  0.00  0.00    +0.000 C 
ENDBRANCH  19  20
ENDBRANCH   2  18
TORSDOF 8
ENDMDL
MODEL 7
REMARK VINA RESULT:     -10.4      3.864     10.786
REMARK  Name = 445650
REMARK  8 active torsions:
REMARK  status: ('A' for Active; 'I' for Inactive)
REMARK    1  A    between atoms: C_1  and  N_8
REMARK    2  A    between atoms: C_2  and  C_18
REMARK    3  A    between atoms: C_9  and  C_11
REMARK    4  A    between atoms: C_11  and  C_12
REMARK    5  A    between atoms: C_12  and  C_13
REMARK    6  A    between atoms: C_13  and  C_15
REMARK    7  A    between atoms: C_15  and  O_16
REMARK    8  A    between atoms: C_19  and  C_20
REMARK                            x       y       z     vdW  Elec       q    Type
REMARK                         _______ _______ _______ _____ _____    ______ ____
ROOT
ATOM      1  C   UNL     1      34.500 -16.431 -21.289  0.00  0.00    +0.050 C 
ATOM      2  C   UNL     1      33.770 -13.884 -22.096  0.00  0.00    +0.000 C 
ATOM      3  C   UNL     1      34.556 -16.104 -22.633  0.00  0.00    +0.015 C 
ATOM      4  C   UNL     1      34.087 -15.511 -20.338  0.00  0.00    +0.015 C 
ATOM      5  C   UNL     1      34.189 -14.821 -23.040  0.00  0.00    +0.001 C 
ATOM      6  C   UNL     1      33.720 -14.229 -20.745  0.00  0.00    +0.001 C 
ENDROOT
BRANCH   1   8
ATOM      7  O   UNL     1      37.116 -17.881 -21.564  0.00  0.00    -0.275 OA
ATOM      8  N   UNL     1      34.875 -17.731 -20.876  0.00  0.00    -0.284 N 
ATOM      9  C   UNL     1      36.114 -18.348 -21.034  0.00  0.00    +0.226 C 
ATOM     10  H   UNL     1      34.180 -18.262 -20.425  0.00  0.00    +0.155 HD
BRANCH   9  11
ATOM     11  C   UNL     1      36.089 -19.753 -20.446  0.00  0.00    +0.086 C 
BRANCH  11  12
ATOM     12  C   UNL     1      34.668 -20.273 -20.230  0.00  0.00    +0.021 C 
BRANCH  12  13
ATOM     13  C   UNL     1      34.576 -21.261 -19.073  0.00  0.00    +0.110 C 
BRANCH  13  15
ATOM     14  O   UNL     1      32.168 -21.410 -18.961  0.00  0.00    -0.250 OA
ATOM     15  C   UNL     1      33.248 -21.979 -19.054  0.00  0.00    +0.314 C 
BRANCH  15  16
ATOM     16  O   UNL     1      33.376 -23.327 -19.124  0.00  0.00    -0.480 OA
ATOM     17  H   UNL     1      33.235 -23.851 -18.360  0.00  0.00    +0.295 HD
ENDBRANCH  15  16
ENDBRANCH  13  15
ENDBRANCH  12  13
ENDBRANCH  11  12
ENDBRANCH   9  11
ENDBRANCH   1   8
BRANCH   2  18
ATOM     18  C   UNL     1      33.387 -12.546 -22.519  0.00  0.00    +0.000 C 
ATOM     19  C   UNL     1      32.370 -11.823 -21.993  0.00  0.00    +0.000 C 
BRANCH  19  20
ATOM     20  C   UNL     1      31.993 -10.460 -22.408  0.00  0.00    +0.000 C 
ATOM     21  C   UNL     1      32.900  -9.694 -23.121  0.00  0.00    +0.000 C 
ATOM     22  C   UNL     1      30.740  -9.972 -22.076  0.00  0.00    +0.000 C 
ATOM     23  C   UNL     1      32.543  -8.403 -23.513  0.00  0.00    +0.000 C 
ATOM     24  C   UNL     1      30.383  -8.682 -22.469  0.00  0.00    +0.000 C 
ATOM     25  C   UNL     1      31.285  -7.898 -23.188  0.00  0.00    +0.000 C 
ENDBRANCH  19  20
ENDBRANCH   2  18
TORSDOF 8
ENDMDL
MODEL 8
REMARK VINA RESULT:     -10.4      2.843      3.635
REMARK  Name = 445650
REMARK  8 active torsions:
REMARK  status: ('A' for Active; 'I' for Inactive)
REMARK    1  A    between atoms: C_1  and  N_8
REMARK    2  A    between atoms: C_2  and  C_18
REMARK    3  A    between atoms: C_9  and  C_11
REMARK    4  A    between atoms: C_11  and  C_12
REMARK    5  A    between atoms: C_12  and  C_13
REMARK    6  A    between atoms: C_13  and  C_15
REMARK    7  A    between atoms: C_15  and  O_16
REMARK    8  A    between atoms: C_19  and  C_20
REMARK                            x       y       z     vdW  Elec       q    Type
REMARK                         _______ _______ _______ _____ _____    ______ ____
ROOT
ATOM      1  C   UNL     1      34.886 -18.581 -21.209  0.00  0.00    +0.050 C 
ATOM      2  C   UNL     1      35.229 -20.559 -19.300  0.00  0.00    +0.000 C 
ATOM      3  C   UNL     1      33.802 -19.361 -20.839  0.00  0.00    +0.015 C 
ATOM      4  C   UNL     1      36.137 -18.768 -20.645  0.00  0.00    +0.015 C 
ATOM      5  C   UNL     1      33.975 -20.356 -19.877  0.00  0.00    +0.001 C 
ATOM      6  C   UNL     1      36.309 -19.764 -19.685  0.00  0.00    +0.001 C 
ENDROOT
BRANCH   1   8
ATOM      7  O   UNL     1      34.446 -15.627 -20.888  0.00  0.00    -0.275 OA
ATOM      8  N   UNL     1      34.710 -17.569 -22.183  0.00  0.00    -0.284 N 
ATOM      9  C   UNL     1      34.510 -16.208 -21.966  0.00  0.00    +0.226 C 
ATOM     10  H   UNL     1      34.731 -17.861 -23.123  0.00  0.00    +0.155 HD
BRANCH   9  11
ATOM     11  C   UNL     1      34.367 -15.472 -23.292  0.00  0.00    +0.086 C 
BRANCH  11  12
ATOM     12  C   UNL     1      33.982 -14.004 -23.108  0.00  0.00    +0.021 C 
BRANCH  12  13
ATOM     13  C   UNL     1      32.703 -13.637 -23.853  0.00  0.00    +0.110 C 
BRANCH  13  15
ATOM     14  O   UNL     1      33.068 -14.866 -25.900  0.00  0.00    -0.250 OA
ATOM     15  C   UNL     1      32.860 -13.794 -25.346  0.00  0.00    +0.314 C 
BRANCH  15  16
ATOM     16  O   UNL     1      32.772 -12.617 -26.013  0.00  0.00    -0.480 OA
ATOM     17  H   UNL     1      32.425 -12.596 -26.883  0.00  0.00    +0.295 HD
ENDBRANCH  15  16
ENDBRANCH  13  15
ENDBRANCH  12  13
ENDBRANCH  11  12
ENDBRANCH   9  11
ENDBRANCH   1   8
BRANCH   2  18
ATOM     18  C   UNL     1      35.409 -21.597 -18.298  0.00  0.00    +0.000 C 
ATOM     19  C   UNL     1      35.993 -21.420 -17.088  0.00  0.00    +0.000 C 
BRANCH  19  20
ATOM     20  C   UNL     1      36.159 -22.466 -16.064  0.00  0.00    +0.000 C 
ATOM     21  C   UNL     1      35.049 -23.178 -15.636  0.00  0.00    +0.000 C 
ATOM     22  C   UNL     1      37.420 -22.718 -15.549  0.00  0.00    +0.000 C 
ATOM     23  C   UNL     1      35.207 -24.168 -14.667  0.00  0.00    +0.000 C 
ATOM     24  C   UNL     1      37.577 -23.709 -14.581  0.00  0.00    +0.000 C 
ATOM     25  C   UNL     1      36.470 -24.435 -14.139  0.00  0.00    +0.000 C 
ENDBRANCH  19  20
ENDBRANCH   2  18
TORSDOF 8
ENDMDL
MODEL 9
REMARK VINA RESULT:     -10.3      2.855      3.543
REMARK  Name = 445650
REMARK  8 active torsions:
REMARK  status: ('A' for Active; 'I' for Inactive)
REMARK    1  A    between atoms: C_1  and  N_8
REMARK    2  A    between atoms: C_2  and  C_18
REMARK    3  A    between atoms: C_9  and  C_11
REMARK    4  A    between atoms: C_11  and  C_12
REMARK    5  A    between atoms: C_12  and  C_13
REMARK    6  A    between atoms: C_13  and  C_15
REMARK    7  A    between atoms: C_15  and  O_16
REMARK    8  A    between atoms: C_19  and  C_20
REMARK                            x       y       z     vdW  Elec       q    Type
REMARK                         _______ _______ _______ _____ _____    ______ ____
ROOT
ATOM      1  C   UNL     1      34.652 -20.668 -19.835  0.00  0.00    +0.050 C 
ATOM      2  C   UNL     1      34.890 -21.889 -17.361  0.00  0.00    +0.000 C 
ATOM      3  C   UNL     1      33.542 -21.270 -19.268  0.00  0.00    +0.015 C 
ATOM      4  C   UNL     1      35.879 -20.663 -19.193  0.00  0.00    +0.015 C 
ATOM      5  C   UNL     1      33.661 -21.884 -18.020  0.00  0.00    +0.001 C 
ATOM      6  C   UNL     1      35.999 -21.278 -17.947  0.00  0.00    +0.001 C 
ENDROOT
BRANCH   1   8
ATOM      7  O   UNL     1      34.837 -17.768 -20.597  0.00  0.00    -0.275 OA
ATOM      8  N   UNL     1      34.530 -20.042 -21.099  0.00  0.00    -0.284 N 
ATOM      9  C   UNL     1      34.628 -18.683 -21.386  0.00  0.00    +0.226 C 
ATOM     10  H   UNL     1      34.355 -20.637 -21.864  0.00  0.00    +0.155 HD
BRANCH   9  11
ATOM     11  C   UNL     1      34.433 -18.437 -22.877  0.00  0.00    +0.086 C 
BRANCH  11  12
ATOM     12  C   UNL     1      34.443 -16.950 -23.231  0.00  0.00    +0.021 C 
BRANCH  12  13
ATOM     13  C   UNL     1      33.805 -16.668 -24.587  0.00  0.00    +0.110 C 
BRANCH  13  15
ATOM     14  O   UNL     1      33.084 -14.700 -25.787  0.00  0.00    -0.250 OA
ATOM     15  C   UNL     1      33.397 -15.221 -24.724  0.00  0.00    +0.314 C 
BRANCH  15  16
ATOM     16  O   UNL     1      33.439 -14.547 -23.549  0.00  0.00    -0.480 OA
ATOM     17  H   UNL     1      34.110 -13.910 -23.398  0.00  0.00    +0.295 HD
ENDBRANCH  15  16
ENDBRANCH  13  15
ENDBRANCH  12  13
ENDBRANCH  11  12
ENDBRANCH   9  11
ENDBRANCH   1   8
BRANCH   2  18
ATOM     18  C   UNL     1      35.016 -22.530 -16.061  0.00  0.00    +0.000 C 
ATOM     19  C   UNL     1      36.185 -22.782 -15.425  0.00  0.00    +0.000 C 
BRANCH  19  20
ATOM     20  C   UNL     1      36.312 -23.413 -14.100  0.00  0.00    +0.000 C 
ATOM     21  C   UNL     1      35.206 -23.470 -13.268  0.00  0.00    +0.000 C 
ATOM     22  C   UNL     1      37.535 -23.935 -13.712  0.00  0.00    +0.000 C 
ATOM     23  C   UNL     1      35.327 -24.068 -12.013  0.00  0.00    +0.000 C 
ATOM     24  C   UNL     1      37.655 -24.533 -12.458  0.00  0.00    +0.000 C 
ATOM     25  C   UNL     1      36.551 -24.600 -11.608  0.00  0.00    +0.000 C 
ENDBRANCH  19  20
ENDBRANCH   2  18
TORSDOF 8
ENDMDL
