MODEL 1
REMARK VINA RESULT:     -10.9      0.000      0.000
REMARK  Name = 11511120
REMARK  6 active torsions:
REMARK  status: ('A' for Active; 'I' for Inactive)
REMARK    1  A    between atoms: N_1  and  C_15
REMARK    2  A    between atoms: C_4  and  N_22
REMARK    3  A    between atoms: C_7  and  O_35
REMARK    4  A    between atoms: C_23  and  C_26
REMARK    5  A    between atoms: C_25  and  C_27
REMARK    6  A    between atoms: C_27  and  N_28
REMARK                            x       y       z     vdW  Elec       q    Type
REMARK                         _______ _______ _______ _____ _____    ______ ____
ROOT
ATOM      1  N   UNL     1      33.746  -6.514 -24.714  0.00  0.00    -0.298 N 
ATOM      2  N   UNL     1      31.508  -6.121 -21.255  0.00  0.00    -0.248 NA
ATOM      3  N   UNL     1      32.799  -5.153 -23.045  0.00  0.00    -0.230 NA
ATOM      4  C   UNL     1      32.105  -9.921 -22.812  0.00  0.00    +0.081 C 
ATOM      5  C   UNL     1      32.457  -7.544 -22.936  0.00  0.00    +0.046 C 
ATOM      6  C   UNL     1      32.657  -8.833 -23.461  0.00  0.00    +0.021 C 
ATOM      7  C   UNL     1      31.363  -9.758 -21.659  0.00  0.00    +0.135 C 
ATOM      8  C   UNL     1      31.706  -7.350 -21.765  0.00  0.00    +0.066 C 
ATOM      9  C   UNL     1      32.978  -6.398 -23.529  0.00  0.00    +0.131 C 
ATOM     10  C   UNL     1      31.169  -8.474 -21.144  0.00  0.00    +0.111 C 
ATOM     11  C   UNL     1      32.065  -5.090 -21.922  0.00  0.00    +0.252 C 
ATOM     12  H   UNL     1      34.238  -7.364 -24.785  0.00  0.00    +0.154 HD
ENDROOT
BRANCH   1  15
ATOM     13 CL   UNL     1      36.581  -2.863 -26.933  0.00  0.00    -0.080 Cl
ATOM     14  F   UNL     1      34.502  -3.125 -29.031  0.00  0.00    -0.203 F 
ATOM     15  C   UNL     1      33.941  -5.653 -25.806  0.00  0.00    +0.050 C 
ATOM     16  C   UNL     1      35.035  -4.784 -25.830  0.00  0.00    +0.028 C 
ATOM     17  C   UNL     1      33.042  -5.661 -26.876  0.00  0.00    +0.017 C 
ATOM     18  C   UNL     1      35.229  -3.929 -26.915  0.00  0.00    +0.086 C 
ATOM     19  C   UNL     1      33.235  -4.805 -27.960  0.00  0.00    +0.032 C 
ATOM     20  C   UNL     1      34.329  -3.939 -27.981  0.00  0.00    +0.151 C 
ENDBRANCH   1  15
BRANCH   4  22
ATOM     21  O   UNL     1      33.960 -12.113 -21.937  0.00  0.00    -0.270 OA
ATOM     22  N   UNL     1      32.312 -11.215 -23.348  0.00  0.00    -0.278 N 
ATOM     23  C   UNL     1      33.193 -12.186 -22.890  0.00  0.00    +0.249 C 
ATOM     24  H   UNL     1      31.770 -11.454 -24.134  0.00  0.00    +0.155 HD
BRANCH  23  26
ATOM     25  C   UNL     1      33.963 -14.435 -23.528  0.00  0.00    -0.044 C 
ATOM     26  C   UNL     1      33.113 -13.419 -23.729  0.00  0.00    +0.051 C 
BRANCH  25  27
ATOM     27  C   UNL     1      33.932 -15.703 -24.329  0.00  0.00    -0.050 C 
BRANCH  27  28
ATOM     28  N   UNL     1      34.540 -16.815 -23.599  0.00  0.00    +0.390 N 
ATOM     29  C   UNL     1      34.643 -18.883 -21.536  0.00  0.00    -0.004 C 
ATOM     30  C   UNL     1      34.356 -19.208 -22.998  0.00  0.00    -0.023 C 
ATOM     31  C   UNL     1      35.435 -17.584 -21.425  0.00  0.00    -0.023 C 
ATOM     32  C   UNL     1      33.710 -18.022 -23.714  0.00  0.00    -0.077 C 
ATOM     33  C   UNL     1      34.754 -16.450 -22.192  0.00  0.00    -0.077 C 
ATOM     34  H   UNL     1      35.450 -17.018 -24.013  0.00  0.00    -0.079 HD
ENDBRANCH  27  28
ENDBRANCH  25  27
ENDBRANCH  23  26
ENDBRANCH   4  22
BRANCH   7  35
ATOM     35  O   UNL     1      30.813 -10.822 -21.008  0.00  0.00    -0.474 OA
ATOM     36  C   UNL     1      31.466 -11.264 -19.821  0.00  0.00    +0.252 C 
ENDBRANCH   7  35
TORSDOF 6
ENDMDL
MODEL 2
REMARK VINA RESULT:     -10.8      6.222     12.226
REMARK  Name = 11511120
REMARK  6 active torsions:
REMARK  status: ('A' for Active; 'I' for Inactive)
REMARK    1  A    between atoms: N_1  and  C_15
REMARK    2  A    between atoms: C_4  and  N_22
REMARK    3  A    between atoms: C_7  and  O_35
REMARK    4  A    between atoms: C_23  and  C_26
REMARK    5  A    between atoms: C_25  and  C_27
REMARK    6  A    between atoms: C_27  and  N_28
REMARK                            x       y       z     vdW  Elec       q    Type
REMARK                         _______ _______ _______ _____ _____    ______ ____
ROOT
ATOM      1  N   UNL     1      34.514 -18.319 -21.056  0.00  0.00    -0.298 N 
ATOM      2  N   UNL     1      33.949 -17.710 -25.110  0.00  0.00    -0.248 NA
ATOM      3  N   UNL     1      34.477 -19.155 -23.254  0.00  0.00    -0.230 NA
ATOM      4  C   UNL     1      33.474 -14.492 -22.534  0.00  0.00    +0.081 C 
ATOM      5  C   UNL     1      33.977 -16.819 -22.884  0.00  0.00    +0.046 C 
ATOM      6  C   UNL     1      33.814 -15.726 -22.013  0.00  0.00    +0.021 C 
ATOM      7  C   UNL     1      33.293 -14.320 -23.891  0.00  0.00    +0.135 C 
ATOM      8  C   UNL     1      33.797 -16.672 -24.269  0.00  0.00    +0.066 C 
ATOM      9  C   UNL     1      34.318 -18.094 -22.440  0.00  0.00    +0.131 C 
ATOM     10  C   UNL     1      33.455 -15.411 -24.749  0.00  0.00    +0.111 C 
ATOM     11  C   UNL     1      34.282 -18.894 -24.558  0.00  0.00    +0.252 C 
ATOM     12  H   UNL     1      34.847 -17.531 -20.568  0.00  0.00    +0.154 HD
ENDROOT
BRANCH   1  15
ATOM     13 CL   UNL     1      36.523 -21.717 -17.782  0.00  0.00    -0.080 Cl
ATOM     14  F   UNL     1      33.756 -22.778 -17.855  0.00  0.00    -0.203 F 
ATOM     15  C   UNL     1      34.326 -19.449 -20.244  0.00  0.00    +0.050 C 
ATOM     16  C   UNL     1      35.391 -19.967 -19.501  0.00  0.00    +0.028 C 
ATOM     17  C   UNL     1      33.073 -20.064 -20.173  0.00  0.00    +0.017 C 
ATOM     18  C   UNL     1      35.204 -21.089 -18.693  0.00  0.00    +0.086 C 
ATOM     19  C   UNL     1      32.886 -21.187 -19.367  0.00  0.00    +0.032 C 
ATOM     20  C   UNL     1      33.952 -21.700 -18.626  0.00  0.00    +0.151 C 
ENDBRANCH   1  15
BRANCH   4  22
ATOM     21  O   UNL     1      31.550 -14.095 -20.264  0.00  0.00    -0.270 OA
ATOM     22  N   UNL     1      33.313 -13.397 -21.649  0.00  0.00    -0.278 N 
ATOM     23  C   UNL     1      32.397 -13.280 -20.613  0.00  0.00    +0.249 C 
ATOM     24  H   UNL     1      33.921 -12.635 -21.784  0.00  0.00    +0.155 HD
BRANCH  23  26
ATOM     25  C   UNL     1      31.587 -11.038 -19.997  0.00  0.00    -0.044 C 
ATOM     26  C   UNL     1      32.547 -11.969 -19.913  0.00  0.00    +0.051 C 
BRANCH  25  27
ATOM     27  C   UNL     1      31.671  -9.707 -19.312  0.00  0.00    -0.050 C 
BRANCH  27  28
ATOM     28  N   UNL     1      31.231  -8.622 -20.189  0.00  0.00    +0.390 N 
ATOM     29  C   UNL     1      31.573  -6.596 -22.267  0.00  0.00    -0.004 C 
ATOM     30  C   UNL     1      30.851  -7.913 -22.528  0.00  0.00    -0.023 C 
ATOM     31  C   UNL     1      31.508  -6.238 -20.786  0.00  0.00    -0.023 C 
ATOM     32  C   UNL     1      31.355  -9.017 -21.599  0.00  0.00    -0.077 C 
ATOM     33  C   UNL     1      31.991  -7.396 -19.911  0.00  0.00    -0.077 C 
ATOM     34  H   UNL     1      30.246  -8.431 -20.001  0.00  0.00    -0.079 HD
ENDBRANCH  27  28
ENDBRANCH  25  27
ENDBRANCH  23  26
ENDBRANCH   4  22
BRANCH   7  35
ATOM     35  O   UNL     1      32.957 -13.108 -24.419  0.00  0.00    -0.474 OA
ATOM     36  C   UNL     1      32.683 -13.063 -25.817  0.00  0.00    +0.252 C 
ENDBRANCH   7  35
TORSDOF 6
ENDMDL
MODEL 3
REMARK VINA RESULT:     -10.3      4.285      9.502
REMARK  Name = 11511120
REMARK  6 active torsions:
REMARK  status: ('A' for Active; 'I' for Inactive)
REMARK    1  A    between atoms: N_1  and  C_15
REMARK    2  A    between atoms: C_4  and  N_22
REMARK    3  A    between atoms: C_7  and  O_35
REMARK    4  A    between atoms: C_23  and  C_26
REMARK    5  A    between atoms: C_25  and  C_27
REMARK    6  A    between atoms: C_27  and  N_28
REMARK                            x       y       z     vdW  Elec       q    Type
REMARK                         _______ _______ _______ _____ _____    ______ ____
ROOT
ATOM      1  N   UNL     1      32.028 -10.996 -22.174  0.00  0.00    -0.298 N 
ATOM      2  N   UNL     1      31.271  -8.468 -18.987  0.00  0.00    -0.248 NA
ATOM      3  N   UNL     1      31.552 -10.683 -19.892  0.00  0.00    -0.230 NA
ATOM      4  C   UNL     1      31.953  -6.801 -22.725  0.00  0.00    +0.081 C 
ATOM      5  C   UNL     1      31.754  -8.743 -21.320  0.00  0.00    +0.046 C 
ATOM      6  C   UNL     1      31.986  -8.175 -22.586  0.00  0.00    +0.021 C 
ATOM      7  C   UNL     1      31.697  -5.983 -21.644  0.00  0.00    +0.135 C 
ATOM      8  C   UNL     1      31.492  -7.935 -20.202  0.00  0.00    +0.066 C 
ATOM      9  C   UNL     1      31.770 -10.117 -21.094  0.00  0.00    +0.131 C 
ATOM     10  C   UNL     1      31.468  -6.555 -20.389  0.00  0.00    +0.111 C 
ATOM     11  C   UNL     1      31.311  -9.812 -18.898  0.00  0.00    +0.252 C 
ATOM     12  H   UNL     1      31.730 -10.652 -23.047  0.00  0.00    +0.154 HD
ENDROOT
BRANCH   1  15
ATOM     13 CL   UNL     1      33.347 -15.049 -25.026  0.00  0.00    -0.080 Cl
ATOM     14  F   UNL     1      34.396 -16.000 -22.421  0.00  0.00    -0.203 F 
ATOM     15  C   UNL     1      32.627 -12.265 -22.241  0.00  0.00    +0.050 C 
ATOM     16  C   UNL     1      32.685 -12.953 -23.457  0.00  0.00    +0.028 C 
ATOM     17  C   UNL     1      33.168 -12.848 -21.092  0.00  0.00    +0.017 C 
ATOM     18  C   UNL     1      33.281 -14.212 -23.523  0.00  0.00    +0.086 C 
ATOM     19  C   UNL     1      33.763 -14.108 -21.158  0.00  0.00    +0.032 C 
ATOM     20  C   UNL     1      33.819 -14.791 -22.374  0.00  0.00    +0.151 C 
ENDBRANCH   1  15
BRANCH   4  22
ATOM     21  O   UNL     1      30.252  -6.822 -25.200  0.00  0.00    -0.270 OA
ATOM     22  N   UNL     1      32.187  -6.238 -24.004  0.00  0.00    -0.278 N 
ATOM     23  C   UNL     1      31.351  -6.285 -25.111  0.00  0.00    +0.249 C 
ATOM     24  H   UNL     1      33.039  -5.758 -24.120  0.00  0.00    +0.155 HD
BRANCH  23  26
ATOM     25  C   UNL     1      33.228  -5.809 -26.630  0.00  0.00    -0.044 C 
ATOM     26  C   UNL     1      31.959  -5.570 -26.272  0.00  0.00    +0.051 C 
BRANCH  25  27
ATOM     27  C   UNL     1      33.897  -5.133 -27.790  0.00  0.00    -0.050 C 
BRANCH  27  28
ATOM     28  N   UNL     1      35.335  -4.982 -27.569  0.00  0.00    +0.390 N 
ATOM     29  C   UNL     1      37.925  -3.654 -27.826  0.00  0.00    -0.004 C 
ATOM     30  C   UNL     1      37.109  -3.599 -26.540  0.00  0.00    -0.023 C 
ATOM     31  C   UNL     1      37.567  -4.899 -28.631  0.00  0.00    -0.023 C 
ATOM     32  C   UNL     1      35.614  -3.747 -26.823  0.00  0.00    -0.077 C 
ATOM     33  C   UNL     1      36.056  -5.005 -28.848  0.00  0.00    -0.077 C 
ATOM     34  H   UNL     1      35.663  -5.769 -27.007  0.00  0.00    -0.079 HD
ENDBRANCH  27  28
ENDBRANCH  25  27
ENDBRANCH  23  26
ENDBRANCH   4  22
BRANCH   7  35
ATOM     35  O   UNL     1      31.662  -4.625 -21.767  0.00  0.00    -0.474 OA
ATOM     36  C   UNL     1      30.376  -4.010 -21.793  0.00  0.00    +0.252 C 
ENDBRANCH   7  35
TORSDOF 6
ENDMDL
MODEL 4
REMARK VINA RESULT:     -10.2     10.530     16.759
REMARK  Name = 11511120
REMARK  6 active torsions:
REMARK  status: ('A' for Active; 'I' for Inactive)
REMARK    1  A    between atoms: N_1  and  C_15
REMARK    2  A    between atoms: C_4  and  N_22
REMARK    3  A    between atoms: C_7  and  O_35
REMARK    4  A    between atoms: C_23  and  C_26
REMARK    5  A    between atoms: C_25  and  C_27
REMARK    6  A    between atoms: C_27  and  N_28
REMARK                            x       y       z     vdW  Elec       q    Type
REMARK                         _______ _______ _______ _____ _____    ______ ____
ROOT
ATOM      1  N   UNL     1      32.157 -22.839 -14.623  0.00  0.00    -0.298 N 
ATOM      2  N   UNL     1      35.379 -24.191 -12.406  0.00  0.00    -0.248 NA
ATOM      3  N   UNL     1      33.004 -23.926 -12.717  0.00  0.00    -0.230 NA
ATOM      4  C   UNL     1      36.117 -22.237 -15.991  0.00  0.00    +0.081 C 
ATOM      5  C   UNL     1      34.557 -23.076 -14.363  0.00  0.00    +0.046 C 
ATOM      6  C   UNL     1      34.810 -22.415 -15.578  0.00  0.00    +0.021 C 
ATOM      7  C   UNL     1      37.171 -22.699 -15.230  0.00  0.00    +0.135 C 
ATOM      8  C   UNL     1      35.610 -23.556 -13.569  0.00  0.00    +0.066 C 
ATOM      9  C   UNL     1      33.271 -23.295 -13.876  0.00  0.00    +0.131 C 
ATOM     10  C   UNL     1      36.911 -23.356 -14.024  0.00  0.00    +0.111 C 
ATOM     11  C   UNL     1      34.089 -24.340 -12.042  0.00  0.00    +0.252 C 
ATOM     12  H   UNL     1      32.342 -22.035 -15.161  0.00  0.00    +0.154 HD
ENDROOT
BRANCH   1  15
ATOM     13 CL   UNL     1      27.388 -22.059 -16.339  0.00  0.00    -0.080 Cl
ATOM     14  F   UNL     1      26.967 -24.719 -15.099  0.00  0.00    -0.203 F 
ATOM     15  C   UNL     1      30.840 -23.311 -14.746  0.00  0.00    +0.050 C 
ATOM     16  C   UNL     1      29.875 -22.544 -15.404  0.00  0.00    +0.028 C 
ATOM     17  C   UNL     1      30.486 -24.553 -14.210  0.00  0.00    +0.017 C 
ATOM     18  C   UNL     1      28.568 -23.014 -15.526  0.00  0.00    +0.086 C 
ATOM     19  C   UNL     1      29.179 -25.022 -14.331  0.00  0.00    +0.032 C 
ATOM     20  C   UNL     1      28.219 -24.253 -14.989  0.00  0.00    +0.151 C 
ENDBRANCH   1  15
BRANCH   4  22
ATOM     21  O   UNL     1      34.434 -22.045 -18.471  0.00  0.00    -0.270 OA
ATOM     22  N   UNL     1      36.362 -21.570 -17.217  0.00  0.00    -0.278 N 
ATOM     23  C   UNL     1      35.534 -21.522 -18.329  0.00  0.00    +0.249 C 
ATOM     24  H   UNL     1      37.216 -21.085 -17.286  0.00  0.00    +0.155 HD
BRANCH  23  26
ATOM     25  C   UNL     1      35.435 -19.794 -20.080  0.00  0.00    -0.044 C 
ATOM     26  C   UNL     1      36.153 -20.714 -19.422  0.00  0.00    +0.051 C 
BRANCH  25  27
ATOM     27  C   UNL     1      35.998 -18.943 -21.180  0.00  0.00    -0.050 C 
BRANCH  27  28
ATOM     28  N   UNL     1      34.940 -18.285 -21.946  0.00  0.00    +0.390 N 
ATOM     29  C   UNL     1      33.813 -16.938 -24.282  0.00  0.00    -0.004 C 
ATOM     30  C   UNL     1      33.505 -18.396 -23.959  0.00  0.00    -0.023 C 
ATOM     31  C   UNL     1      34.199 -16.182 -23.015  0.00  0.00    -0.023 C 
ATOM     32  C   UNL     1      34.644 -19.043 -23.170  0.00  0.00    -0.077 C 
ATOM     33  C   UNL     1      35.316 -16.900 -22.256  0.00  0.00    -0.077 C 
ATOM     34  H   UNL     1      34.092 -18.262 -21.378  0.00  0.00    -0.079 HD
ENDBRANCH  27  28
ENDBRANCH  25  27
ENDBRANCH  23  26
ENDBRANCH   4  22
BRANCH   7  35
ATOM     35  O   UNL     1      38.465 -22.532 -15.625  0.00  0.00    -0.474 OA
ATOM     36  C   UNL     1      39.377 -23.584 -15.322  0.00  0.00    +0.252 C 
ENDBRANCH   7  35
TORSDOF 6
ENDMDL
MODEL 5
REMARK VINA RESULT:     -10.1     10.486     16.730
REMARK  Name = 11511120
REMARK  6 active torsions:
REMARK  status: ('A' for Active; 'I' for Inactive)
REMARK    1  A    between atoms: N_1  and  C_15
REMARK    2  A    between atoms: C_4  and  N_22
REMARK    3  A    between atoms: C_7  and  O_35
REMARK    4  A    between atoms: C_23  and  C_26
REMARK    5  A    between atoms: C_25  and  C_27
REMARK    6  A    between atoms: C_27  and  N_28
REMARK                            x       y       z     vdW  Elec       q    Type
REMARK                         _______ _______ _______ _____ _____    ______ ____
ROOT
ATOM      1  N   UNL     1      34.698 -23.832 -14.356  0.00  0.00    -0.298 N 
ATOM      2  N   UNL     1      30.756 -23.939 -13.102  0.00  0.00    -0.248 NA
ATOM      3  N   UNL     1      33.096 -24.372 -12.721  0.00  0.00    -0.230 NA
ATOM      4  C   UNL     1      31.604 -22.380 -16.852  0.00  0.00    +0.081 C 
ATOM      5  C   UNL     1      32.357 -23.374 -14.795  0.00  0.00    +0.046 C 
ATOM      6  C   UNL     1      32.641 -22.844 -16.067  0.00  0.00    +0.021 C 
ATOM      7  C   UNL     1      30.298 -22.429 -16.407  0.00  0.00    +0.135 C 
ATOM      8  C   UNL     1      31.038 -23.436 -14.317  0.00  0.00    +0.066 C 
ATOM      9  C   UNL     1      33.344 -23.862 -13.943  0.00  0.00    +0.131 C 
ATOM     10  C   UNL     1      30.024 -22.957 -15.142  0.00  0.00    +0.111 C 
ATOM     11  C   UNL     1      31.799 -24.381 -12.371  0.00  0.00    +0.252 C 
ATOM     12  H   UNL     1      34.817 -23.910 -15.331  0.00  0.00    +0.154 HD
ENDROOT
BRANCH   1  15
ATOM     13 CL   UNL     1      39.560 -25.339 -13.740  0.00  0.00    -0.080 Cl
ATOM     14  F   UNL     1      39.448 -23.349 -11.545  0.00  0.00    -0.203 F 
ATOM     15  C   UNL     1      35.903 -23.713 -13.646  0.00  0.00    +0.050 C 
ATOM     16  C   UNL     1      37.008 -24.493 -14.000  0.00  0.00    +0.028 C 
ATOM     17  C   UNL     1      36.006 -22.814 -12.581  0.00  0.00    +0.017 C 
ATOM     18  C   UNL     1      38.206 -24.374 -13.294  0.00  0.00    +0.086 C 
ATOM     19  C   UNL     1      37.203 -22.696 -11.875  0.00  0.00    +0.032 C 
ATOM     20  C   UNL     1      38.304 -23.475 -12.232  0.00  0.00    +0.151 C 
ENDBRANCH   1  15
BRANCH   4  22
ATOM     21  O   UNL     1      34.208 -21.433 -18.009  0.00  0.00    -0.270 OA
ATOM     22  N   UNL     1      31.900 -21.849 -18.132  0.00  0.00    -0.278 N 
ATOM     23  C   UNL     1      33.136 -21.428 -18.603  0.00  0.00    +0.249 C 
ATOM     24  H   UNL     1      31.143 -21.770 -18.757  0.00  0.00    +0.155 HD
BRANCH  23  26
ATOM     25  C   UNL     1      34.040 -20.247 -20.565  0.00  0.00    -0.044 C 
ATOM     26  C   UNL     1      33.031 -20.930 -20.008  0.00  0.00    +0.051 C 
BRANCH  25  27
ATOM     27  C   UNL     1      34.002 -19.728 -21.972  0.00  0.00    -0.050 C 
BRANCH  27  28
ATOM     28  N   UNL     1      33.820 -18.277 -22.005  0.00  0.00    +0.390 N 
ATOM     29  C   UNL     1      34.684 -15.511 -22.382  0.00  0.00    -0.004 C 
ATOM     30  C   UNL     1      33.844 -16.247 -23.419  0.00  0.00    -0.023 C 
ATOM     31  C   UNL     1      34.470 -16.114 -20.998  0.00  0.00    -0.023 C 
ATOM     32  C   UNL     1      34.078 -17.757 -23.355  0.00  0.00    -0.077 C 
ATOM     33  C   UNL     1      34.685 -17.628 -21.010  0.00  0.00    -0.077 C 
ATOM     34  H   UNL     1      32.851 -18.065 -21.766  0.00  0.00    -0.079 HD
ENDBRANCH  27  28
ENDBRANCH  25  27
ENDBRANCH  23  26
ENDBRANCH   4  22
BRANCH   7  35
ATOM     35  O   UNL     1      29.265 -21.974 -17.172  0.00  0.00    -0.474 OA
ATOM     36  C   UNL     1      27.951 -22.371 -16.787  0.00  0.00    +0.252 C 
ENDBRANCH   7  35
TORSDOF 6
ENDMDL
MODEL 6
REMARK VINA RESULT:     -10.0     11.536     17.179
REMARK  Name = 11511120
REMARK  6 active torsions:
REMARK  status: ('A' for Active; 'I' for Inactive)
REMARK    1  A    between atoms: N_1  and  C_15
REMARK    2  A    between atoms: C_4  and  N_22
REMARK    3  A    between atoms: C_7  and  O_35
REMARK    4  A    between atoms: C_23  and  C_26
REMARK    5  A    between atoms: C_25  and  C_27
REMARK    6  A    between atoms: C_27  and  N_28
REMARK                            x       y       z     vdW  Elec       q    Type
REMARK                         _______ _______ _______ _____ _____    ______ ____
ROOT
ATOM      1  N   UNL     1      33.824 -24.266 -13.947  0.00  0.00    -0.298 N 
ATOM      2  N   UNL     1      29.815 -24.099 -12.933  0.00  0.00    -0.248 NA
ATOM      3  N   UNL     1      32.087 -24.723 -12.427  0.00  0.00    -0.230 NA
ATOM      4  C   UNL     1      31.009 -22.514 -16.577  0.00  0.00    +0.081 C 
ATOM      5  C   UNL     1      31.556 -23.617 -14.510  0.00  0.00    +0.046 C 
ATOM      6  C   UNL     1      31.957 -23.078 -15.746  0.00  0.00    +0.021 C 
ATOM      7  C   UNL     1      29.679 -22.473 -16.212  0.00  0.00    +0.135 C 
ATOM      8  C   UNL     1      30.209 -23.588 -14.113  0.00  0.00    +0.066 C 
ATOM      9  C   UNL     1      32.448 -24.202 -13.615  0.00  0.00    +0.131 C 
ATOM     10  C   UNL     1      29.288 -23.011 -14.982  0.00  0.00    +0.111 C 
ATOM     11  C   UNL     1      30.774 -24.640 -12.155  0.00  0.00    +0.252 C 
ATOM     12  H   UNL     1      33.997 -24.327 -14.914  0.00  0.00    +0.154 HD
ENDROOT
BRANCH   1  15
ATOM     13 CL   UNL     1      38.809 -25.396 -13.538  0.00  0.00    -0.080 Cl
ATOM     14  F   UNL     1      38.412 -24.231 -10.841  0.00  0.00    -0.203 F 
ATOM     15  C   UNL     1      34.989 -24.260 -13.163  0.00  0.00    +0.050 C 
ATOM     16  C   UNL     1      36.185 -24.771 -13.674  0.00  0.00    +0.028 C 
ATOM     17  C   UNL     1      34.960 -23.741 -11.865  0.00  0.00    +0.017 C 
ATOM     18  C   UNL     1      37.342 -24.764 -12.895  0.00  0.00    +0.086 C 
ATOM     19  C   UNL     1      36.117 -23.735 -11.086  0.00  0.00    +0.032 C 
ATOM     20  C   UNL     1      37.308 -24.246 -11.601  0.00  0.00    +0.151 C 
ENDBRANCH   1  15
BRANCH   4  22
ATOM     21  O   UNL     1      33.451 -23.085 -18.228  0.00  0.00    -0.270 OA
ATOM     22  N   UNL     1      31.423 -21.974 -17.820  0.00  0.00    -0.278 N 
ATOM     23  C   UNL     1      32.573 -22.286 -18.532  0.00  0.00    +0.249 C 
ATOM     24  H   UNL     1      30.827 -21.303 -18.224  0.00  0.00    +0.155 HD
BRANCH  23  26
ATOM     25  C   UNL     1      32.728 -20.162 -19.766  0.00  0.00    -0.044 C 
ATOM     26  C   UNL     1      32.647 -21.499 -19.799  0.00  0.00    +0.051 C 
BRANCH  25  27
ATOM     27  C   UNL     1      32.815 -19.313 -20.999  0.00  0.00    -0.050 C 
BRANCH  27  28
ATOM     28  N   UNL     1      34.090 -18.601 -21.074  0.00  0.00    +0.390 N 
ATOM     29  C   UNL     1      36.800 -18.125 -22.059  0.00  0.00    -0.004 C 
ATOM     30  C   UNL     1      35.613 -17.283 -22.512  0.00  0.00    -0.023 C 
ATOM     31  C   UNL     1      36.529 -18.733 -20.687  0.00  0.00    -0.023 C 
ATOM     32  C   UNL     1      34.306 -18.074 -22.429  0.00  0.00    -0.077 C 
ATOM     33  C   UNL     1      35.193 -19.478 -20.662  0.00  0.00    -0.077 C 
ATOM     34  H   UNL     1      34.059 -17.809 -20.430  0.00  0.00    -0.079 HD
ENDBRANCH  27  28
ENDBRANCH  25  27
ENDBRANCH  23  26
ENDBRANCH   4  22
BRANCH   7  35
ATOM     35  O   UNL     1      28.732 -21.920 -17.023  0.00  0.00    -0.474 OA
ATOM     36  C   UNL     1      27.388 -22.361 -16.844  0.00  0.00    +0.252 C 
ENDBRANCH   7  35
TORSDOF 6
ENDMDL
MODEL 7
REMARK VINA RESULT:      -9.7      9.814     16.186
REMARK  Name = 11511120
REMARK  6 active torsions:
REMARK  status: ('A' for Active; 'I' for Inactive)
REMARK    1  A    between atoms: N_1  and  C_15
REMARK    2  A    between atoms: C_4  and  N_22
REMARK    3  A    between atoms: C_7  and  O_35
REMARK    4  A    between atoms: C_23  and  C_26
REMARK    5  A    between atoms: C_25  and  C_27
REMARK    6  A    between atoms: C_27  and  N_28
REMARK                            x       y       z     vdW  Elec       q    Type
REMARK                         _______ _______ _______ _____ _____    ______ ____
ROOT
ATOM      1  N   UNL     1      35.373 -23.554 -15.350  0.00  0.00    -0.298 N 
ATOM      2  N   UNL     1      31.247 -23.292 -15.528  0.00  0.00    -0.248 NA
ATOM      3  N   UNL     1      33.259 -24.088 -14.467  0.00  0.00    -0.230 NA
ATOM      4  C   UNL     1      33.486 -21.367 -18.443  0.00  0.00    +0.081 C 
ATOM      5  C   UNL     1      33.383 -22.725 -16.460  0.00  0.00    +0.046 C 
ATOM      6  C   UNL     1      34.139 -22.071 -17.449  0.00  0.00    +0.021 C 
ATOM      7  C   UNL     1      32.108 -21.298 -18.477  0.00  0.00    +0.135 C 
ATOM      8  C   UNL     1      31.979 -22.671 -16.470  0.00  0.00    +0.066 C 
ATOM      9  C   UNL     1      33.962 -23.455 -15.426  0.00  0.00    +0.131 C 
ATOM     10  C   UNL     1      31.364 -21.950 -17.490  0.00  0.00    +0.111 C 
ATOM     11  C   UNL     1      31.926 -23.968 -14.579  0.00  0.00    +0.252 C 
ATOM     12  H   UNL     1      35.822 -23.513 -16.225  0.00  0.00    +0.154 HD
ENDROOT
BRANCH   1  15
ATOM     13 CL   UNL     1      39.799 -25.420 -13.554  0.00  0.00    -0.080 Cl
ATOM     14  F   UNL     1      38.847 -24.113 -11.070  0.00  0.00    -0.203 F 
ATOM     15  C   UNL     1      36.256 -23.698 -14.267  0.00  0.00    +0.050 C 
ATOM     16  C   UNL     1      37.452 -24.405 -14.424  0.00  0.00    +0.028 C 
ATOM     17  C   UNL     1      35.945 -23.136 -13.026  0.00  0.00    +0.017 C 
ATOM     18  C   UNL     1      38.329 -24.548 -13.349  0.00  0.00    +0.086 C 
ATOM     19  C   UNL     1      36.821 -23.280 -11.951  0.00  0.00    +0.032 C 
ATOM     20  C   UNL     1      38.014 -23.985 -12.112  0.00  0.00    +0.151 C 
ENDBRANCH   1  15
BRANCH   4  22
ATOM     21  O   UNL     1      36.359 -20.494 -18.412  0.00  0.00    -0.270 OA
ATOM     22  N   UNL     1      34.257 -20.711 -19.435  0.00  0.00    -0.278 N 
ATOM     23  C   UNL     1      35.590 -20.335 -19.354  0.00  0.00    +0.249 C 
ATOM     24  H   UNL     1      33.793 -20.500 -20.278  0.00  0.00    +0.155 HD
BRANCH  23  26
ATOM     25  C   UNL     1      35.235 -18.795 -21.240  0.00  0.00    -0.044 C 
ATOM     26  C   UNL     1      36.035 -19.667 -20.613  0.00  0.00    +0.051 C 
BRANCH  25  27
ATOM     27  C   UNL     1      35.624 -18.083 -22.502  0.00  0.00    -0.050 C 
BRANCH  27  28
ATOM     28  N   UNL     1      35.250 -16.670 -22.460  0.00  0.00    +0.390 N 
ATOM     29  C   UNL     1      33.372 -14.432 -22.370  0.00  0.00    -0.004 C 
ATOM     30  C   UNL     1      34.154 -14.886 -21.142  0.00  0.00    -0.023 C 
ATOM     31  C   UNL     1      34.111 -14.822 -23.646  0.00  0.00    -0.023 C 
ATOM     32  C   UNL     1      34.510 -16.370 -21.226  0.00  0.00    -0.077 C 
ATOM     33  C   UNL     1      34.468 -16.310 -23.650  0.00  0.00    -0.077 C 
ATOM     34  H   UNL     1      36.101 -16.107 -22.460  0.00  0.00    -0.079 HD
ENDBRANCH  27  28
ENDBRANCH  25  27
ENDBRANCH  23  26
ENDBRANCH   4  22
BRANCH   7  35
ATOM     35  O   UNL     1      31.451 -20.606 -19.452  0.00  0.00    -0.474 OA
ATOM     36  C   UNL     1      32.222 -20.170 -20.568  0.00  0.00    +0.252 C 
ENDBRANCH   7  35
TORSDOF 6
ENDMDL
MODEL 8
REMARK VINA RESULT:      -9.6      4.396      9.795
REMARK  Name = 11511120
REMARK  6 active torsions:
REMARK  status: ('A' for Active; 'I' for Inactive)
REMARK    1  A    between atoms: N_1  and  C_15
REMARK    2  A    between atoms: C_4  and  N_22
REMARK    3  A    between atoms: C_7  and  O_35
REMARK    4  A    between atoms: C_23  and  C_26
REMARK    5  A    between atoms: C_25  and  C_27
REMARK    6  A    between atoms: C_27  and  N_28
REMARK                            x       y       z     vdW  Elec       q    Type
REMARK                         _______ _______ _______ _____ _____    ______ ____
ROOT
ATOM      1  N   UNL     1      31.867 -11.189 -22.738  0.00  0.00    -0.298 N 
ATOM      2  N   UNL     1      31.173  -8.662 -19.535  0.00  0.00    -0.248 NA
ATOM      3  N   UNL     1      31.496 -10.874 -20.436  0.00  0.00    -0.230 NA
ATOM      4  C   UNL     1      31.597  -7.005 -23.315  0.00  0.00    +0.081 C 
ATOM      5  C   UNL     1      31.547  -8.941 -21.887  0.00  0.00    +0.046 C 
ATOM      6  C   UNL     1      31.691  -8.376 -23.167  0.00  0.00    +0.021 C 
ATOM      7  C   UNL     1      31.365  -6.188 -22.228  0.00  0.00    +0.135 C 
ATOM      8  C   UNL     1      31.311  -8.132 -20.764  0.00  0.00    +0.066 C 
ATOM      9  C   UNL     1      31.629 -10.311 -21.653  0.00  0.00    +0.131 C 
ATOM     10  C   UNL     1      31.223  -6.757 -20.959  0.00  0.00    +0.111 C 
ATOM     11  C   UNL     1      31.272 -10.003 -19.438  0.00  0.00    +0.252 C 
ATOM     12  H   UNL     1      31.511 -10.865 -23.597  0.00  0.00    +0.154 HD
ENDROOT
BRANCH   1  15
ATOM     13 CL   UNL     1      34.088 -15.129 -20.321  0.00  0.00    -0.080 Cl
ATOM     14  F   UNL     1      34.406 -16.100 -23.104  0.00  0.00    -0.203 F 
ATOM     15  C   UNL     1      32.511 -12.434 -22.826  0.00  0.00    +0.050 C 
ATOM     16  C   UNL     1      32.934 -13.092 -21.667  0.00  0.00    +0.028 C 
ATOM     17  C   UNL     1      32.734 -13.023 -24.074  0.00  0.00    +0.017 C 
ATOM     18  C   UNL     1      33.573 -14.328 -21.756  0.00  0.00    +0.086 C 
ATOM     19  C   UNL     1      33.375 -14.259 -24.162  0.00  0.00    +0.032 C 
ATOM     20  C   UNL     1      33.794 -14.912 -23.002  0.00  0.00    +0.151 C 
ENDBRANCH   1  15
BRANCH   4  22
ATOM     21  O   UNL     1      34.071  -6.221 -24.826  0.00  0.00    -0.270 OA
ATOM     22  N   UNL     1      31.743  -6.446 -24.609  0.00  0.00    -0.278 N 
ATOM     23  C   UNL     1      32.926  -6.106 -25.250  0.00  0.00    +0.249 C 
ATOM     24  H   UNL     1      30.911  -6.281 -25.109  0.00  0.00    +0.155 HD
BRANCH  23  26
ATOM     25  C   UNL     1      33.659  -5.339 -27.472  0.00  0.00    -0.044 C 
ATOM     26  C   UNL     1      32.656  -5.543 -26.607  0.00  0.00    +0.051 C 
BRANCH  25  27
ATOM     27  C   UNL     1      33.455  -4.786 -28.851  0.00  0.00    -0.050 C 
BRANCH  27  28
ATOM     28  N   UNL     1      34.723  -4.394 -29.466  0.00  0.00    +0.390 N 
ATOM     29  C   UNL     1      37.443  -3.325 -29.466  0.00  0.00    -0.004 C 
ATOM     30  C   UNL     1      37.158  -4.819 -29.574  0.00  0.00    -0.023 C 
ATOM     31  C   UNL     1      36.253  -2.517 -29.973  0.00  0.00    -0.023 C 
ATOM     32  C   UNL     1      35.831  -5.181 -28.906  0.00  0.00    -0.077 C 
ATOM     33  C   UNL     1      34.954  -2.953 -29.293  0.00  0.00    -0.077 C 
ATOM     34  H   UNL     1      34.674  -4.587 -30.466  0.00  0.00    -0.079 HD
ENDBRANCH  27  28
ENDBRANCH  25  27
ENDBRANCH  23  26
ENDBRANCH   4  22
BRANCH   7  35
ATOM     35  O   UNL     1      31.269  -4.834 -22.360  0.00  0.00    -0.474 OA
ATOM     36  C   UNL     1      30.137  -4.203 -21.767  0.00  0.00    +0.252 C 
ENDBRANCH   7  35
TORSDOF 6
ENDMDL
MODEL 9
REMARK VINA RESULT:      -9.3      4.221     10.098
REMARK  Name = 11511120
REMARK  6 active torsions:
REMARK  status: ('A' for Active; 'I' for Inactive)
REMARK    1  A    between atoms: N_1  and  C_15
REMARK    2  A    between atoms: C_4  and  N_22
REMARK    3  A    between atoms: C_7  and  O_35
REMARK    4  A    between atoms: C_23  and  C_26
REMARK    5  A    between atoms: C_25  and  C_27
REMARK    6  A    between atoms: C_27  and  N_28
REMARK                            x       y       z     vdW  Elec       q    Type
REMARK                         _______ _______ _______ _____ _____    ______ ____
ROOT
ATOM      1  N   UNL     1      32.230 -11.047 -22.468  0.00  0.00    -0.298 N 
ATOM      2  N   UNL     1      30.976  -8.513 -19.446  0.00  0.00    -0.248 NA
ATOM      3  N   UNL     1      31.337 -10.732 -20.315  0.00  0.00    -0.230 NA
ATOM      4  C   UNL     1      32.430  -6.848 -22.957  0.00  0.00    +0.081 C 
ATOM      5  C   UNL     1      31.887  -8.791 -21.647  0.00  0.00    +0.046 C 
ATOM      6  C   UNL     1      32.380  -8.223 -22.835  0.00  0.00    +0.021 C 
ATOM      7  C   UNL     1      32.004  -6.028 -21.932  0.00  0.00    +0.135 C 
ATOM      8  C   UNL     1      31.448  -7.980 -20.587  0.00  0.00    +0.066 C 
ATOM      9  C   UNL     1      31.804 -10.166 -21.444  0.00  0.00    +0.131 C 
ATOM     10  C   UNL     1      31.516  -6.600 -20.754  0.00  0.00    +0.111 C 
ATOM     11  C   UNL     1      30.945  -9.859 -19.372  0.00  0.00    +0.252 C 
ATOM     12  H   UNL     1      32.119 -10.683 -23.376  0.00  0.00    +0.154 HD
ENDROOT
BRANCH   1  15
ATOM     13 CL   UNL     1      33.519 -15.294 -25.037  0.00  0.00    -0.080 Cl
ATOM     14  F   UNL     1      34.401 -16.143 -22.337  0.00  0.00    -0.203 F 
ATOM     15  C   UNL     1      32.779 -12.339 -22.439  0.00  0.00    +0.050 C 
ATOM     16  C   UNL     1      32.868 -13.092 -23.613  0.00  0.00    +0.028 C 
ATOM     17  C   UNL     1      33.241 -12.880 -21.236  0.00  0.00    +0.017 C 
ATOM     18  C   UNL     1      33.414 -14.376 -23.584  0.00  0.00    +0.086 C 
ATOM     19  C   UNL     1      33.786 -14.163 -21.207  0.00  0.00    +0.032 C 
ATOM     20  C   UNL     1      33.873 -14.912 -22.381  0.00  0.00    +0.151 C 
ENDBRANCH   1  15
BRANCH   4  22
ATOM     21  O   UNL     1      34.922  -7.474 -24.510  0.00  0.00    -0.270 OA
ATOM     22  N   UNL     1      32.927  -6.285 -24.158  0.00  0.00    -0.278 N 
ATOM     23  C   UNL     1      34.095  -6.625 -24.827  0.00  0.00    +0.249 C 
ATOM     24  H   UNL     1      32.382  -5.573 -24.565  0.00  0.00    +0.155 HD
BRANCH  23  26
ATOM     25  C   UNL     1      34.280  -4.461 -25.985  0.00  0.00    -0.044 C 
ATOM     26  C   UNL     1      34.266  -5.799 -26.059  0.00  0.00    +0.051 C 
BRANCH  25  27
ATOM     27  C   UNL     1      34.456  -3.574 -27.182  0.00  0.00    -0.050 C 
BRANCH  27  28
ATOM     28  N   UNL     1      33.347  -2.631 -27.320  0.00  0.00    +0.390 N 
ATOM     29  C   UNL     1      30.544  -1.878 -27.670  0.00  0.00    -0.004 C 
ATOM     30  C   UNL     1      31.247  -1.786 -26.320  0.00  0.00    -0.023 C 
ATOM     31  C   UNL     1      31.558  -1.786 -28.805  0.00  0.00    -0.023 C 
ATOM     32  C   UNL     1      32.389  -2.798 -26.218  0.00  0.00    -0.077 C 
ATOM     33  C   UNL     1      32.690  -2.798 -28.624  0.00  0.00    -0.077 C 
ATOM     34  H   UNL     1      33.717  -1.682 -27.273  0.00  0.00    -0.079 HD
ENDBRANCH  27  28
ENDBRANCH  25  27
ENDBRANCH  23  26
ENDBRANCH   4  22
BRANCH   7  35
ATOM     35  O   UNL     1      32.047  -4.669 -22.038  0.00  0.00    -0.474 OA
ATOM     36  C   UNL     1      30.922  -4.030 -22.635  0.00  0.00    +0.252 C 
ENDBRANCH   7  35
TORSDOF 6
ENDMDL
