MODEL 1
REMARK VINA RESULT:     -12.9      0.000      0.000
REMARK  Name = 20055414
REMARK  5 active torsions:
REMARK  status: ('A' for Active; 'I' for Inactive)
REMARK    1  A    between atoms: N_1  and  C_18
REMARK    2  A    between atoms: N_2  and  C_8
REMARK    3  A    between atoms: C_11  and  C_17
REMARK    4  A    between atoms: C_18  and  C_19
REMARK    5  A    between atoms: C_19  and  C_30
REMARK                            x       y       z     vdW  Elec       q    Type
REMARK                         _______ _______ _______ _____ _____    ______ ____
ROOT
ATOM      1  N   UNL     1      35.009 -19.148 -21.732  0.00  0.00    +0.390 N 
ATOM      2  N   UNL     1      34.735 -20.619 -19.298  0.00  0.00    -0.312 N 
ATOM      3  C   UNL     1      33.716 -19.206 -21.040  0.00  0.00    -0.055 C 
ATOM      4  C   UNL     1      36.102 -19.171 -20.752  0.00  0.00    -0.055 C 
ATOM      5  C   UNL     1      33.593 -20.484 -20.208  0.00  0.00    +0.068 C 
ATOM      6  C   UNL     1      36.059 -20.449 -19.912  0.00  0.00    +0.068 C 
ATOM      7  H   UNL     1      35.093 -19.964 -22.339  0.00  0.00    -0.080 HD
ENDROOT
BRANCH   2   8
ATOM      8  C   UNL     1      34.633 -21.443 -18.172  0.00  0.00    +0.048 C 
ATOM      9  C   UNL     1      35.743 -21.644 -17.351  0.00  0.00    +0.018 C 
ATOM     10  C   UNL     1      33.420 -22.063 -17.870  0.00  0.00    +0.015 C 
ATOM     11  C   UNL     1      35.640 -22.466 -16.230  0.00  0.00    +0.073 C 
ATOM     12  C   UNL     1      33.318 -22.885 -16.747  0.00  0.00    +0.001 C 
ATOM     13  C   UNL     1      34.428 -23.086 -15.927  0.00  0.00    +0.004 C 
BRANCH  11  17
ATOM     14  F   UNL     1      38.010 -22.327 -15.935  0.00  0.00    -0.166 F 
ATOM     15  F   UNL     1      36.779 -21.976 -14.184  0.00  0.00    -0.166 F 
ATOM     16  F   UNL     1      36.977 -23.988 -14.985  0.00  0.00    -0.166 F 
ATOM     17  C   UNL     1      36.827 -22.682 -15.353  0.00  0.00    +0.419 C 
ENDBRANCH  11  17
ENDBRANCH   2   8
BRANCH   1  18
ATOM     18  C   UNL     1      35.092 -17.950 -22.565  0.00  0.00    -0.069 C 
BRANCH  18  19
ATOM     19  C   UNL     1      33.898 -17.827 -23.538  0.00  0.00    +0.043 C 
BRANCH  19  30
ATOM     20  N   UNL     1      33.831 -15.370 -23.224  0.00  0.00    -0.302 N 
ATOM     21  N   UNL     1      33.248 -14.642 -25.189  0.00  0.00    -0.134 NA
ATOM     22  N   UNL     1      33.329 -16.038 -25.208  0.00  0.00    -0.134 NA
ATOM     23  C   UNL     1      33.982 -13.552 -21.752  0.00  0.00    +0.030 C 
ATOM     24  C   UNL     1      33.676 -13.024 -23.201  0.00  0.00    +0.061 C 
ATOM     25  C   UNL     1      32.761 -13.158 -20.909  0.00  0.00    +0.002 C 
ATOM     26  C   UNL     1      32.361 -12.261 -23.088  0.00  0.00    +0.008 C 
ATOM     27  C   UNL     1      34.196 -15.085 -21.858  0.00  0.00    +0.109 C 
ATOM     28  C   UNL     1      31.642 -12.905 -21.909  0.00  0.00    +0.001 C 
ATOM     29  C   UNL     1      33.555 -14.276 -23.972  0.00  0.00    +0.143 A 
ATOM     30  C   UNL     1      33.684 -16.448 -24.002  0.00  0.00    +0.141 A 
ENDBRANCH  19  30
ENDBRANCH  18  19
ENDBRANCH   1  18
TORSDOF 5
ENDMDL
MODEL 2
REMARK VINA RESULT:     -12.9      4.275     10.203
REMARK  Name = 20055414
REMARK  5 active torsions:
REMARK  status: ('A' for Active; 'I' for Inactive)
REMARK    1  A    between atoms: N_1  and  C_18
REMARK    2  A    between atoms: N_2  and  C_8
REMARK    3  A    between atoms: C_11  and  C_17
REMARK    4  A    between atoms: C_18  and  C_19
REMARK    5  A    between atoms: C_19  and  C_30
REMARK                            x       y       z     vdW  Elec       q    Type
REMARK                         _______ _______ _______ _____ _____    ______ ____
ROOT
ATOM      1  N   UNL     1      35.339 -20.831 -19.705  0.00  0.00    +0.390 N 
ATOM      2  N   UNL     1      34.798 -18.394 -21.094  0.00  0.00    -0.312 N 
ATOM      3  C   UNL     1      36.254 -19.689 -19.588  0.00  0.00    -0.055 C 
ATOM      4  C   UNL     1      33.959 -20.352 -19.854  0.00  0.00    -0.055 C 
ATOM      5  C   UNL     1      36.183 -18.796 -20.828  0.00  0.00    +0.068 C 
ATOM      6  C   UNL     1      33.811 -19.483 -21.104  0.00  0.00    +0.068 C 
ATOM      7  H   UNL     1      35.591 -21.370 -20.533  0.00  0.00    -0.080 HD
ENDROOT
BRANCH   2   8
ATOM      8  C   UNL     1      34.542 -17.267 -21.883  0.00  0.00    +0.048 C 
ATOM      9  C   UNL     1      34.273 -16.038 -21.279  0.00  0.00    +0.018 C 
ATOM     10  C   UNL     1      34.554 -17.372 -23.274  0.00  0.00    +0.015 C 
ATOM     11  C   UNL     1      34.018 -14.916 -22.065  0.00  0.00    +0.073 C 
ATOM     12  C   UNL     1      34.298 -16.249 -24.061  0.00  0.00    +0.001 C 
ATOM     13  C   UNL     1      34.030 -15.021 -23.456  0.00  0.00    +0.004 C 
BRANCH  11  17
ATOM     14  F   UNL     1      34.086 -12.528 -22.184  0.00  0.00    -0.166 F 
ATOM     15  F   UNL     1      32.408 -13.413 -21.131  0.00  0.00    -0.166 F 
ATOM     16  F   UNL     1      34.389 -13.445 -20.235  0.00  0.00    -0.166 F 
ATOM     17  C   UNL     1      33.730 -13.603 -21.420  0.00  0.00    +0.419 C 
ENDBRANCH  11  17
ENDBRANCH   2   8
BRANCH   1  18
ATOM     18  C   UNL     1      35.456 -21.705 -18.539  0.00  0.00    -0.069 C 
BRANCH  18  19
ATOM     19  C   UNL     1      36.150 -21.006 -17.349  0.00  0.00    +0.043 C 
BRANCH  19  30
ATOM     20  N   UNL     1      35.880 -22.830 -15.694  0.00  0.00    -0.302 N 
ATOM     21  N   UNL     1      37.909 -23.141 -14.974  0.00  0.00    -0.134 NA
ATOM     22  N   UNL     1      37.899 -22.122 -15.932  0.00  0.00    -0.134 NA
ATOM     23  C   UNL     1      34.425 -24.229 -14.502  0.00  0.00    +0.030 C 
ATOM     24  C   UNL     1      35.906 -24.530 -14.071  0.00  0.00    +0.061 C 
ATOM     25  C   UNL     1      33.733 -23.700 -13.238  0.00  0.00    +0.002 C 
ATOM     26  C   UNL     1      35.956 -24.271 -12.570  0.00  0.00    +0.008 C 
ATOM     27  C   UNL     1      34.485 -23.195 -15.657  0.00  0.00    +0.109 C 
ATOM     28  C   UNL     1      34.858 -23.244 -12.320  0.00  0.00    +0.001 C 
ATOM     29  C   UNL     1      36.670 -23.541 -14.856  0.00  0.00    +0.143 A 
ATOM     30  C   UNL     1      36.655 -21.957 -16.347  0.00  0.00    +0.141 A 
ENDBRANCH  19  30
ENDBRANCH  18  19
ENDBRANCH   1  18
TORSDOF 5
ENDMDL
MODEL 3
REMARK VINA RESULT:     -12.6      2.806      3.342
REMARK  Name = 20055414
REMARK  5 active torsions:
REMARK  status: ('A' for Active; 'I' for Inactive)
REMARK    1  A    between atoms: N_1  and  C_18
REMARK    2  A    between atoms: N_2  and  C_8
REMARK    3  A    between atoms: C_11  and  C_17
REMARK    4  A    between atoms: C_18  and  C_19
REMARK    5  A    between atoms: C_19  and  C_30
REMARK                            x       y       z     vdW  Elec       q    Type
REMARK                         _______ _______ _______ _____ _____    ______ ____
ROOT
ATOM      1  N   UNL     1      34.195 -20.069 -21.149  0.00  0.00    +0.390 N 
ATOM      2  N   UNL     1      33.461 -21.295 -18.675  0.00  0.00    -0.312 N 
ATOM      3  C   UNL     1      32.906 -19.758 -20.519  0.00  0.00    -0.055 C 
ATOM      4  C   UNL     1      35.207 -20.322 -20.116  0.00  0.00    -0.055 C 
ATOM      5  C   UNL     1      32.426 -20.918 -19.644  0.00  0.00    +0.068 C 
ATOM      6  C   UNL     1      34.805 -21.502 -19.230  0.00  0.00    +0.068 C 
ATOM      7  H   UNL     1      34.088 -20.909 -21.718  0.00  0.00    -0.080 HD
ENDROOT
BRANCH   2   8
ATOM      8  C   UNL     1      33.107 -22.007 -17.524  0.00  0.00    +0.048 C 
ATOM      9  C   UNL     1      31.763 -22.182 -17.196  0.00  0.00    +0.018 C 
ATOM     10  C   UNL     1      34.101 -22.542 -16.703  0.00  0.00    +0.015 C 
ATOM     11  C   UNL     1      31.412 -22.892 -16.049  0.00  0.00    +0.073 C 
ATOM     12  C   UNL     1      33.749 -23.252 -15.554  0.00  0.00    +0.001 C 
ATOM     13  C   UNL     1      32.405 -23.427 -15.227  0.00  0.00    +0.004 C 
BRANCH  11  17
ATOM     14  F   UNL     1      29.643 -22.589 -14.466  0.00  0.00    -0.166 F 
ATOM     15  F   UNL     1      29.115 -22.468 -16.567  0.00  0.00    -0.166 F 
ATOM     16  F   UNL     1      29.605 -24.393 -15.682  0.00  0.00    -0.166 F 
ATOM     17  C   UNL     1      29.975 -23.079 -15.698  0.00  0.00    +0.419 C 
ENDBRANCH  11  17
ENDBRANCH   2   8
BRANCH   1  18
ATOM     18  C   UNL     1      34.615 -18.975 -22.024  0.00  0.00    -0.069 C 
BRANCH  18  19
ATOM     19  C   UNL     1      34.626 -17.613 -21.296  0.00  0.00    +0.043 C 
BRANCH  19  30
ATOM     20  N   UNL     1      34.229 -15.223 -21.820  0.00  0.00    -0.302 N 
ATOM     21  N   UNL     1      34.336 -15.174 -23.992  0.00  0.00    -0.134 NA
ATOM     22  N   UNL     1      34.543 -16.481 -23.538  0.00  0.00    -0.134 NA
ATOM     23  C   UNL     1      33.672 -13.085 -21.035  0.00  0.00    +0.030 C 
ATOM     24  C   UNL     1      33.866 -13.034 -22.594  0.00  0.00    +0.061 C 
ATOM     25  C   UNL     1      32.199 -12.728 -20.797  0.00  0.00    +0.002 C 
ATOM     26  C   UNL     1      32.537 -12.541 -23.155  0.00  0.00    +0.008 C 
ATOM     27  C   UNL     1      34.047 -14.519 -20.574  0.00  0.00    +0.109 C 
ATOM     28  C   UNL     1      31.501 -12.974 -22.126  0.00  0.00    +0.001 C 
ATOM     29  C   UNL     1      34.146 -14.445 -22.924  0.00  0.00    +0.143 A 
ATOM     30  C   UNL     1      34.471 -16.477 -22.218  0.00  0.00    +0.141 A 
ENDBRANCH  19  30
ENDBRANCH  18  19
ENDBRANCH   1  18
TORSDOF 5
ENDMDL
MODEL 4
REMARK VINA RESULT:     -12.5      4.393      9.864
REMARK  Name = 20055414
REMARK  5 active torsions:
REMARK  status: ('A' for Active; 'I' for Inactive)
REMARK    1  A    between atoms: N_1  and  C_18
REMARK    2  A    between atoms: N_2  and  C_8
REMARK    3  A    between atoms: C_11  and  C_17
REMARK    4  A    between atoms: C_18  and  C_19
REMARK    5  A    between atoms: C_19  and  C_30
REMARK                            x       y       z     vdW  Elec       q    Type
REMARK                         _______ _______ _______ _____ _____    ______ ____
ROOT
ATOM      1  N   UNL     1      35.431 -20.278 -20.361  0.00  0.00    +0.390 N 
ATOM      2  N   UNL     1      34.730 -17.854 -21.701  0.00  0.00    -0.312 N 
ATOM      3  C   UNL     1      36.214 -19.055 -20.145  0.00  0.00    -0.055 C 
ATOM      4  C   UNL     1      34.021 -19.934 -20.585  0.00  0.00    -0.055 C 
ATOM      5  C   UNL     1      36.129 -18.125 -21.356  0.00  0.00    +0.068 C 
ATOM      6  C   UNL     1      33.863 -19.034 -21.813  0.00  0.00    +0.068 C 
ATOM      7  H   UNL     1      35.789 -20.755 -21.188  0.00  0.00    -0.080 HD
ENDROOT
BRANCH   2   8
ATOM      8  C   UNL     1      34.409 -16.727 -22.466  0.00  0.00    +0.048 C 
ATOM      9  C   UNL     1      34.177 -15.501 -21.842  0.00  0.00    +0.018 C 
ATOM     10  C   UNL     1      34.321 -16.830 -23.855  0.00  0.00    +0.015 C 
ATOM     11  C   UNL     1      33.857 -14.380 -22.606  0.00  0.00    +0.073 C 
ATOM     12  C   UNL     1      34.001 -15.708 -24.619  0.00  0.00    +0.001 C 
ATOM     13  C   UNL     1      33.769 -14.483 -23.995  0.00  0.00    +0.004 C 
BRANCH  11  17
ATOM     14  F   UNL     1      33.971 -11.992 -22.696  0.00  0.00    -0.166 F 
ATOM     15  F   UNL     1      32.294 -12.857 -21.625  0.00  0.00    -0.166 F 
ATOM     16  F   UNL     1      34.290 -12.940 -20.765  0.00  0.00    -0.166 F 
ATOM     17  C   UNL     1      33.607 -13.070 -21.939  0.00  0.00    +0.419 C 
ENDBRANCH  11  17
ENDBRANCH   2   8
BRANCH   1  18
ATOM     18  C   UNL     1      35.564 -21.181 -19.219  0.00  0.00    -0.069 C 
BRANCH  18  19
ATOM     19  C   UNL     1      34.195 -21.613 -18.649  0.00  0.00    +0.043 C 
BRANCH  19  30
ATOM     20  N   UNL     1      33.267 -22.775 -16.667  0.00  0.00    -0.302 N 
ATOM     21  N   UNL     1      35.032 -23.158 -15.454  0.00  0.00    -0.134 NA
ATOM     22  N   UNL     1      35.401 -22.494 -16.628  0.00  0.00    -0.134 NA
ATOM     23  C   UNL     1      31.368 -23.499 -15.499  0.00  0.00    +0.030 C 
ATOM     24  C   UNL     1      32.657 -23.877 -14.682  0.00  0.00    +0.061 C 
ATOM     25  C   UNL     1      30.601 -22.507 -14.613  0.00  0.00    +0.002 C 
ATOM     26  C   UNL     1      32.506 -23.179 -13.335  0.00  0.00    +0.008 C 
ATOM     27  C   UNL     1      31.840 -22.892 -16.846  0.00  0.00    +0.109 C 
ATOM     28  C   UNL     1      31.626 -21.970 -13.624  0.00  0.00    +0.001 C 
ATOM     29  C   UNL     1      33.734 -23.306 -15.513  0.00  0.00    +0.143 A 
ATOM     30  C   UNL     1      34.308 -22.276 -17.341  0.00  0.00    +0.141 A 
ENDBRANCH  19  30
ENDBRANCH  18  19
ENDBRANCH   1  18
TORSDOF 5
ENDMDL
MODEL 5
REMARK VINA RESULT:     -12.5      3.947      6.057
REMARK  Name = 20055414
REMARK  5 active torsions:
REMARK  status: ('A' for Active; 'I' for Inactive)
REMARK    1  A    between atoms: N_1  and  C_18
REMARK    2  A    between atoms: N_2  and  C_8
REMARK    3  A    between atoms: C_11  and  C_17
REMARK    4  A    between atoms: C_18  and  C_19
REMARK    5  A    between atoms: C_19  and  C_30
REMARK                            x       y       z     vdW  Elec       q    Type
REMARK                         _______ _______ _______ _____ _____    ______ ____
ROOT
ATOM      1  N   UNL     1      33.733 -13.958 -23.269  0.00  0.00    +0.390 N 
ATOM      2  N   UNL     1      34.279 -16.487 -22.058  0.00  0.00    -0.312 N 
ATOM      3  C   UNL     1      33.627 -15.196 -24.051  0.00  0.00    -0.055 C 
ATOM      4  C   UNL     1      33.346 -14.213 -21.876  0.00  0.00    -0.055 C 
ATOM      5  C   UNL     1      34.540 -16.285 -23.486  0.00  0.00    +0.068 C 
ATOM      6  C   UNL     1      34.252 -15.268 -21.238  0.00  0.00    +0.068 C 
ATOM      7  H   UNL     1      34.702 -13.640 -23.288  0.00  0.00    -0.080 HD
ENDROOT
BRANCH   2   8
ATOM      8  C   UNL     1      34.664 -17.684 -21.443  0.00  0.00    +0.048 C 
ATOM      9  C   UNL     1      33.696 -18.584 -20.999  0.00  0.00    +0.018 C 
ATOM     10  C   UNL     1      36.018 -17.977 -21.275  0.00  0.00    +0.015 C 
ATOM     11  C   UNL     1      34.081 -19.776 -20.387  0.00  0.00    +0.073 C 
ATOM     12  C   UNL     1      36.403 -19.170 -20.663  0.00  0.00    +0.001 C 
ATOM     13  C   UNL     1      35.435 -20.069 -20.219  0.00  0.00    +0.004 C 
BRANCH  11  17
ATOM     14  F   UNL     1      33.442 -22.044 -19.974  0.00  0.00    -0.166 F 
ATOM     15  F   UNL     1      32.675 -20.542 -18.610  0.00  0.00    -0.166 F 
ATOM     16  F   UNL     1      31.892 -20.669 -20.635  0.00  0.00    -0.166 F 
ATOM     17  C   UNL     1      33.046 -20.738 -19.910  0.00  0.00    +0.419 C 
ENDBRANCH  11  17
ENDBRANCH   2   8
BRANCH   1  18
ATOM     18  C   UNL     1      32.896 -12.910 -23.851  0.00  0.00    -0.069 C 
BRANCH  18  19
ATOM     19  C   UNL     1      33.387 -11.493 -23.481  0.00  0.00    +0.043 C 
BRANCH  19  30
ATOM     20  N   UNL     1      32.308  -9.347 -22.873  0.00  0.00    -0.302 N 
ATOM     21  N   UNL     1      30.582  -9.980 -21.710  0.00  0.00    -0.134 NA
ATOM     22  N   UNL     1      31.305 -11.101 -22.131  0.00  0.00    -0.134 NA
ATOM     23  C   UNL     1      32.401  -7.005 -22.886  0.00  0.00    +0.030 C 
ATOM     24  C   UNL     1      31.094  -7.469 -22.147  0.00  0.00    +0.061 C 
ATOM     25  C   UNL     1      33.233  -6.275 -21.822  0.00  0.00    +0.002 C 
ATOM     26  C   UNL     1      31.190  -6.887 -20.741  0.00  0.00    +0.008 C 
ATOM     27  C   UNL     1      33.088  -8.278 -23.446  0.00  0.00    +0.109 C 
ATOM     28  C   UNL     1      32.685  -6.750 -20.483  0.00  0.00    +0.001 C 
ATOM     29  C   UNL     1      31.222  -8.939 -22.176  0.00  0.00    +0.143 A 
ATOM     30  C   UNL     1      32.345 -10.683 -22.833  0.00  0.00    +0.141 A 
ENDBRANCH  19  30
ENDBRANCH  18  19
ENDBRANCH   1  18
TORSDOF 5
ENDMDL
MODEL 6
REMARK VINA RESULT:     -12.5      4.226      9.977
REMARK  Name = 20055414
REMARK  5 active torsions:
REMARK  status: ('A' for Active; 'I' for Inactive)
REMARK    1  A    between atoms: N_1  and  C_18
REMARK    2  A    between atoms: N_2  and  C_8
REMARK    3  A    between atoms: C_11  and  C_17
REMARK    4  A    between atoms: C_18  and  C_19
REMARK    5  A    between atoms: C_19  and  C_30
REMARK                            x       y       z     vdW  Elec       q    Type
REMARK                         _______ _______ _______ _____ _____    ______ ____
ROOT
ATOM      1  N   UNL     1      35.353 -20.439 -20.108  0.00  0.00    +0.390 N 
ATOM      2  N   UNL     1      34.738 -18.016 -21.490  0.00  0.00    -0.312 N 
ATOM      3  C   UNL     1      36.200 -19.252 -19.941  0.00  0.00    -0.055 C 
ATOM      4  C   UNL     1      33.957 -20.032 -20.308  0.00  0.00    -0.055 C 
ATOM      5  C   UNL     1      36.130 -18.347 -21.172  0.00  0.00    +0.068 C 
ATOM      6  C   UNL     1      33.812 -19.155 -21.553  0.00  0.00    +0.068 C 
ATOM      7  H   UNL     1      35.667 -20.953 -20.932  0.00  0.00    -0.080 HD
ENDROOT
BRANCH   2   8
ATOM      8  C   UNL     1      34.452 -16.894 -22.276  0.00  0.00    +0.048 C 
ATOM      9  C   UNL     1      34.199 -15.663 -21.669  0.00  0.00    +0.018 C 
ATOM     10  C   UNL     1      34.421 -17.005 -23.666  0.00  0.00    +0.015 C 
ATOM     11  C   UNL     1      33.915 -14.545 -22.453  0.00  0.00    +0.073 C 
ATOM     12  C   UNL     1      34.137 -15.886 -24.449  0.00  0.00    +0.001 C 
ATOM     13  C   UNL     1      33.884 -14.657 -23.843  0.00  0.00    +0.004 C 
BRANCH  11  17
ATOM     14  F   UNL     1      33.963 -12.157 -22.588  0.00  0.00    -0.166 F 
ATOM     15  F   UNL     1      32.331 -13.046 -21.469  0.00  0.00    -0.166 F 
ATOM     16  F   UNL     1      34.345 -13.060 -20.647  0.00  0.00    -0.166 F 
ATOM     17  C   UNL     1      33.643 -13.230 -21.805  0.00  0.00    +0.419 C 
ENDBRANCH  11  17
ENDBRANCH   2   8
BRANCH   1  18
ATOM     18  C   UNL     1      35.470 -21.321 -18.948  0.00  0.00    -0.069 C 
BRANCH  18  19
ATOM     19  C   UNL     1      34.161 -22.087 -18.658  0.00  0.00    +0.043 C 
BRANCH  19  30
ATOM     20  N   UNL     1      34.976 -22.351 -16.332  0.00  0.00    -0.302 N 
ATOM     21  N   UNL     1      33.178 -22.913 -15.245  0.00  0.00    -0.134 NA
ATOM     22  N   UNL     1      32.873 -22.726 -16.597  0.00  0.00    -0.134 NA
ATOM     23  C   UNL     1      36.801 -22.393 -14.862  0.00  0.00    +0.030 C 
ATOM     24  C   UNL     1      35.480 -22.683 -14.061  0.00  0.00    +0.061 C 
ATOM     25  C   UNL     1      37.642 -23.671 -14.736  0.00  0.00    +0.002 C 
ATOM     26  C   UNL     1      35.680 -24.055 -13.427  0.00  0.00    +0.008 C 
ATOM     27  C   UNL     1      36.389 -22.061 -16.320  0.00  0.00    +0.109 C 
ATOM     28  C   UNL     1      36.659 -24.767 -14.351  0.00  0.00    +0.001 C 
ATOM     29  C   UNL     1      34.459 -22.680 -15.126  0.00  0.00    +0.143 A 
ATOM     30  C   UNL     1      33.984 -22.387 -17.229  0.00  0.00    +0.141 A 
ENDBRANCH  19  30
ENDBRANCH  18  19
ENDBRANCH   1  18
TORSDOF 5
ENDMDL
MODEL 7
REMARK VINA RESULT:     -12.3      5.085     10.767
REMARK  Name = 20055414
REMARK  5 active torsions:
REMARK  status: ('A' for Active; 'I' for Inactive)
REMARK    1  A    between atoms: N_1  and  C_18
REMARK    2  A    between atoms: N_2  and  C_8
REMARK    3  A    between atoms: C_11  and  C_17
REMARK    4  A    between atoms: C_18  and  C_19
REMARK    5  A    between atoms: C_19  and  C_30
REMARK                            x       y       z     vdW  Elec       q    Type
REMARK                         _______ _______ _______ _____ _____    ______ ____
ROOT
ATOM      1  N   UNL     1      33.878 -22.618 -17.354  0.00  0.00    +0.390 N 
ATOM      2  N   UNL     1      34.653 -20.688 -19.313  0.00  0.00    -0.312 N 
ATOM      3  C   UNL     1      35.032 -21.741 -17.119  0.00  0.00    -0.055 C 
ATOM      4  C   UNL     1      32.861 -21.905 -18.137  0.00  0.00    -0.055 C 
ATOM      5  C   UNL     1      35.662 -21.293 -18.439  0.00  0.00    +0.068 C 
ATOM      6  C   UNL     1      33.419 -21.466 -19.492  0.00  0.00    +0.068 C 
ATOM      7  H   UNL     1      34.188 -23.433 -17.882  0.00  0.00    -0.080 HD
ENDROOT
BRANCH   2   8
ATOM      8  C   UNL     1      35.052 -19.841 -20.352  0.00  0.00    +0.048 C 
ATOM      9  C   UNL     1      34.252 -19.702 -21.487  0.00  0.00    +0.018 C 
ATOM     10  C   UNL     1      36.251 -19.133 -20.254  0.00  0.00    +0.015 C 
ATOM     11  C   UNL     1      34.651 -18.857 -22.521  0.00  0.00    +0.073 C 
ATOM     12  C   UNL     1      36.649 -18.288 -21.289  0.00  0.00    +0.001 C 
ATOM     13  C   UNL     1      35.850 -18.150 -22.423  0.00  0.00    +0.004 C 
BRANCH  11  17
ATOM     14  F   UNL     1      32.462 -18.862 -23.487  0.00  0.00    -0.166 F 
ATOM     15  F   UNL     1      33.909 -17.488 -24.337  0.00  0.00    -0.166 F 
ATOM     16  F   UNL     1      34.096 -19.623 -24.703  0.00  0.00    -0.166 F 
ATOM     17  C   UNL     1      33.797 -18.709 -23.735  0.00  0.00    +0.419 C 
ENDBRANCH  11  17
ENDBRANCH   2   8
BRANCH   1  18
ATOM     18  C   UNL     1      33.319 -23.081 -16.085  0.00  0.00    -0.069 C 
BRANCH  18  19
ATOM     19  C   UNL     1      34.357 -23.058 -14.942  0.00  0.00    +0.043 C 
BRANCH  19  30
ATOM     20  N   UNL     1      36.278 -24.411 -14.152  0.00  0.00    -0.302 N 
ATOM     21  N   UNL     1      35.994 -26.309 -15.176  0.00  0.00    -0.134 NA
ATOM     22  N   UNL     1      34.969 -25.424 -15.529  0.00  0.00    -0.134 NA
ATOM     23  C   UNL     1      38.276 -24.496 -12.930  0.00  0.00    +0.030 C 
ATOM     24  C   UNL     1      38.003 -25.901 -13.579  0.00  0.00    +0.061 C 
ATOM     25  C   UNL     1      39.577 -23.997 -13.573  0.00  0.00    +0.002 C 
ATOM     26  C   UNL     1      39.211 -26.183 -14.466  0.00  0.00    +0.008 C 
ATOM     27  C   UNL     1      37.047 -23.602 -13.239  0.00  0.00    +0.109 C 
ATOM     28  C   UNL     1      39.734 -24.806 -14.853  0.00  0.00    +0.001 C 
ATOM     29  C   UNL     1      36.766 -25.658 -14.346  0.00  0.00    +0.143 A 
ATOM     30  C   UNL     1      35.171 -24.283 -14.891  0.00  0.00    +0.141 A 
ENDBRANCH  19  30
ENDBRANCH  18  19
ENDBRANCH   1  18
TORSDOF 5
ENDMDL
MODEL 8
REMARK VINA RESULT:     -12.2      1.465      2.043
REMARK  Name = 20055414
REMARK  5 active torsions:
REMARK  status: ('A' for Active; 'I' for Inactive)
REMARK    1  A    between atoms: N_1  and  C_18
REMARK    2  A    between atoms: N_2  and  C_8
REMARK    3  A    between atoms: C_11  and  C_17
REMARK    4  A    between atoms: C_18  and  C_19
REMARK    5  A    between atoms: C_19  and  C_30
REMARK                            x       y       z     vdW  Elec       q    Type
REMARK                         _______ _______ _______ _____ _____    ______ ____
ROOT
ATOM      1  N   UNL     1      33.945 -20.013 -21.033  0.00  0.00    +0.390 N 
ATOM      2  N   UNL     1      34.902 -21.048 -18.548  0.00  0.00    -0.312 N 
ATOM      3  C   UNL     1      33.003 -20.387 -19.971  0.00  0.00    -0.055 C 
ATOM      4  C   UNL     1      35.185 -19.495 -20.442  0.00  0.00    -0.055 C 
ATOM      5  C   UNL     1      33.596 -21.468 -19.064  0.00  0.00    +0.068 C 
ATOM      6  C   UNL     1      35.851 -20.547 -19.553  0.00  0.00    +0.068 C 
ATOM      7  H   UNL     1      34.165 -20.843 -21.584  0.00  0.00    -0.080 HD
ENDROOT
BRANCH   2   8
ATOM      8  C   UNL     1      35.421 -21.651 -17.398  0.00  0.00    +0.048 C 
ATOM      9  C   UNL     1      34.593 -22.415 -16.575  0.00  0.00    +0.018 C 
ATOM     10  C   UNL     1      36.768 -21.488 -17.072  0.00  0.00    +0.015 C 
ATOM     11  C   UNL     1      35.111 -23.015 -15.429  0.00  0.00    +0.073 C 
ATOM     12  C   UNL     1      37.286 -22.089 -15.924  0.00  0.00    +0.001 C 
ATOM     13  C   UNL     1      36.458 -22.852 -15.103  0.00  0.00    +0.004 C 
BRANCH  11  17
ATOM     14  F   UNL     1      34.427 -23.614 -13.216  0.00  0.00    -0.166 F 
ATOM     15  F   UNL     1      32.893 -23.602 -14.750  0.00  0.00    -0.166 F 
ATOM     16  F   UNL     1      34.396 -25.173 -14.732  0.00  0.00    -0.166 F 
ATOM     17  C   UNL     1      34.225 -23.832 -14.549  0.00  0.00    +0.419 C 
ENDBRANCH  11  17
ENDBRANCH   2   8
BRANCH   1  18
ATOM     18  C   UNL     1      33.346 -19.020 -21.923  0.00  0.00    -0.069 C 
BRANCH  18  19
ATOM     19  C   UNL     1      34.237 -18.716 -23.148  0.00  0.00    +0.043 C 
BRANCH  19  30
ATOM     20  N   UNL     1      34.123 -16.240 -23.121  0.00  0.00    -0.302 N 
ATOM     21  N   UNL     1      33.359 -15.765 -25.101  0.00  0.00    -0.134 NA
ATOM     22  N   UNL     1      33.480 -17.151 -24.962  0.00  0.00    -0.134 NA
ATOM     23  C   UNL     1      34.340 -14.257 -21.891  0.00  0.00    +0.030 C 
ATOM     24  C   UNL     1      33.901 -13.913 -23.360  0.00  0.00    +0.061 C 
ATOM     25  C   UNL     1      33.181 -13.789 -21.000  0.00  0.00    +0.002 C 
ATOM     26  C   UNL     1      32.577 -13.167 -23.227  0.00  0.00    +0.008 C 
ATOM     27  C   UNL     1      34.590 -15.787 -21.834  0.00  0.00    +0.109 C 
ATOM     28  C   UNL     1      31.977 -13.679 -21.924  0.00  0.00    +0.001 C 
ATOM     29  C   UNL     1      33.754 -15.250 -23.966  0.00  0.00    +0.143 A 
ATOM     30  C   UNL     1      33.945 -17.406 -23.751  0.00  0.00    +0.141 A 
ENDBRANCH  19  30
ENDBRANCH  18  19
ENDBRANCH   1  18
TORSDOF 5
ENDMDL
MODEL 9
REMARK VINA RESULT:     -12.2      5.439      8.953
REMARK  Name = 20055414
REMARK  5 active torsions:
REMARK  status: ('A' for Active; 'I' for Inactive)
REMARK    1  A    between atoms: N_1  and  C_18
REMARK    2  A    between atoms: N_2  and  C_8
REMARK    3  A    between atoms: C_11  and  C_17
REMARK    4  A    between atoms: C_18  and  C_19
REMARK    5  A    between atoms: C_19  and  C_30
REMARK                            x       y       z     vdW  Elec       q    Type
REMARK                         _______ _______ _______ _____ _____    ______ ____
ROOT
ATOM      1  N   UNL     1      32.063 -10.731 -21.524  0.00  0.00    +0.390 N 
ATOM      2  N   UNL     1      32.892 -13.254 -22.579  0.00  0.00    -0.312 N 
ATOM      3  C   UNL     1      32.293 -10.896 -22.965  0.00  0.00    -0.055 C 
ATOM      4  C   UNL     1      31.543 -11.981 -20.955  0.00  0.00    -0.055 C 
ATOM      5  C   UNL     1      33.304 -12.011 -23.238  0.00  0.00    +0.068 C 
ATOM      6  C   UNL     1      32.531 -13.131 -21.160  0.00  0.00    +0.068 C 
ATOM      7  H   UNL     1      32.951 -10.509 -21.074  0.00  0.00    -0.080 HD
ENDROOT
BRANCH   2   8
ATOM      8  C   UNL     1      33.402 -14.478 -23.023  0.00  0.00    +0.048 C 
ATOM      9  C   UNL     1      34.053 -15.330 -22.130  0.00  0.00    +0.018 C 
ATOM     10  C   UNL     1      33.260 -14.848 -24.361  0.00  0.00    +0.015 C 
ATOM     11  C   UNL     1      34.561 -16.549 -22.574  0.00  0.00    +0.073 C 
ATOM     12  C   UNL     1      33.769 -16.069 -24.805  0.00  0.00    +0.001 C 
ATOM     13  C   UNL     1      34.419 -16.919 -23.912  0.00  0.00    +0.004 C 
BRANCH  11  17
ATOM     14  F   UNL     1      34.758 -18.731 -21.613  0.00  0.00    -0.166 F 
ATOM     15  F   UNL     1      36.592 -17.602 -21.875  0.00  0.00    -0.166 F 
ATOM     16  F   UNL     1      35.176 -17.027 -20.328  0.00  0.00    -0.166 F 
ATOM     17  C   UNL     1      35.257 -17.459 -21.620  0.00  0.00    +0.419 C 
ENDBRANCH  11  17
ENDBRANCH   2   8
BRANCH   1  18
ATOM     18  C   UNL     1      31.136  -9.628 -21.275  0.00  0.00    -0.069 C 
BRANCH  18  19
ATOM     19  C   UNL     1      30.914  -8.754 -22.529  0.00  0.00    +0.043 C 
BRANCH  19  30
ATOM     20  N   UNL     1      31.812  -6.685 -23.555  0.00  0.00    -0.302 N 
ATOM     21  N   UNL     1      33.140  -5.912 -22.016  0.00  0.00    -0.134 NA
ATOM     22  N   UNL     1      32.549  -7.101 -21.576  0.00  0.00    -0.134 NA
ATOM     23  C   UNL     1      31.957  -5.310 -25.448  0.00  0.00    +0.030 C 
ATOM     24  C   UNL     1      32.824  -4.695 -24.290  0.00  0.00    +0.061 C 
ATOM     25  C   UNL     1      32.955  -5.660 -26.561  0.00  0.00    +0.002 C 
ATOM     26  C   UNL     1      34.244  -4.617 -24.840  0.00  0.00    +0.008 C 
ATOM     27  C   UNL     1      31.221  -6.544 -24.863  0.00  0.00    +0.109 C 
ATOM     28  C   UNL     1      34.315  -5.727 -25.881  0.00  0.00    +0.001 C 
ATOM     29  C   UNL     1      32.672  -5.696 -23.217  0.00  0.00    +0.143 A 
ATOM     30  C   UNL     1      31.750  -7.544 -22.532  0.00  0.00    +0.141 A 
ENDBRANCH  19  30
ENDBRANCH  18  19
ENDBRANCH   1  18
TORSDOF 5
ENDMDL
