MODEL 1
REMARK VINA RESULT:     -12.7      0.000      0.000
REMARK  Name = 60703
REMARK  6 active torsions:
REMARK  status: ('A' for Active; 'I' for Inactive)
REMARK    1  A    between atoms: N_1  and  C_16
REMARK    2  A    between atoms: C_2  and  C_8
REMARK    3  A    between atoms: C_8  and  C_10
REMARK    4  A    between atoms: C_16  and  C_17
REMARK    5  A    between atoms: C_17  and  C_19
REMARK    6  A    between atoms: C_17  and  O_25
REMARK                            x       y       z     vdW  Elec       q    Type
REMARK                         _______ _______ _______ _____ _____    ______ ____
ROOT
ATOM      1  N   UNL     1      34.880 -16.648 -23.180  0.00  0.00    +0.389 N 
ATOM      2  C   UNL     1      33.185 -14.280 -23.518  0.00  0.00    +0.000 C 
ATOM      3  C   UNL     1      34.225 -14.394 -22.398  0.00  0.00    -0.023 C 
ATOM      4  C   UNL     1      33.588 -15.177 -24.693  0.00  0.00    -0.023 C 
ATOM      5  C   UNL     1      34.472 -15.854 -22.014  0.00  0.00    -0.077 C 
ATOM      6  C   UNL     1      33.856 -16.611 -24.232  0.00  0.00    -0.077 C 
ATOM      7  H   UNL     1      35.734 -16.236 -23.558  0.00  0.00    -0.080 HD
ENDROOT
BRANCH   2   8
ATOM      8  C   UNL     1      33.018 -12.831 -23.967  0.00  0.00    +0.026 C 
BRANCH   8  10
ATOM      9  F   UNL     1      30.558  -9.704 -19.997  0.00  0.00    -0.204 F 
ATOM     10  C   UNL     1      32.359 -11.994 -22.904  0.00  0.00    -0.022 C 
ATOM     11  C   UNL     1      32.217 -10.627 -23.099  0.00  0.00    -0.002 C 
ATOM     12  C   UNL     1      31.901 -12.600 -21.741  0.00  0.00    -0.002 C 
ATOM     13  C   UNL     1      31.607  -9.851 -22.114  0.00  0.00    +0.029 C 
ATOM     14  C   UNL     1      31.290 -11.824 -20.757  0.00  0.00    +0.029 C 
ATOM     15  C   UNL     1      31.143 -10.449 -20.943  0.00  0.00    +0.140 C 
ENDBRANCH   8  10
ENDBRANCH   2   8
BRANCH   1  16
ATOM     16  C   UNL     1      35.161 -18.028 -22.786  0.00  0.00    -0.043 C 
BRANCH  16  17
ATOM     17  C   UNL     1      35.686 -18.090 -21.347  0.00  0.00    +0.112 C 
BRANCH  17  19
ATOM     18 CL   UNL     1      33.257 -22.660 -18.309  0.00  0.00    -0.082 Cl
ATOM     19  C   UNL     1      35.074 -19.241 -20.582  0.00  0.00    +0.002 C 
ATOM     20  C   UNL     1      33.704 -19.435 -20.632  0.00  0.00    -0.001 C 
ATOM     21  C   UNL     1      35.896 -20.079 -19.847  0.00  0.00    -0.001 C 
ATOM     22  C   UNL     1      33.140 -20.497 -19.925  0.00  0.00    +0.011 C 
ATOM     23  C   UNL     1      35.332 -21.141 -19.141  0.00  0.00    +0.011 C 
ATOM     24  C   UNL     1      33.954 -21.350 -19.180  0.00  0.00    +0.058 C 
ENDBRANCH  17  19
BRANCH  17  25
ATOM     25  O   UNL     1      37.103 -18.255 -21.345  0.00  0.00    -0.382 OA
ATOM     26  H   UNL     1      37.344 -18.998 -21.921  0.00  0.00    +0.211 HD
ENDBRANCH  17  25
ENDBRANCH  16  17
ENDBRANCH   1  16
TORSDOF 6
ENDMDL
MODEL 2
REMARK VINA RESULT:     -11.8      4.195      8.472
REMARK  Name = 60703
REMARK  6 active torsions:
REMARK  status: ('A' for Active; 'I' for Inactive)
REMARK    1  A    between atoms: N_1  and  C_16
REMARK    2  A    between atoms: C_2  and  C_8
REMARK    3  A    between atoms: C_8  and  C_10
REMARK    4  A    between atoms: C_16  and  C_17
REMARK    5  A    between atoms: C_17  and  C_19
REMARK    6  A    between atoms: C_17  and  O_25
REMARK                            x       y       z     vdW  Elec       q    Type
REMARK                         _______ _______ _______ _____ _____    ______ ____
ROOT
ATOM      1  N   UNL     1      34.675 -15.239 -22.941  0.00  0.00    +0.389 N 
ATOM      2  C   UNL     1      34.323 -18.020 -22.083  0.00  0.00    +0.000 C 
ATOM      3  C   UNL     1      34.551 -17.634 -23.548  0.00  0.00    -0.023 C 
ATOM      4  C   UNL     1      34.916 -16.945 -21.166  0.00  0.00    -0.023 C 
ATOM      5  C   UNL     1      34.046 -16.219 -23.837  0.00  0.00    -0.077 C 
ATOM      6  C   UNL     1      34.399 -15.553 -21.533  0.00  0.00    -0.077 C 
ATOM      7  H   UNL     1      35.684 -15.287 -23.082  0.00  0.00    -0.080 HD
ENDROOT
BRANCH   2   8
ATOM      8  C   UNL     1      34.918 -19.391 -21.777  0.00  0.00    +0.026 C 
BRANCH   8  10
ATOM      9  F   UNL     1      32.132 -21.984 -17.642  0.00  0.00    -0.204 F 
ATOM     10  C   UNL     1      34.173 -20.085 -20.670  0.00  0.00    -0.022 C 
ATOM     11  C   UNL     1      34.861 -20.914 -19.795  0.00  0.00    -0.002 C 
ATOM     12  C   UNL     1      32.804 -19.888 -20.538  0.00  0.00    -0.002 C 
ATOM     13  C   UNL     1      34.170 -21.557 -18.769  0.00  0.00    +0.029 C 
ATOM     14  C   UNL     1      32.113 -20.531 -19.510  0.00  0.00    +0.029 C 
ATOM     15  C   UNL     1      32.796 -21.366 -18.626  0.00  0.00    +0.140 C 
ENDBRANCH   8  10
ENDBRANCH   2   8
BRANCH   1  16
ATOM     16  C   UNL     1      34.221 -13.887 -23.264  0.00  0.00    -0.043 C 
BRANCH  16  17
ATOM     17  C   UNL     1      32.691 -13.800 -23.229  0.00  0.00    +0.112 C 
BRANCH  17  19
ATOM     18 CL   UNL     1      30.817  -9.239 -19.808  0.00  0.00    -0.082 Cl
ATOM     19  C   UNL     1      32.219 -12.651 -22.367  0.00  0.00    +0.002 C 
ATOM     20  C   UNL     1      32.002 -12.864 -21.016  0.00  0.00    -0.001 C 
ATOM     21  C   UNL     1      32.015 -11.410 -22.946  0.00  0.00    -0.001 C 
ATOM     22  C   UNL     1      31.566 -11.804 -20.221  0.00  0.00    +0.011 C 
ATOM     23  C   UNL     1      31.579 -10.350 -22.151  0.00  0.00    +0.011 C 
ATOM     24  C   UNL     1      31.355 -10.547 -20.789  0.00  0.00    +0.058 C 
ENDBRANCH  17  19
BRANCH  17  25
ATOM     25  O   UNL     1      32.177 -13.610 -24.546  0.00  0.00    -0.382 OA
ATOM     26  H   UNL     1      31.615 -12.819 -24.564  0.00  0.00    +0.211 HD
ENDBRANCH  17  25
ENDBRANCH  16  17
ENDBRANCH   1  16
TORSDOF 6
ENDMDL
MODEL 3
REMARK VINA RESULT:     -11.7      1.886      3.099
REMARK  Name = 60703
REMARK  6 active torsions:
REMARK  status: ('A' for Active; 'I' for Inactive)
REMARK    1  A    between atoms: N_1  and  C_16
REMARK    2  A    between atoms: C_2  and  C_8
REMARK    3  A    between atoms: C_8  and  C_10
REMARK    4  A    between atoms: C_16  and  C_17
REMARK    5  A    between atoms: C_17  and  C_19
REMARK    6  A    between atoms: C_17  and  O_25
REMARK                            x       y       z     vdW  Elec       q    Type
REMARK                         _______ _______ _______ _____ _____    ______ ____
ROOT
ATOM      1  N   UNL     1      33.718 -14.849 -22.627  0.00  0.00    +0.389 N 
ATOM      2  C   UNL     1      32.316 -12.517 -21.536  0.00  0.00    +0.000 C 
ATOM      3  C   UNL     1      32.245 -12.900 -23.018  0.00  0.00    -0.023 C 
ATOM      4  C   UNL     1      32.624 -13.759 -20.694  0.00  0.00    -0.023 C 
ATOM      5  C   UNL     1      33.499 -13.657 -23.458  0.00  0.00    -0.077 C 
ATOM      6  C   UNL     1      33.866 -14.488 -21.210  0.00  0.00    -0.077 C 
ATOM      7  H   UNL     1      32.898 -15.449 -22.715  0.00  0.00    -0.080 HD
ENDROOT
BRANCH   2   8
ATOM      8  C   UNL     1      31.021 -11.851 -21.078  0.00  0.00    +0.026 C 
BRANCH   8  10
ATOM      9  F   UNL     1      31.797  -6.415 -19.883  0.00  0.00    -0.204 F 
ATOM     10  C   UNL     1      31.228 -10.397 -20.758  0.00  0.00    -0.022 C 
ATOM     11  C   UNL     1      31.309  -9.473 -21.792  0.00  0.00    -0.002 C 
ATOM     12  C   UNL     1      31.336  -9.995 -19.433  0.00  0.00    -0.002 C 
ATOM     13  C   UNL     1      31.502  -8.124 -21.495  0.00  0.00    +0.029 C 
ATOM     14  C   UNL     1      31.527  -8.646 -19.137  0.00  0.00    +0.029 C 
ATOM     15  C   UNL     1      31.611  -7.710 -20.167  0.00  0.00    +0.140 C 
ENDBRANCH   8  10
ENDBRANCH   2   8
BRANCH   1  16
ATOM     16  C   UNL     1      34.890 -15.589 -23.092  0.00  0.00    -0.043 C 
BRANCH  16  17
ATOM     17  C   UNL     1      34.514 -17.025 -23.474  0.00  0.00    +0.112 C 
BRANCH  17  19
ATOM     18 CL   UNL     1      35.757 -20.882 -19.047  0.00  0.00    -0.082 Cl
ATOM     19  C   UNL     1      34.827 -17.997 -22.359  0.00  0.00    +0.002 C 
ATOM     20  C   UNL     1      36.069 -17.949 -21.749  0.00  0.00    -0.001 C 
ATOM     21  C   UNL     1      33.865 -18.914 -21.970  0.00  0.00    -0.001 C 
ATOM     22  C   UNL     1      36.358 -18.846 -20.720  0.00  0.00    +0.011 C 
ATOM     23  C   UNL     1      34.154 -19.810 -20.942  0.00  0.00    +0.011 C 
ATOM     24  C   UNL     1      35.400 -19.776 -20.317  0.00  0.00    +0.058 C 
ENDBRANCH  17  19
BRANCH  17  25
ATOM     25  O   UNL     1      33.119 -17.111 -23.762  0.00  0.00    -0.382 OA
ATOM     26  H   UNL     1      32.628 -16.524 -23.164  0.00  0.00    +0.211 HD
ENDBRANCH  17  25
ENDBRANCH  16  17
ENDBRANCH   1  16
TORSDOF 6
ENDMDL
MODEL 4
REMARK VINA RESULT:     -11.3      4.655      9.303
REMARK  Name = 60703
REMARK  6 active torsions:
REMARK  status: ('A' for Active; 'I' for Inactive)
REMARK    1  A    between atoms: N_1  and  C_16
REMARK    2  A    between atoms: C_2  and  C_8
REMARK    3  A    between atoms: C_8  and  C_10
REMARK    4  A    between atoms: C_16  and  C_17
REMARK    5  A    between atoms: C_17  and  C_19
REMARK    6  A    between atoms: C_17  and  O_25
REMARK                            x       y       z     vdW  Elec       q    Type
REMARK                         _______ _______ _______ _____ _____    ______ ____
ROOT
ATOM      1  N   UNL     1      34.760 -19.959 -20.594  0.00  0.00    +0.389 N 
ATOM      2  C   UNL     1      33.587 -21.604 -18.470  0.00  0.00    +0.000 C 
ATOM      3  C   UNL     1      32.754 -21.031 -19.621  0.00  0.00    -0.023 C 
ATOM      4  C   UNL     1      35.048 -21.748 -18.910  0.00  0.00    -0.023 C 
ATOM      5  C   UNL     1      33.371 -19.742 -20.167  0.00  0.00    -0.077 C 
ATOM      6  C   UNL     1      35.589 -20.435 -19.479  0.00  0.00    -0.077 C 
ATOM      7  H   UNL     1      34.758 -20.679 -21.315  0.00  0.00    -0.080 HD
ENDROOT
BRANCH   2   8
ATOM      8  C   UNL     1      33.022 -22.941 -17.997  0.00  0.00    +0.026 C 
BRANCH   8  10
ATOM      9  F   UNL     1      31.044 -22.615 -12.747  0.00  0.00    -0.204 F 
ATOM     10  C   UNL     1      32.493 -22.853 -16.592  0.00  0.00    -0.022 C 
ATOM     11  C   UNL     1      33.349 -23.076 -15.522  0.00  0.00    -0.002 C 
ATOM     12  C   UNL     1      31.154 -22.551 -16.382  0.00  0.00    -0.002 C 
ATOM     13  C   UNL     1      32.859 -22.995 -14.219  0.00  0.00    +0.029 C 
ATOM     14  C   UNL     1      30.663 -22.468 -15.079  0.00  0.00    +0.029 C 
ATOM     15  C   UNL     1      31.515 -22.691 -13.997  0.00  0.00    +0.140 C 
ENDBRANCH   8  10
ENDBRANCH   2   8
BRANCH   1  16
ATOM     16  C   UNL     1      35.318 -18.731 -21.160  0.00  0.00    -0.043 C 
BRANCH  16  17
ATOM     17  C   UNL     1      34.598 -18.352 -22.459  0.00  0.00    +0.112 C 
BRANCH  17  19
ATOM     18 CL   UNL     1      33.653 -12.435 -22.804  0.00  0.00    -0.082 Cl
ATOM     19  C   UNL     1      34.359 -16.861 -22.546  0.00  0.00    +0.002 C 
ATOM     20  C   UNL     1      34.165 -16.278 -23.787  0.00  0.00    -0.001 C 
ATOM     21  C   UNL     1      34.340 -16.109 -21.383  0.00  0.00    -0.001 C 
ATOM     22  C   UNL     1      33.946 -14.903 -23.867  0.00  0.00    +0.011 C 
ATOM     23  C   UNL     1      34.121 -14.735 -21.463  0.00  0.00    +0.011 C 
ATOM     24  C   UNL     1      33.924 -14.132 -22.705  0.00  0.00    +0.058 C 
ENDBRANCH  17  19
BRANCH  17  25
ATOM     25  O   UNL     1      35.376 -18.746 -23.589  0.00  0.00    -0.382 OA
ATOM     26  H   UNL     1      35.958 -18.015 -23.852  0.00  0.00    +0.211 HD
ENDBRANCH  17  25
ENDBRANCH  16  17
ENDBRANCH   1  16
TORSDOF 6
ENDMDL
MODEL 5
REMARK VINA RESULT:     -11.2      4.810      9.334
REMARK  Name = 60703
REMARK  6 active torsions:
REMARK  status: ('A' for Active; 'I' for Inactive)
REMARK    1  A    between atoms: N_1  and  C_16
REMARK    2  A    between atoms: C_2  and  C_8
REMARK    3  A    between atoms: C_8  and  C_10
REMARK    4  A    between atoms: C_16  and  C_17
REMARK    5  A    between atoms: C_17  and  C_19
REMARK    6  A    between atoms: C_17  and  O_25
REMARK                            x       y       z     vdW  Elec       q    Type
REMARK                         _______ _______ _______ _____ _____    ______ ____
ROOT
ATOM      1  N   UNL     1      33.167 -13.324 -22.454  0.00  0.00    +0.389 N 
ATOM      2  C   UNL     1      34.241 -16.052 -22.409  0.00  0.00    +0.000 C 
ATOM      3  C   UNL     1      34.212 -15.200 -23.683  0.00  0.00    -0.023 C 
ATOM      4  C   UNL     1      34.259 -15.140 -21.177  0.00  0.00    -0.023 C 
ATOM      5  C   UNL     1      33.073 -14.180 -23.645  0.00  0.00    -0.077 C 
ATOM      6  C   UNL     1      33.118 -14.122 -21.222  0.00  0.00    -0.077 C 
ATOM      7  H   UNL     1      34.067 -12.844 -22.483  0.00  0.00    -0.080 HD
ENDROOT
BRANCH   2   8
ATOM      8  C   UNL     1      35.439 -16.998 -22.408  0.00  0.00    +0.026 C 
BRANCH   8  10
ATOM      9  F   UNL     1      34.530 -21.489 -19.155  0.00  0.00    -0.204 F 
ATOM     10  C   UNL     1      35.196 -18.199 -21.537  0.00  0.00    -0.022 C 
ATOM     11  C   UNL     1      36.241 -18.730 -20.794  0.00  0.00    -0.002 C 
ATOM     12  C   UNL     1      33.928 -18.764 -21.488  0.00  0.00    -0.002 C 
ATOM     13  C   UNL     1      36.016 -19.844 -19.986  0.00  0.00    +0.029 C 
ATOM     14  C   UNL     1      33.702 -19.878 -20.680  0.00  0.00    +0.029 C 
ATOM     15  C   UNL     1      34.746 -20.419 -19.929  0.00  0.00    +0.140 C 
ENDBRANCH   8  10
ENDBRANCH   2   8
BRANCH   1  16
ATOM     16  C   UNL     1      32.102 -12.322 -22.460  0.00  0.00    -0.043 C 
BRANCH  16  17
ATOM     17  C   UNL     1      32.509 -11.096 -23.285  0.00  0.00    +0.112 C 
BRANCH  17  19
ATOM     18 CL   UNL     1      31.264  -5.985 -20.396  0.00  0.00    -0.082 Cl
ATOM     19  C   UNL     1      32.195  -9.808 -22.558  0.00  0.00    +0.002 C 
ATOM     20  C   UNL     1      32.706  -8.616 -23.043  0.00  0.00    -0.001 C 
ATOM     21  C   UNL     1      31.403  -9.848 -21.422  0.00  0.00    -0.001 C 
ATOM     22  C   UNL     1      32.416  -7.428 -22.370  0.00  0.00    +0.011 C 
ATOM     23  C   UNL     1      31.114  -8.660 -20.751  0.00  0.00    +0.011 C 
ATOM     24  C   UNL     1      31.620  -7.450 -21.225  0.00  0.00    +0.058 C 
ENDBRANCH  17  19
BRANCH  17  25
ATOM     25  O   UNL     1      33.910 -11.125 -23.556  0.00  0.00    -0.382 OA
ATOM     26  H   UNL     1      34.238 -12.034 -23.468  0.00  0.00    +0.211 HD
ENDBRANCH  17  25
ENDBRANCH  16  17
ENDBRANCH   1  16
TORSDOF 6
ENDMDL
MODEL 6
REMARK VINA RESULT:     -11.1      4.897      9.229
REMARK  Name = 60703
REMARK  6 active torsions:
REMARK  status: ('A' for Active; 'I' for Inactive)
REMARK    1  A    between atoms: N_1  and  C_16
REMARK    2  A    between atoms: C_2  and  C_8
REMARK    3  A    between atoms: C_8  and  C_10
REMARK    4  A    between atoms: C_16  and  C_17
REMARK    5  A    between atoms: C_17  and  C_19
REMARK    6  A    between atoms: C_17  and  O_25
REMARK                            x       y       z     vdW  Elec       q    Type
REMARK                         _______ _______ _______ _____ _____    ______ ____
ROOT
ATOM      1  N   UNL     1      33.187 -13.590 -21.555  0.00  0.00    +0.389 N 
ATOM      2  C   UNL     1      34.618 -15.984 -22.457  0.00  0.00    +0.000 C 
ATOM      3  C   UNL     1      34.003 -15.872 -21.058  0.00  0.00    -0.023 C 
ATOM      4  C   UNL     1      33.877 -15.055 -23.425  0.00  0.00    -0.023 C 
ATOM      5  C   UNL     1      33.933 -14.416 -20.595  0.00  0.00    -0.077 C 
ATOM      6  C   UNL     1      33.811 -13.626 -22.884  0.00  0.00    -0.077 C 
ATOM      7  H   UNL     1      32.246 -13.977 -21.638  0.00  0.00    -0.080 HD
ENDROOT
BRANCH   2   8
ATOM      8  C   UNL     1      34.593 -17.427 -22.954  0.00  0.00    +0.026 C 
BRANCH   8  10
ATOM      9  F   UNL     1      35.823 -21.057 -18.843  0.00  0.00    -0.204 F 
ATOM     10  C   UNL     1      34.922 -18.398 -21.854  0.00  0.00    -0.022 C 
ATOM     11  C   UNL     1      36.189 -18.386 -21.286  0.00  0.00    -0.002 C 
ATOM     12  C   UNL     1      33.955 -19.295 -21.420  0.00  0.00    -0.002 C 
ATOM     13  C   UNL     1      36.494 -19.287 -20.265  0.00  0.00    +0.029 C 
ATOM     14  C   UNL     1      34.259 -20.195 -20.399  0.00  0.00    +0.029 C 
ATOM     15  C   UNL     1      35.529 -20.191 -19.822  0.00  0.00    +0.140 C 
ENDBRANCH   8  10
ENDBRANCH   2   8
BRANCH   1  16
ATOM     16  C   UNL     1      33.084 -12.213 -21.073  0.00  0.00    -0.043 C 
BRANCH  16  17
ATOM     17  C   UNL     1      31.617 -11.788 -20.939  0.00  0.00    +0.112 C 
BRANCH  17  19
ATOM     18 CL   UNL     1      31.089  -5.833 -20.411  0.00  0.00    -0.082 Cl
ATOM     19  C   UNL     1      31.483 -10.288 -20.806  0.00  0.00    +0.002 C 
ATOM     20  C   UNL     1      31.444  -9.509 -21.950  0.00  0.00    -0.001 C 
ATOM     21  C   UNL     1      31.403  -9.725 -19.544  0.00  0.00    -0.001 C 
ATOM     22  C   UNL     1      31.322  -8.124 -21.827  0.00  0.00    +0.011 C 
ATOM     23  C   UNL     1      31.281  -8.341 -19.421  0.00  0.00    +0.011 C 
ATOM     24  C   UNL     1      31.240  -7.541 -20.562  0.00  0.00    +0.058 C 
ENDBRANCH  17  19
BRANCH  17  25
ATOM     25  O   UNL     1      30.876 -12.202 -22.086  0.00  0.00    -0.382 OA
ATOM     26  H   UNL     1      31.043 -13.143 -22.258  0.00  0.00    +0.211 HD
ENDBRANCH  17  25
ENDBRANCH  16  17
ENDBRANCH   1  16
TORSDOF 6
ENDMDL
MODEL 7
REMARK VINA RESULT:     -11.1      3.012      4.964
REMARK  Name = 60703
REMARK  6 active torsions:
REMARK  status: ('A' for Active; 'I' for Inactive)
REMARK    1  A    between atoms: N_1  and  C_16
REMARK    2  A    between atoms: C_2  and  C_8
REMARK    3  A    between atoms: C_8  and  C_10
REMARK    4  A    between atoms: C_16  and  C_17
REMARK    5  A    between atoms: C_17  and  C_19
REMARK    6  A    between atoms: C_17  and  O_25
REMARK                            x       y       z     vdW  Elec       q    Type
REMARK                         _______ _______ _______ _____ _____    ______ ____
ROOT
ATOM      1  N   UNL     1      34.597 -21.086 -20.187  0.00  0.00    +0.389 N 
ATOM      2  C   UNL     1      34.951 -18.313 -21.071  0.00  0.00    +0.000 C 
ATOM      3  C   UNL     1      36.133 -19.214 -20.697  0.00  0.00    -0.023 C 
ATOM      4  C   UNL     1      33.764 -19.174 -21.518  0.00  0.00    -0.023 C 
ATOM      5  C   UNL     1      35.720 -20.283 -19.683  0.00  0.00    -0.077 C 
ATOM      6  C   UNL     1      33.429 -20.244 -20.477  0.00  0.00    -0.077 C 
ATOM      7  H   UNL     1      34.892 -21.526 -21.059  0.00  0.00    -0.080 HD
ENDROOT
BRANCH   2   8
ATOM      8  C   UNL     1      35.344 -17.314 -22.156  0.00  0.00    +0.026 C 
BRANCH   8  10
ATOM      9  F   UNL     1      32.638 -12.426 -21.550  0.00  0.00    -0.204 F 
ATOM     10  C   UNL     1      34.619 -16.006 -21.994  0.00  0.00    -0.022 C 
ATOM     11  C   UNL     1      34.366 -15.221 -23.110  0.00  0.00    -0.002 C 
ATOM     12  C   UNL     1      34.213 -15.600 -20.729  0.00  0.00    -0.002 C 
ATOM     13  C   UNL     1      33.694 -14.008 -22.960  0.00  0.00    +0.029 C 
ATOM     14  C   UNL     1      33.540 -14.388 -20.579  0.00  0.00    +0.029 C 
ATOM     15  C   UNL     1      33.281 -13.591 -21.694  0.00  0.00    +0.140 C 
ENDBRANCH   8  10
ENDBRANCH   2   8
BRANCH   1  16
ATOM     16  C   UNL     1      34.249 -22.135 -19.230  0.00  0.00    -0.043 C 
BRANCH  16  17
ATOM     17  C   UNL     1      34.555 -21.689 -17.795  0.00  0.00    +0.112 C 
BRANCH  17  19
ATOM     18 CL   UNL     1      30.559 -23.899 -13.900  0.00  0.00    -0.082 Cl
ATOM     19  C   UNL     1      33.548 -22.247 -16.814  0.00  0.00    +0.002 C 
ATOM     20  C   UNL     1      32.223 -22.367 -17.200  0.00  0.00    -0.001 C 
ATOM     21  C   UNL     1      33.971 -22.625 -15.551  0.00  0.00    -0.001 C 
ATOM     22  C   UNL     1      31.295 -22.880 -16.294  0.00  0.00    +0.011 C 
ATOM     23  C   UNL     1      33.043 -23.138 -14.646  0.00  0.00    +0.011 C 
ATOM     24  C   UNL     1      31.705 -23.266 -15.017  0.00  0.00    +0.058 C 
ENDBRANCH  17  19
BRANCH  17  25
ATOM     25  O   UNL     1      35.853 -22.137 -17.405  0.00  0.00    -0.382 OA
ATOM     26  H   UNL     1      36.189 -22.767 -18.062  0.00  0.00    +0.211 HD
ENDBRANCH  17  25
ENDBRANCH  16  17
ENDBRANCH   1  16
TORSDOF 6
ENDMDL
MODEL 8
REMARK VINA RESULT:     -11.0      5.714      9.015
REMARK  Name = 60703
REMARK  6 active torsions:
REMARK  status: ('A' for Active; 'I' for Inactive)
REMARK    1  A    between atoms: N_1  and  C_16
REMARK    2  A    between atoms: C_2  and  C_8
REMARK    3  A    between atoms: C_8  and  C_10
REMARK    4  A    between atoms: C_16  and  C_17
REMARK    5  A    between atoms: C_17  and  C_19
REMARK    6  A    between atoms: C_17  and  O_25
REMARK                            x       y       z     vdW  Elec       q    Type
REMARK                         _______ _______ _______ _____ _____    ______ ____
ROOT
ATOM      1  N   UNL     1      34.655 -22.748 -15.671  0.00  0.00    +0.389 N 
ATOM      2  C   UNL     1      35.141 -21.344 -18.198  0.00  0.00    +0.000 C 
ATOM      3  C   UNL     1      36.254 -21.615 -17.181  0.00  0.00    -0.023 C 
ATOM      4  C   UNL     1      34.026 -22.383 -18.036  0.00  0.00    -0.023 C 
ATOM      5  C   UNL     1      35.697 -21.716 -15.760  0.00  0.00    -0.077 C 
ATOM      6  C   UNL     1      33.543 -22.459 -16.586  0.00  0.00    -0.077 C 
ATOM      7  H   UNL     1      35.068 -23.638 -15.950  0.00  0.00    -0.080 HD
ENDROOT
BRANCH   2   8
ATOM      8  C   UNL     1      35.687 -21.343 -19.623  0.00  0.00    +0.026 C 
BRANCH   8  10
ATOM      9  F   UNL     1      34.583 -16.506 -22.263  0.00  0.00    -0.204 F 
ATOM     10  C   UNL     1      35.392 -20.049 -20.330  0.00  0.00    -0.022 C 
ATOM     11  C   UNL     1      36.428 -19.170 -20.611  0.00  0.00    -0.002 C 
ATOM     12  C   UNL     1      34.085 -19.750 -20.693  0.00  0.00    -0.002 C 
ATOM     13  C   UNL     1      36.155 -17.969 -21.266  0.00  0.00    +0.029 C 
ATOM     14  C   UNL     1      33.811 -18.550 -21.349  0.00  0.00    +0.029 C 
ATOM     15  C   UNL     1      34.846 -17.659 -21.635  0.00  0.00    +0.140 C 
ENDBRANCH   8  10
ENDBRANCH   2   8
BRANCH   1  16
ATOM     16  C   UNL     1      34.169 -22.868 -14.297  0.00  0.00    -0.043 C 
BRANCH  16  17
ATOM     17  C   UNL     1      34.394 -24.287 -13.760  0.00  0.00    +0.112 C 
BRANCH  17  19
ATOM     18 CL   UNL     1      40.206 -25.783 -13.853  0.00  0.00    -0.082 Cl
ATOM     19  C   UNL     1      35.859 -24.663 -13.784  0.00  0.00    +0.002 C 
ATOM     20  C   UNL     1      36.277 -25.701 -14.599  0.00  0.00    -0.001 C 
ATOM     21  C   UNL     1      36.751 -23.963 -12.990  0.00  0.00    -0.001 C 
ATOM     22  C   UNL     1      37.628 -26.049 -14.620  0.00  0.00    +0.011 C 
ATOM     23  C   UNL     1      38.101 -24.310 -13.011  0.00  0.00    +0.011 C 
ATOM     24  C   UNL     1      38.539 -25.353 -13.826  0.00  0.00    +0.058 C 
ENDBRANCH  17  19
BRANCH  17  25
ATOM     25  O   UNL     1      33.930 -24.385 -12.414  0.00  0.00    -0.382 OA
ATOM     26  H   UNL     1      34.533 -24.948 -11.903  0.00  0.00    +0.211 HD
ENDBRANCH  17  25
ENDBRANCH  16  17
ENDBRANCH   1  16
TORSDOF 6
ENDMDL
MODEL 9
REMARK VINA RESULT:     -11.0      4.288      6.989
REMARK  Name = 60703
REMARK  6 active torsions:
REMARK  status: ('A' for Active; 'I' for Inactive)
REMARK    1  A    between atoms: N_1  and  C_16
REMARK    2  A    between atoms: C_2  and  C_8
REMARK    3  A    between atoms: C_8  and  C_10
REMARK    4  A    between atoms: C_16  and  C_17
REMARK    5  A    between atoms: C_17  and  C_19
REMARK    6  A    between atoms: C_17  and  O_25
REMARK                            x       y       z     vdW  Elec       q    Type
REMARK                         _______ _______ _______ _____ _____    ______ ____
ROOT
ATOM      1  N   UNL     1      33.643 -21.299 -18.598  0.00  0.00    +0.389 N 
ATOM      2  C   UNL     1      35.037 -19.843 -20.727  0.00  0.00    +0.000 C 
ATOM      3  C   UNL     1      33.607 -19.499 -20.295  0.00  0.00    -0.023 C 
ATOM      4  C   UNL     1      35.780 -20.516 -19.568  0.00  0.00    -0.023 C 
ATOM      5  C   UNL     1      32.890 -20.722 -19.720  0.00  0.00    -0.077 C 
ATOM      6  C   UNL     1      34.991 -21.705 -19.017  0.00  0.00    -0.077 C 
ATOM      7  H   UNL     1      33.739 -20.580 -17.881  0.00  0.00    -0.080 HD
ENDROOT
BRANCH   2   8
ATOM      8  C   UNL     1      35.780 -18.598 -21.206  0.00  0.00    +0.026 C 
BRANCH   8  10
ATOM      9  F   UNL     1      32.878 -15.844 -25.152  0.00  0.00    -0.204 F 
ATOM     10  C   UNL     1      35.004 -17.861 -22.262  0.00  0.00    -0.022 C 
ATOM     11  C   UNL     1      34.921 -16.477 -22.210  0.00  0.00    -0.002 C 
ATOM     12  C   UNL     1      34.379 -18.575 -23.276  0.00  0.00    -0.002 C 
ATOM     13  C   UNL     1      34.201 -15.792 -23.189  0.00  0.00    +0.029 C 
ATOM     14  C   UNL     1      33.660 -17.891 -24.256  0.00  0.00    +0.029 C 
ATOM     15  C   UNL     1      33.570 -16.500 -24.213  0.00  0.00    +0.140 C 
ENDBRANCH   8  10
ENDBRANCH   2   8
BRANCH   1  16
ATOM     16  C   UNL     1      32.919 -22.434 -18.027  0.00  0.00    -0.043 C 
BRANCH  16  17
ATOM     17  C   UNL     1      33.130 -22.510 -16.510  0.00  0.00    +0.112 C 
BRANCH  17  19
ATOM     18 CL   UNL     1      28.347 -24.845 -13.738  0.00  0.00    -0.082 Cl
ATOM     19  C   UNL     1      31.925 -23.098 -15.811  0.00  0.00    +0.002 C 
ATOM     20  C   UNL     1      32.112 -23.880 -14.684  0.00  0.00    -0.001 C 
ATOM     21  C   UNL     1      30.660 -22.842 -16.313  0.00  0.00    -0.001 C 
ATOM     22  C   UNL     1      30.999 -24.423 -14.040  0.00  0.00    +0.011 C 
ATOM     23  C   UNL     1      29.548 -23.385 -15.670  0.00  0.00    +0.011 C 
ATOM     24  C   UNL     1      29.718 -24.175 -14.533  0.00  0.00    +0.058 C 
ENDBRANCH  17  19
BRANCH  17  25
ATOM     25  O   UNL     1      34.262 -23.324 -16.209  0.00  0.00    -0.382 OA
ATOM     26  H   UNL     1      34.275 -23.523 -15.259  0.00  0.00    +0.211 HD
ENDBRANCH  17  25
ENDBRANCH  16  17
ENDBRANCH   1  16
TORSDOF 6
ENDMDL
