MODEL 1
REMARK VINA RESULT:     -11.7      0.000      0.000
REMARK  Name = 24812721
REMARK  6 active torsions:
REMARK  status: ('A' for Active; 'I' for Inactive)
REMARK    1  A    between atoms: C_1  and  N_8
REMARK    2  A    between atoms: C_4  and  N_26
REMARK    3  A    between atoms: C_5  and  C_23
REMARK    4  A    between atoms: N_26  and  C_28
REMARK    5  A    between atoms: C_28  and  C_29
REMARK    6  A    between atoms: C_29  and  O_30
REMARK                            x       y       z     vdW  Elec       q    Type
REMARK                         _______ _______ _______ _____ _____    ______ ____
ROOT
ATOM      1  C   UNL     1      35.378 -23.135 -15.767  0.00  0.00    +0.065 C 
ATOM      2  C   UNL     1      35.481 -24.319 -15.038  0.00  0.00    +0.032 C 
ATOM      3  C   UNL     1      36.507 -22.342 -15.977  0.00  0.00    +0.018 C 
ATOM      4  C   UNL     1      36.716 -24.711 -14.519  0.00  0.00    +0.051 C 
ATOM      5  C   UNL     1      37.844 -23.919 -14.727  0.00  0.00    +0.066 C 
ATOM      6  C   UNL     1      37.739 -22.735 -15.456  0.00  0.00    +0.007 C 
ENDROOT
BRANCH   1   8
ATOM      7  O   UNL     1      29.645 -22.071 -16.826  0.00  0.00    -0.291 OA
ATOM      8  N   UNL     1      34.141 -22.741 -16.289  0.00  0.00    -0.310 N 
ATOM      9  C   UNL     1      32.930 -22.954 -15.696  0.00  0.00    +0.044 A 
ATOM     10  C   UNL     1      31.946 -22.442 -16.514  0.00  0.00    +0.048 A 
ATOM     11  C   UNL     1      32.730 -23.629 -14.388  0.00  0.00    +0.045 C 
ATOM     12  C   UNL     1      31.372 -23.197 -13.812  0.00  0.00    +0.014 C 
ATOM     13  C   UNL     1      32.587 -21.881 -17.655  0.00  0.00    +0.020 A 
ATOM     14  C   UNL     1      33.962 -22.083 -17.487  0.00  0.00    +0.064 A 
ATOM     15  C   UNL     1      30.242 -23.302 -14.846  0.00  0.00    +0.070 C 
ATOM     16  C   UNL     1      30.546 -22.532 -16.131  0.00  0.00    +0.174 C 
ATOM     17  C   UNL     1      32.141 -21.220 -18.819  0.00  0.00    +0.002 C 
ATOM     18  C   UNL     1      34.908 -21.657 -18.427  0.00  0.00    +0.018 C 
ATOM     19  C   UNL     1      33.078 -20.789 -19.765  0.00  0.00    +0.000 C 
ATOM     20  C   UNL     1      34.439 -21.005 -19.570  0.00  0.00    +0.001 C 
ENDBRANCH   1   8
BRANCH   5  23
ATOM     21  O   UNL     1      39.494 -23.987 -13.048  0.00  0.00    -0.270 OA
ATOM     22  N   UNL     1      39.982 -25.050 -15.021  0.00  0.00    -0.325 N 
ATOM     23  C   UNL     1      39.147 -24.302 -14.199  0.00  0.00    +0.244 C 
ATOM     24  H   UNL     1      40.870 -25.327 -14.698  0.00  0.00    +0.145 HD
ATOM     25  H   UNL     1      39.686 -25.302 -15.925  0.00  0.00    +0.145 HD
ENDBRANCH   5  23
BRANCH   4  26
ATOM     26  N   UNL     1      36.801 -25.913 -13.781  0.00  0.00    -0.330 N 
ATOM     27  H   UNL     1      36.773 -26.769 -14.268  0.00  0.00    +0.147 HD
BRANCH  26  28
ATOM     28  C   UNL     1      36.924 -25.942 -12.358  0.00  0.00    +0.120 C 
BRANCH  28  29
ATOM     29  C   UNL     1      36.045 -24.867 -11.739  0.00  0.00    +0.163 C 
BRANCH  29  30
ATOM     30  O   UNL     1      36.846 -23.995 -10.951  0.00  0.00    -0.349 OA
ATOM     31  C   UNL     1      36.695 -22.642 -11.355  0.00  0.00    +0.174 C 
ENDBRANCH  29  30
ENDBRANCH  28  29
ENDBRANCH  26  28
ENDBRANCH   4  26
TORSDOF 6
ENDMDL
MODEL 2
REMARK VINA RESULT:     -11.1      1.318      1.835
REMARK  Name = 24812721
REMARK  6 active torsions:
REMARK  status: ('A' for Active; 'I' for Inactive)
REMARK    1  A    between atoms: C_1  and  N_8
REMARK    2  A    between atoms: C_4  and  N_26
REMARK    3  A    between atoms: C_5  and  C_23
REMARK    4  A    between atoms: N_26  and  C_28
REMARK    5  A    between atoms: C_28  and  C_29
REMARK    6  A    between atoms: C_29  and  O_30
REMARK                            x       y       z     vdW  Elec       q    Type
REMARK                         _______ _______ _______ _____ _____    ______ ____
ROOT
ATOM      1  C   UNL     1      34.625 -23.599 -15.250  0.00  0.00    +0.065 C 
ATOM      2  C   UNL     1      35.458 -22.746 -14.526  0.00  0.00    +0.032 C 
ATOM      3  C   UNL     1      34.922 -24.960 -15.333  0.00  0.00    +0.018 C 
ATOM      4  C   UNL     1      36.588 -23.254 -13.886  0.00  0.00    +0.051 C 
ATOM      5  C   UNL     1      36.886 -24.614 -13.969  0.00  0.00    +0.066 C 
ATOM      6  C   UNL     1      36.052 -25.467 -14.693  0.00  0.00    +0.007 C 
ENDROOT
BRANCH   1   8
ATOM      7  O   UNL     1      29.157 -22.011 -16.895  0.00  0.00    -0.291 OA
ATOM      8  N   UNL     1      33.491 -23.091 -15.893  0.00  0.00    -0.310 N 
ATOM      9  C   UNL     1      32.210 -23.198 -15.436  0.00  0.00    +0.044 A 
ATOM     10  C   UNL     1      31.369 -22.592 -16.346  0.00  0.00    +0.048 A 
ATOM     11  C   UNL     1      31.810 -23.863 -14.170  0.00  0.00    +0.045 C 
ATOM     12  C   UNL     1      30.443 -23.314 -13.735  0.00  0.00    +0.014 C 
ATOM     13  C   UNL     1      32.176 -22.082 -17.402  0.00  0.00    +0.020 A 
ATOM     14  C   UNL     1      33.502 -22.410 -17.092  0.00  0.00    +0.064 A 
ATOM     15  C   UNL     1      29.425 -23.308 -14.885  0.00  0.00    +0.070 C 
ATOM     16  C   UNL     1      29.933 -22.558 -16.116  0.00  0.00    +0.174 C 
ATOM     17  C   UNL     1      31.920 -21.374 -18.594  0.00  0.00    +0.002 C 
ATOM     18  C   UNL     1      34.579 -22.064 -17.918  0.00  0.00    +0.018 C 
ATOM     19  C   UNL     1      32.988 -21.023 -19.428  0.00  0.00    +0.000 C 
ATOM     20  C   UNL     1      34.295 -21.362 -19.093  0.00  0.00    +0.001 C 
ENDBRANCH   1   8
BRANCH   5  23
ATOM     21  O   UNL     1      39.198 -25.013 -13.775  0.00  0.00    -0.270 OA
ATOM     22  N   UNL     1      37.857 -25.883 -12.130  0.00  0.00    -0.325 N 
ATOM     23  C   UNL     1      38.057 -25.175 -13.310  0.00  0.00    +0.244 C 
ATOM     24  H   UNL     1      38.625 -26.277 -11.657  0.00  0.00    +0.145 HD
ATOM     25  H   UNL     1      36.947 -25.990 -11.769  0.00  0.00    +0.145 HD
ENDBRANCH   5  23
BRANCH   4  26
ATOM     26  N   UNL     1      37.420 -22.374 -13.158  0.00  0.00    -0.330 N 
ATOM     27  H   UNL     1      38.022 -21.774 -13.656  0.00  0.00    +0.147 HD
BRANCH  26  28
ATOM     28  C   UNL     1      37.426 -22.316 -11.731  0.00  0.00    +0.120 C 
BRANCH  28  29
ATOM     29  C   UNL     1      36.087 -22.788 -11.187  0.00  0.00    +0.163 C 
BRANCH  29  30
ATOM     30  O   UNL     1      36.291 -23.894 -10.317  0.00  0.00    -0.349 OA
ATOM     31  C   UNL     1      35.078 -24.303  -9.702  0.00  0.00    +0.174 C 
ENDBRANCH  29  30
ENDBRANCH  28  29
ENDBRANCH  26  28
ENDBRANCH   4  26
TORSDOF 6
ENDMDL
MODEL 3
REMARK VINA RESULT:     -10.8      0.797      3.133
REMARK  Name = 24812721
REMARK  6 active torsions:
REMARK  status: ('A' for Active; 'I' for Inactive)
REMARK    1  A    between atoms: C_1  and  N_8
REMARK    2  A    between atoms: C_4  and  N_26
REMARK    3  A    between atoms: C_5  and  C_23
REMARK    4  A    between atoms: N_26  and  C_28
REMARK    5  A    between atoms: C_28  and  C_29
REMARK    6  A    between atoms: C_29  and  O_30
REMARK                            x       y       z     vdW  Elec       q    Type
REMARK                         _______ _______ _______ _____ _____    ______ ____
ROOT
ATOM      1  C   UNL     1      35.668 -23.084 -15.857  0.00  0.00    +0.065 C 
ATOM      2  C   UNL     1      35.673 -24.261 -15.110  0.00  0.00    +0.032 C 
ATOM      3  C   UNL     1      36.841 -22.343 -16.002  0.00  0.00    +0.018 C 
ATOM      4  C   UNL     1      36.853 -24.698 -14.507  0.00  0.00    +0.051 C 
ATOM      5  C   UNL     1      38.026 -23.959 -14.651  0.00  0.00    +0.066 C 
ATOM      6  C   UNL     1      38.020 -22.781 -15.399  0.00  0.00    +0.007 C 
ENDROOT
BRANCH   1   8
ATOM      7  O   UNL     1      31.530 -20.669 -19.345  0.00  0.00    -0.291 OA
ATOM      8  N   UNL     1      34.485 -22.644 -16.461  0.00  0.00    -0.310 N 
ATOM      9  C   UNL     1      34.410 -21.923 -17.617  0.00  0.00    +0.044 A 
ATOM     10  C   UNL     1      33.082 -21.663 -17.886  0.00  0.00    +0.048 A 
ATOM     11  C   UNL     1      35.576 -21.497 -18.432  0.00  0.00    +0.045 C 
ATOM     12  C   UNL     1      35.101 -21.223 -19.868  0.00  0.00    +0.014 C 
ATOM     13  C   UNL     1      32.311 -22.264 -16.851  0.00  0.00    +0.020 A 
ATOM     14  C   UNL     1      33.217 -22.871 -15.972  0.00  0.00    +0.064 A 
ATOM     15  C   UNL     1      33.846 -20.338 -19.907  0.00  0.00    +0.070 C 
ATOM     16  C   UNL     1      32.702 -20.902 -19.065  0.00  0.00    +0.174 C 
ATOM     17  C   UNL     1      30.933 -22.355 -16.566  0.00  0.00    +0.002 C 
ATOM     18  C   UNL     1      32.807 -23.562 -14.825  0.00  0.00    +0.018 C 
ATOM     19  C   UNL     1      30.511 -23.044 -15.422  0.00  0.00    +0.000 C 
ATOM     20  C   UNL     1      31.436 -23.637 -14.567  0.00  0.00    +0.001 C 
ENDBRANCH   1   8
BRANCH   5  23
ATOM     21  O   UNL     1      39.559 -24.076 -12.868  0.00  0.00    -0.270 OA
ATOM     22  N   UNL     1      40.128 -25.180 -14.795  0.00  0.00    -0.325 N 
ATOM     23  C   UNL     1      39.274 -24.389 -14.036  0.00  0.00    +0.244 C 
ATOM     24  H   UNL     1      40.981 -25.491 -14.413  0.00  0.00    +0.145 HD
ATOM     25  H   UNL     1      39.881 -25.430 -15.714  0.00  0.00    +0.145 HD
ENDBRANCH   5  23
BRANCH   4  26
ATOM     26  N   UNL     1      36.838 -25.893 -13.753  0.00  0.00    -0.330 N 
ATOM     27  H   UNL     1      36.761 -26.751 -14.229  0.00  0.00    +0.147 HD
BRANCH  26  28
ATOM     28  C   UNL     1      36.928 -25.909 -12.327  0.00  0.00    +0.120 C 
BRANCH  28  29
ATOM     29  C   UNL     1      36.034 -24.831 -11.737  0.00  0.00    +0.163 C 
BRANCH  29  30
ATOM     30  O   UNL     1      36.817 -23.946 -10.946  0.00  0.00    -0.349 OA
ATOM     31  C   UNL     1      36.705 -22.605 -11.400  0.00  0.00    +0.174 C 
ENDBRANCH  29  30
ENDBRANCH  28  29
ENDBRANCH  26  28
ENDBRANCH   4  26
TORSDOF 6
ENDMDL
MODEL 4
REMARK VINA RESULT:     -10.6      1.406      2.559
REMARK  Name = 24812721
REMARK  6 active torsions:
REMARK  status: ('A' for Active; 'I' for Inactive)
REMARK    1  A    between atoms: C_1  and  N_8
REMARK    2  A    between atoms: C_4  and  N_26
REMARK    3  A    between atoms: C_5  and  C_23
REMARK    4  A    between atoms: N_26  and  C_28
REMARK    5  A    between atoms: C_28  and  C_29
REMARK    6  A    between atoms: C_29  and  O_30
REMARK                            x       y       z     vdW  Elec       q    Type
REMARK                         _______ _______ _______ _____ _____    ______ ____
ROOT
ATOM      1  C   UNL     1      33.966 -23.640 -14.358  0.00  0.00    +0.065 C 
ATOM      2  C   UNL     1      34.820 -24.669 -14.754  0.00  0.00    +0.032 C 
ATOM      3  C   UNL     1      34.098 -23.072 -13.090  0.00  0.00    +0.018 C 
ATOM      4  C   UNL     1      35.806 -25.130 -13.882  0.00  0.00    +0.051 C 
ATOM      5  C   UNL     1      35.939 -24.563 -12.615  0.00  0.00    +0.066 C 
ATOM      6  C   UNL     1      35.084 -23.534 -12.219  0.00  0.00    +0.007 C 
ENDROOT
BRANCH   1   8
ATOM      7  O   UNL     1      28.914 -22.162 -17.081  0.00  0.00    -0.291 OA
ATOM      8  N   UNL     1      32.976 -23.178 -15.231  0.00  0.00    -0.310 N 
ATOM      9  C   UNL     1      31.631 -23.246 -15.009  0.00  0.00    +0.044 A 
ATOM     10  C   UNL     1      30.979 -22.708 -16.098  0.00  0.00    +0.048 A 
ATOM     11  C   UNL     1      30.998 -23.813 -13.791  0.00  0.00    +0.045 C 
ATOM     12  C   UNL     1      29.584 -23.229 -13.653  0.00  0.00    +0.014 C 
ATOM     13  C   UNL     1      31.973 -22.281 -17.024  0.00  0.00    +0.020 A 
ATOM     14  C   UNL     1      33.215 -22.589 -16.455  0.00  0.00    +0.064 A 
ATOM     15  C   UNL     1      28.791 -23.305 -14.966  0.00  0.00    +0.070 C 
ATOM     16  C   UNL     1      29.527 -22.651 -16.136  0.00  0.00    +0.174 C 
ATOM     17  C   UNL     1      31.949 -21.663 -18.292  0.00  0.00    +0.002 C 
ATOM     18  C   UNL     1      34.429 -22.308 -17.094  0.00  0.00    +0.018 C 
ATOM     19  C   UNL     1      33.156 -21.378 -18.941  0.00  0.00    +0.000 C 
ATOM     20  C   UNL     1      34.375 -21.696 -18.349  0.00  0.00    +0.001 C 
ENDBRANCH   1   8
BRANCH   5  23
ATOM     21  O   UNL     1      36.995 -26.201 -11.293  0.00  0.00    -0.270 OA
ATOM     22  N   UNL     1      37.906 -24.096 -11.256  0.00  0.00    -0.325 N 
ATOM     23  C   UNL     1      36.959 -25.021 -11.681  0.00  0.00    +0.244 C 
ATOM     24  H   UNL     1      38.611 -24.369 -10.626  0.00  0.00    +0.145 HD
ATOM     25  H   UNL     1      37.870 -23.169 -11.585  0.00  0.00    +0.145 HD
ENDBRANCH   5  23
BRANCH   4  26
ATOM     26  N   UNL     1      36.661 -26.174 -14.301  0.00  0.00    -0.330 N 
ATOM     27  H   UNL     1      36.352 -27.104 -14.208  0.00  0.00    +0.147 HD
BRANCH  26  28
ATOM     28  C   UNL     1      37.958 -25.938 -14.853  0.00  0.00    +0.120 C 
BRANCH  28  29
ATOM     29  C   UNL     1      38.271 -24.451 -14.827  0.00  0.00    +0.163 C 
BRANCH  29  30
ATOM     30  O   UNL     1      39.438 -24.226 -14.047  0.00  0.00    -0.349 OA
ATOM     31  C   UNL     1      40.208 -25.412 -13.907  0.00  0.00    +0.174 C 
ENDBRANCH  29  30
ENDBRANCH  28  29
ENDBRANCH  26  28
ENDBRANCH   4  26
TORSDOF 6
ENDMDL
MODEL 5
REMARK VINA RESULT:     -10.1      1.507      3.851
REMARK  Name = 24812721
REMARK  6 active torsions:
REMARK  status: ('A' for Active; 'I' for Inactive)
REMARK    1  A    between atoms: C_1  and  N_8
REMARK    2  A    between atoms: C_4  and  N_26
REMARK    3  A    between atoms: C_5  and  C_23
REMARK    4  A    between atoms: N_26  and  C_28
REMARK    5  A    between atoms: C_28  and  C_29
REMARK    6  A    between atoms: C_29  and  O_30
REMARK                            x       y       z     vdW  Elec       q    Type
REMARK                         _______ _______ _______ _____ _____    ______ ____
ROOT
ATOM      1  C   UNL     1      34.189 -23.396 -14.717  0.00  0.00    +0.065 C 
ATOM      2  C   UNL     1      34.913 -24.567 -14.938  0.00  0.00    +0.032 C 
ATOM      3  C   UNL     1      34.328 -22.705 -13.513  0.00  0.00    +0.018 C 
ATOM      4  C   UNL     1      35.776 -25.048 -13.953  0.00  0.00    +0.051 C 
ATOM      5  C   UNL     1      35.915 -24.359 -12.749  0.00  0.00    +0.066 C 
ATOM      6  C   UNL     1      35.190 -23.188 -12.529  0.00  0.00    +0.007 C 
ENDROOT
BRANCH   1   8
ATOM      7  O   UNL     1      31.703 -20.952 -19.510  0.00  0.00    -0.291 OA
ATOM      8  N   UNL     1      33.323 -22.913 -15.704  0.00  0.00    -0.310 N 
ATOM      9  C   UNL     1      33.708 -22.289 -16.856  0.00  0.00    +0.044 A 
ATOM     10  C   UNL     1      32.577 -21.944 -17.565  0.00  0.00    +0.048 A 
ATOM     11  C   UNL     1      35.115 -22.035 -17.257  0.00  0.00    +0.045 C 
ATOM     12  C   UNL     1      35.168 -21.847 -18.781  0.00  0.00    +0.014 C 
ATOM     13  C   UNL     1      31.450 -22.386 -16.816  0.00  0.00    +0.020 A 
ATOM     14  C   UNL     1      31.948 -22.989 -15.654  0.00  0.00    +0.064 A 
ATOM     15  C   UNL     1      34.097 -20.867 -19.284  0.00  0.00    +0.070 C 
ATOM     16  C   UNL     1      32.687 -21.258 -18.843  0.00  0.00    +0.174 C 
ATOM     17  C   UNL     1      30.053 -22.336 -17.003  0.00  0.00    +0.002 C 
ATOM     18  C   UNL     1      31.114 -23.542 -14.674  0.00  0.00    +0.018 C 
ATOM     19  C   UNL     1      29.210 -22.886 -16.030  0.00  0.00    +0.000 C 
ATOM     20  C   UNL     1      29.734 -23.479 -14.885  0.00  0.00    +0.001 C 
ENDBRANCH   1   8
BRANCH   5  23
ATOM     21  O   UNL     1      36.688 -25.974 -11.219  0.00  0.00    -0.270 OA
ATOM     22  N   UNL     1      37.816 -23.977 -11.275  0.00  0.00    -0.325 N 
ATOM     23  C   UNL     1      36.809 -24.835 -11.702  0.00  0.00    +0.244 C 
ATOM     24  H   UNL     1      38.439 -24.264 -10.569  0.00  0.00    +0.145 HD
ATOM     25  H   UNL     1      37.905 -23.084 -11.678  0.00  0.00    +0.145 HD
ENDBRANCH   5  23
BRANCH   4  26
ATOM     26  N   UNL     1      36.500 -26.238 -14.195  0.00  0.00    -0.330 N 
ATOM     27  H   UNL     1      36.049 -27.102 -14.054  0.00  0.00    +0.147 HD
BRANCH  26  28
ATOM     28  C   UNL     1      37.860 -26.240 -14.634  0.00  0.00    +0.120 C 
BRANCH  28  29
ATOM     29  C   UNL     1      38.314 -24.819 -14.925  0.00  0.00    +0.163 C 
BRANCH  29  30
ATOM     30  O   UNL     1      39.379 -24.473 -14.048  0.00  0.00    -0.349 OA
ATOM     31  C   UNL     1      40.269 -25.563 -13.854  0.00  0.00    +0.174 C 
ENDBRANCH  29  30
ENDBRANCH  28  29
ENDBRANCH  26  28
ENDBRANCH   4  26
TORSDOF 6
ENDMDL
MODEL 6
REMARK VINA RESULT:      -9.5      1.943      6.434
REMARK  Name = 24812721
REMARK  6 active torsions:
REMARK  status: ('A' for Active; 'I' for Inactive)
REMARK    1  A    between atoms: C_1  and  N_8
REMARK    2  A    between atoms: C_4  and  N_26
REMARK    3  A    between atoms: C_5  and  C_23
REMARK    4  A    between atoms: N_26  and  C_28
REMARK    5  A    between atoms: C_28  and  C_29
REMARK    6  A    between atoms: C_29  and  O_30
REMARK                            x       y       z     vdW  Elec       q    Type
REMARK                         _______ _______ _______ _____ _____    ______ ____
ROOT
ATOM      1  C   UNL     1      35.896 -22.580 -16.039  0.00  0.00    +0.065 C 
ATOM      2  C   UNL     1      34.627 -22.787 -16.580  0.00  0.00    +0.032 C 
ATOM      3  C   UNL     1      36.784 -21.700 -16.658  0.00  0.00    +0.018 C 
ATOM      4  C   UNL     1      34.247 -22.113 -17.741  0.00  0.00    +0.051 C 
ATOM      5  C   UNL     1      35.134 -21.233 -18.360  0.00  0.00    +0.066 C 
ATOM      6  C   UNL     1      36.404 -21.028 -17.819  0.00  0.00    +0.007 C 
ENDROOT
BRANCH   1   8
ATOM      7  O   UNL     1      36.237 -25.100 -10.686  0.00  0.00    -0.291 OA
ATOM      8  N   UNL     1      36.278 -23.255 -14.875  0.00  0.00    -0.310 N 
ATOM      9  C   UNL     1      35.492 -23.439 -13.775  0.00  0.00    +0.044 A 
ATOM     10  C   UNL     1      36.218 -24.132 -12.829  0.00  0.00    +0.048 A 
ATOM     11  C   UNL     1      34.092 -22.963 -13.639  0.00  0.00    +0.045 C 
ATOM     12  C   UNL     1      33.386 -23.803 -12.564  0.00  0.00    +0.014 C 
ATOM     13  C   UNL     1      37.504 -24.392 -13.382  0.00  0.00    +0.020 A 
ATOM     14  C   UNL     1      37.513 -23.830 -14.665  0.00  0.00    +0.064 A 
ATOM     15  C   UNL     1      34.221 -23.928 -11.281  0.00  0.00    +0.070 C 
ATOM     16  C   UNL     1      35.626 -24.468 -11.544  0.00  0.00    +0.174 C 
ATOM     17  C   UNL     1      38.667 -25.047 -12.926  0.00  0.00    +0.002 C 
ATOM     18  C   UNL     1      38.629 -23.894 -15.509  0.00  0.00    +0.018 C 
ATOM     19  C   UNL     1      39.788 -25.117 -13.760  0.00  0.00    +0.000 C 
ATOM     20  C   UNL     1      39.767 -24.549 -15.031  0.00  0.00    +0.001 C 
ENDBRANCH   1   8
BRANCH   5  23
ATOM     21  O   UNL     1      33.621 -20.592 -20.047  0.00  0.00    -0.270 OA
ATOM     22  N   UNL     1      35.738 -19.719 -20.170  0.00  0.00    -0.325 N 
ATOM     23  C   UNL     1      34.767 -20.514 -19.573  0.00  0.00    +0.244 C 
ATOM     24  H   UNL     1      35.527 -19.218 -20.991  0.00  0.00    +0.145 HD
ATOM     25  H   UNL     1      36.637 -19.659 -19.773  0.00  0.00    +0.145 HD
ENDBRANCH   5  23
BRANCH   4  26
ATOM     26  N   UNL     1      32.958 -22.336 -18.274  0.00  0.00    -0.330 N 
ATOM     27  H   UNL     1      32.879 -22.786 -19.146  0.00  0.00    +0.147 HD
BRANCH  26  28
ATOM     28  C   UNL     1      31.762 -21.935 -17.602  0.00  0.00    +0.120 C 
BRANCH  28  29
ATOM     29  C   UNL     1      31.412 -22.944 -16.520  0.00  0.00    +0.163 C 
BRANCH  29  30
ATOM     30  O   UNL     1      31.171 -22.262 -15.296  0.00  0.00    -0.349 OA
ATOM     31  C   UNL     1      29.959 -22.690 -14.691  0.00  0.00    +0.174 C 
ENDBRANCH  29  30
ENDBRANCH  28  29
ENDBRANCH  26  28
ENDBRANCH   4  26
TORSDOF 6
ENDMDL
MODEL 7
REMARK VINA RESULT:      -9.3      1.408      3.620
REMARK  Name = 24812721
REMARK  6 active torsions:
REMARK  status: ('A' for Active; 'I' for Inactive)
REMARK    1  A    between atoms: C_1  and  N_8
REMARK    2  A    between atoms: C_4  and  N_26
REMARK    3  A    between atoms: C_5  and  C_23
REMARK    4  A    between atoms: N_26  and  C_28
REMARK    5  A    between atoms: C_28  and  C_29
REMARK    6  A    between atoms: C_29  and  O_30
REMARK                            x       y       z     vdW  Elec       q    Type
REMARK                         _______ _______ _______ _____ _____    ______ ____
ROOT
ATOM      1  C   UNL     1      34.832 -24.050 -14.862  0.00  0.00    +0.065 C 
ATOM      2  C   UNL     1      35.676 -23.188 -14.162  0.00  0.00    +0.032 C 
ATOM      3  C   UNL     1      35.266 -25.333 -15.197  0.00  0.00    +0.018 C 
ATOM      4  C   UNL     1      36.956 -23.609 -13.798  0.00  0.00    +0.051 C 
ATOM      5  C   UNL     1      37.391 -24.891 -14.133  0.00  0.00    +0.066 C 
ATOM      6  C   UNL     1      36.546 -25.752 -14.833  0.00  0.00    +0.007 C 
ENDROOT
BRANCH   1   8
ATOM      7  O   UNL     1      30.071 -21.682 -17.477  0.00  0.00    -0.291 OA
ATOM      8  N   UNL     1      33.550 -23.629 -15.227  0.00  0.00    -0.310 N 
ATOM      9  C   UNL     1      33.246 -22.896 -16.338  0.00  0.00    +0.044 A 
ATOM     10  C   UNL     1      31.888 -22.661 -16.349  0.00  0.00    +0.048 A 
ATOM     11  C   UNL     1      34.231 -22.437 -17.351  0.00  0.00    +0.045 C 
ATOM     12  C   UNL     1      33.491 -22.157 -18.668  0.00  0.00    +0.014 C 
ATOM     13  C   UNL     1      31.335 -23.288 -15.197  0.00  0.00    +0.020 A 
ATOM     14  C   UNL     1      32.400 -23.886 -14.512  0.00  0.00    +0.064 A 
ATOM     15  C   UNL     1      32.235 -21.298 -18.458  0.00  0.00    +0.070 C 
ATOM     16  C   UNL     1      31.279 -21.895 -17.425  0.00  0.00    +0.174 C 
ATOM     17  C   UNL     1      30.036 -23.411 -14.661  0.00  0.00    +0.002 C 
ATOM     18  C   UNL     1      32.226 -24.599 -13.319  0.00  0.00    +0.018 C 
ATOM     19  C   UNL     1      29.849 -24.120 -13.468  0.00  0.00    +0.000 C 
ATOM     20  C   UNL     1      30.928 -24.705 -12.811  0.00  0.00    +0.001 C 
ENDBRANCH   1   8
BRANCH   5  23
ATOM     21  O   UNL     1      38.954 -25.811 -12.632  0.00  0.00    -0.270 OA
ATOM     22  N   UNL     1      39.714 -25.306 -14.737  0.00  0.00    -0.325 N 
ATOM     23  C   UNL     1      38.720 -25.361 -13.766  0.00  0.00    +0.244 C 
ATOM     24  H   UNL     1      40.624 -25.615 -14.526  0.00  0.00    +0.145 HD
ATOM     25  H   UNL     1      39.507 -24.959 -15.634  0.00  0.00    +0.145 HD
ENDBRANCH   5  23
BRANCH   4  26
ATOM     26  N   UNL     1      37.797 -22.721 -13.091  0.00  0.00    -0.330 N 
ATOM     27  H   UNL     1      38.537 -22.287 -13.573  0.00  0.00    +0.147 HD
BRANCH  26  28
ATOM     28  C   UNL     1      37.619 -22.425 -11.705  0.00  0.00    +0.120 C 
BRANCH  28  29
ATOM     29  C   UNL     1      36.243 -22.881 -11.249  0.00  0.00    +0.163 C 
BRANCH  29  30
ATOM     30  O   UNL     1      36.382 -23.858 -10.225  0.00  0.00    -0.349 OA
ATOM     31  C   UNL     1      35.123 -24.218  -9.674  0.00  0.00    +0.174 C 
ENDBRANCH  29  30
ENDBRANCH  28  29
ENDBRANCH  26  28
ENDBRANCH   4  26
TORSDOF 6
ENDMDL
MODEL 8
REMARK VINA RESULT:      -9.1     15.314     18.752
REMARK  Name = 24812721
REMARK  6 active torsions:
REMARK  status: ('A' for Active; 'I' for Inactive)
REMARK    1  A    between atoms: C_1  and  N_8
REMARK    2  A    between atoms: C_4  and  N_26
REMARK    3  A    between atoms: C_5  and  C_23
REMARK    4  A    between atoms: N_26  and  C_28
REMARK    5  A    between atoms: C_28  and  C_29
REMARK    6  A    between atoms: C_29  and  O_30
REMARK                            x       y       z     vdW  Elec       q    Type
REMARK                         _______ _______ _______ _____ _____    ______ ____
ROOT
ATOM      1  C   UNL     1      32.027  -6.556 -22.005  0.00  0.00    +0.065 C 
ATOM      2  C   UNL     1      31.810  -7.819 -22.555  0.00  0.00    +0.032 C 
ATOM      3  C   UNL     1      32.080  -6.397 -20.620  0.00  0.00    +0.018 C 
ATOM      4  C   UNL     1      31.645  -8.923 -21.719  0.00  0.00    +0.051 C 
ATOM      5  C   UNL     1      31.697  -8.766 -20.335  0.00  0.00    +0.066 C 
ATOM      6  C   UNL     1      31.914  -7.502 -19.785  0.00  0.00    +0.007 C 
ENDROOT
BRANCH   1   8
ATOM      7  O   UNL     1      33.740  -2.635 -26.106  0.00  0.00    -0.291 OA
ATOM      8  N   UNL     1      32.193  -5.447 -22.842  0.00  0.00    -0.310 N 
ATOM      9  C   UNL     1      33.106  -5.350 -23.852  0.00  0.00    +0.044 A 
ATOM     10  C   UNL     1      32.980  -4.108 -24.437  0.00  0.00    +0.048 A 
ATOM     11  C   UNL     1      34.067  -6.415 -24.236  0.00  0.00    +0.045 C 
ATOM     12  C   UNL     1      34.508  -6.181 -25.689  0.00  0.00    +0.014 C 
ATOM     13  C   UNL     1      31.934  -3.419 -23.760  0.00  0.00    +0.020 A 
ATOM     14  C   UNL     1      31.460  -4.283 -22.764  0.00  0.00    +0.064 A 
ATOM     15  C   UNL     1      34.923  -4.725 -25.944  0.00  0.00    +0.070 C 
ATOM     16  C   UNL     1      33.836  -3.725 -25.548  0.00  0.00    +0.174 C 
ATOM     17  C   UNL     1      31.339  -2.147 -23.887  0.00  0.00    +0.002 C 
ATOM     18  C   UNL     1      30.421  -3.932 -21.894  0.00  0.00    +0.018 C 
ATOM     19  C   UNL     1      30.299  -1.786 -23.023  0.00  0.00    +0.000 C 
ATOM     20  C   UNL     1      29.849  -2.666 -22.043  0.00  0.00    +0.001 C 
ENDBRANCH   1   8
BRANCH   5  23
ATOM     21  O   UNL     1      31.569 -11.068 -19.856  0.00  0.00    -0.270 OA
ATOM     22  N   UNL     1      31.343  -9.629 -18.085  0.00  0.00    -0.325 N 
ATOM     23  C   UNL     1      31.529  -9.900 -19.435  0.00  0.00    +0.244 C 
ATOM     24  H   UNL     1      31.226 -10.370 -17.446  0.00  0.00    +0.145 HD
ATOM     25  H   UNL     1      31.327  -8.698 -17.767  0.00  0.00    +0.145 HD
ENDBRANCH   5  23
BRANCH   4  26
ATOM     26  N   UNL     1      31.424 -10.195 -22.295  0.00  0.00    -0.330 N 
ATOM     27  H   UNL     1      30.603 -10.684 -22.059  0.00  0.00    +0.147 HD
BRANCH  26  28
ATOM     28  C   UNL     1      32.341 -10.801 -23.208  0.00  0.00    +0.120 C 
BRANCH  28  29
ATOM     29  C   UNL     1      32.410 -12.298 -22.957  0.00  0.00    +0.163 C 
BRANCH  29  30
ATOM     30  O   UNL     1      33.735 -12.656 -22.584  0.00  0.00    -0.349 OA
ATOM     31  C   UNL     1      33.868 -14.061 -22.421  0.00  0.00    +0.174 C 
ENDBRANCH  29  30
ENDBRANCH  28  29
ENDBRANCH  26  28
ENDBRANCH   4  26
TORSDOF 6
ENDMDL
MODEL 9
REMARK VINA RESULT:      -9.0      2.576      6.454
REMARK  Name = 24812721
REMARK  6 active torsions:
REMARK  status: ('A' for Active; 'I' for Inactive)
REMARK    1  A    between atoms: C_1  and  N_8
REMARK    2  A    between atoms: C_4  and  N_26
REMARK    3  A    between atoms: C_5  and  C_23
REMARK    4  A    between atoms: N_26  and  C_28
REMARK    5  A    between atoms: C_28  and  C_29
REMARK    6  A    between atoms: C_29  and  O_30
REMARK                            x       y       z     vdW  Elec       q    Type
REMARK                         _______ _______ _______ _____ _____    ______ ____
ROOT
ATOM      1  C   UNL     1      31.988 -22.686 -16.513  0.00  0.00    +0.065 C 
ATOM      2  C   UNL     1      31.491 -23.804 -15.843  0.00  0.00    +0.032 C 
ATOM      3  C   UNL     1      31.109 -21.771 -17.092  0.00  0.00    +0.018 C 
ATOM      4  C   UNL     1      30.114 -24.007 -15.753  0.00  0.00    +0.051 C 
ATOM      5  C   UNL     1      29.234 -23.093 -16.333  0.00  0.00    +0.066 C 
ATOM      6  C   UNL     1      29.733 -21.975 -17.003  0.00  0.00    +0.007 C 
ENDROOT
BRANCH   1   8
ATOM      7  O   UNL     1      37.843 -22.409 -15.637  0.00  0.00    -0.291 OA
ATOM      8  N   UNL     1      33.369 -22.483 -16.603  0.00  0.00    -0.310 N 
ATOM      9  C   UNL     1      34.284 -22.837 -15.654  0.00  0.00    +0.044 A 
ATOM     10  C   UNL     1      35.536 -22.461 -16.090  0.00  0.00    +0.048 A 
ATOM     11  C   UNL     1      33.961 -23.513 -14.371  0.00  0.00    +0.045 C 
ATOM     12  C   UNL     1      35.222 -24.226 -13.858  0.00  0.00    +0.014 C 
ATOM     13  C   UNL     1      35.380 -21.857 -17.370  0.00  0.00    +0.020 A 
ATOM     14  C   UNL     1      34.011 -21.884 -17.666  0.00  0.00    +0.064 A 
ATOM     15  C   UNL     1      36.458 -23.316 -13.890  0.00  0.00    +0.070 C 
ATOM     16  C   UNL     1      36.711 -22.714 -15.272  0.00  0.00    +0.174 C 
ATOM     17  C   UNL     1      36.261 -21.287 -18.313  0.00  0.00    +0.002 C 
ATOM     18  C   UNL     1      33.486 -21.368 -18.857  0.00  0.00    +0.018 C 
ATOM     19  C   UNL     1      35.747 -20.768 -19.507  0.00  0.00    +0.000 C 
ATOM     20  C   UNL     1      34.381 -20.810 -19.773  0.00  0.00    +0.001 C 
ENDBRANCH   1   8
BRANCH   5  23
ATOM     21  O   UNL     1      27.218 -24.164 -16.907  0.00  0.00    -0.270 OA
ATOM     22  N   UNL     1      27.079 -22.433 -15.410  0.00  0.00    -0.325 N 
ATOM     23  C   UNL     1      27.791 -23.275 -16.255  0.00  0.00    +0.244 C 
ATOM     24  H   UNL     1      26.102 -22.526 -15.331  0.00  0.00    +0.145 HD
ATOM     25  H   UNL     1      27.551 -21.743 -14.890  0.00  0.00    +0.145 HD
ENDBRANCH   5  23
BRANCH   4  26
ATOM     26  N   UNL     1      29.629 -25.146 -15.072  0.00  0.00    -0.330 N 
ATOM     27  H   UNL     1      29.560 -25.996 -15.563  0.00  0.00    +0.147 HD
BRANCH  26  28
ATOM     28  C   UNL     1      29.235 -25.117 -13.699  0.00  0.00    +0.120 C 
BRANCH  28  29
ATOM     29  C   UNL     1      30.425 -24.754 -12.825  0.00  0.00    +0.163 C 
BRANCH  29  30
ATOM     30  O   UNL     1      30.173 -23.517 -12.170  0.00  0.00    -0.349 OA
ATOM     31  C   UNL     1      31.028 -22.490 -12.651  0.00  0.00    +0.174 C 
ENDBRANCH  29  30
ENDBRANCH  28  29
ENDBRANCH  26  28
ENDBRANCH   4  26
TORSDOF 6
ENDMDL
