MODEL 1
REMARK VINA RESULT:     -12.9      0.000      0.000
REMARK  Name = 447360
REMARK  5 active torsions:
REMARK  status: ('A' for Active; 'I' for Inactive)
REMARK    1  A    between atoms: N_2  and  C_19
REMARK    2  A    between atoms: N_3  and  S_8
REMARK    3  A    between atoms: S_8  and  C_11
REMARK    4  A    between atoms: C_12  and  C_15
REMARK    5  A    between atoms: C_19  and  C_22
REMARK                            x       y       z     vdW  Elec       q    Type
REMARK                         _______ _______ _______ _____ _____    ______ ____
ROOT
ATOM      1  O   UNL     1      31.606 -20.536 -19.302  0.00  0.00    -0.273 OA
ATOM      2  N   UNL     1      33.673 -21.462 -18.806  0.00  0.00    -0.271 N 
ATOM      3  N   UNL     1      34.906 -19.478 -20.348  0.00  0.00    -0.144 NA
ATOM      4  C   UNL     1      35.128 -21.368 -18.877  0.00  0.00    +0.113 C 
ATOM      5  C   UNL     1      35.607 -20.769 -20.182  0.00  0.00    +0.118 C 
ATOM      6  C   UNL     1      33.451 -19.670 -20.502  0.00  0.00    +0.181 C 
ATOM      7  C   UNL     1      32.830 -20.574 -19.467  0.00  0.00    +0.244 C 
ENDROOT
BRANCH   3   8
ATOM      8  S   UNL     1      35.626 -18.372 -21.437  0.00  0.00    +0.065 S 
ATOM      9  O   UNL     1      35.220 -18.746 -22.781  0.00  0.00    -0.153 OA
ATOM     10  O   UNL     1      37.038 -18.278 -21.108  0.00  0.00    -0.153 OA
BRANCH   8  11
ATOM     11  C   UNL     1      34.884 -16.854 -21.055  0.00  0.00    +0.141 C 
ATOM     12  C   UNL     1      34.587 -16.046 -22.080  0.00  0.00    +0.028 C 
BRANCH  12  15
ATOM     13 CL   UNL     1      32.407 -11.149 -23.127  0.00  0.00    -0.075 Cl
ATOM     14  S   UNL     1      33.700 -13.815 -23.316  0.00  0.00    -0.075 S 
ATOM     15  C   UNL     1      33.958 -14.767 -21.930  0.00  0.00    +0.032 C 
ATOM     16  C   UNL     1      33.519 -14.181 -20.780  0.00  0.00    +0.008 C 
ATOM     17  C   UNL     1      32.946 -12.901 -21.037  0.00  0.00    +0.018 C 
ATOM     18  C   UNL     1      32.980 -12.578 -22.375  0.00  0.00    +0.087 C 
ENDBRANCH  12  15
ENDBRANCH   8  11
ENDBRANCH   3   8
BRANCH   2  19
ATOM     19  C   UNL     1      33.135 -22.387 -17.818  0.00  0.00    +0.135 C 
BRANCH  19  22
ATOM     20  N   UNL     1      33.891 -23.476 -15.723  0.00  0.00    -0.314 N 
ATOM     21  N   UNL     1      37.318 -23.105 -13.495  0.00  0.00    -0.242 NA
ATOM     22  C   UNL     1      34.140 -22.597 -16.727  0.00  0.00    +0.046 C 
ATOM     23  C   UNL     1      35.359 -22.024 -16.537  0.00  0.00    +0.015 C 
ATOM     24  C   UNL     1      34.957 -23.488 -14.854  0.00  0.00    +0.051 C 
ATOM     25  C   UNL     1      35.898 -22.581 -15.345  0.00  0.00    +0.034 C 
ATOM     26  C   UNL     1      35.164 -24.220 -13.689  0.00  0.00    +0.035 C 
ATOM     27  C   UNL     1      37.089 -22.407 -14.633  0.00  0.00    +0.100 C 
ATOM     28  C   UNL     1      36.375 -23.973 -13.061  0.00  0.00    +0.100 C 
ATOM     29  H   UNL     1      33.075 -24.019 -15.630  0.00  0.00    +0.152 HD
ENDBRANCH  19  22
ENDBRANCH   2  19
TORSDOF 5
ENDMDL
MODEL 2
REMARK VINA RESULT:     -12.5      4.499      9.660
REMARK  Name = 447360
REMARK  5 active torsions:
REMARK  status: ('A' for Active; 'I' for Inactive)
REMARK    1  A    between atoms: N_2  and  C_19
REMARK    2  A    between atoms: N_3  and  S_8
REMARK    3  A    between atoms: S_8  and  C_11
REMARK    4  A    between atoms: C_12  and  C_15
REMARK    5  A    between atoms: C_19  and  C_22
REMARK                            x       y       z     vdW  Elec       q    Type
REMARK                         _______ _______ _______ _____ _____    ______ ____
ROOT
ATOM      1  O   UNL     1      33.121 -19.247 -21.731  0.00  0.00    -0.273 OA
ATOM      2  N   UNL     1      35.140 -19.698 -20.685  0.00  0.00    -0.271 N 
ATOM      3  N   UNL     1      33.854 -21.588 -19.070  0.00  0.00    -0.144 NA
ATOM      4  C   UNL     1      35.900 -20.522 -19.750  0.00  0.00    +0.113 C 
ATOM      5  C   UNL     1      35.079 -20.943 -18.549  0.00  0.00    +0.118 C 
ATOM      6  C   UNL     1      33.015 -20.630 -19.815  0.00  0.00    +0.181 C 
ATOM      7  C   UNL     1      33.763 -19.818 -20.844  0.00  0.00    +0.244 C 
ENDROOT
BRANCH   3   8
ATOM      8  S   UNL     1      33.021 -22.603 -17.972  0.00  0.00    +0.065 S 
ATOM      9  O   UNL     1      33.122 -23.966 -18.465  0.00  0.00    -0.153 OA
ATOM     10  O   UNL     1      31.714 -22.017 -17.727  0.00  0.00    -0.153 OA
BRANCH   8  11
ATOM     11  C   UNL     1      33.941 -22.492 -16.508  0.00  0.00    +0.141 C 
ATOM     12  C   UNL     1      33.828 -23.504 -15.640  0.00  0.00    +0.028 C 
BRANCH  12  15
ATOM     13 CL   UNL     1      37.808 -23.696 -11.904  0.00  0.00    -0.075 Cl
ATOM     14  S   UNL     1      36.237 -23.568 -14.420  0.00  0.00    -0.075 S 
ATOM     15  C   UNL     1      34.535 -23.567 -14.395  0.00  0.00    +0.032 C 
ATOM     16  C   UNL     1      34.012 -23.630 -13.137  0.00  0.00    +0.008 C 
ATOM     17  C   UNL     1      35.039 -23.680 -12.151  0.00  0.00    +0.018 C 
ATOM     18  C   UNL     1      36.297 -23.653 -12.711  0.00  0.00    +0.087 C 
ENDBRANCH  12  15
ENDBRANCH   8  11
ENDBRANCH   3   8
BRANCH   2  19
ATOM     19  C   UNL     1      35.919 -18.902 -21.623  0.00  0.00    +0.135 C 
BRANCH  19  22
ATOM     20  N   UNL     1      34.828 -16.874 -20.706  0.00  0.00    -0.314 N 
ATOM     21  N   UNL     1      33.385 -13.468 -22.485  0.00  0.00    -0.242 NA
ATOM     22  C   UNL     1      35.285 -17.555 -21.788  0.00  0.00    +0.046 C 
ATOM     23  C   UNL     1      35.061 -16.824 -22.913  0.00  0.00    +0.015 C 
ATOM     24  C   UNL     1      34.293 -15.674 -21.117  0.00  0.00    +0.051 C 
ATOM     25  C   UNL     1      34.428 -15.618 -22.505  0.00  0.00    +0.034 C 
ATOM     26  C   UNL     1      33.711 -14.647 -20.381  0.00  0.00    +0.035 C 
ATOM     27  C   UNL     1      33.958 -14.484 -23.174  0.00  0.00    +0.100 C 
ATOM     28  C   UNL     1      33.277 -13.570 -21.140  0.00  0.00    +0.100 C 
ATOM     29  H   UNL     1      34.871 -17.188 -19.774  0.00  0.00    +0.152 HD
ENDBRANCH  19  22
ENDBRANCH   2  19
TORSDOF 5
ENDMDL
MODEL 3
REMARK VINA RESULT:     -12.0      2.870      4.423
REMARK  Name = 447360
REMARK  5 active torsions:
REMARK  status: ('A' for Active; 'I' for Inactive)
REMARK    1  A    between atoms: N_2  and  C_19
REMARK    2  A    between atoms: N_3  and  S_8
REMARK    3  A    between atoms: S_8  and  C_11
REMARK    4  A    between atoms: C_12  and  C_15
REMARK    5  A    between atoms: C_19  and  C_22
REMARK                            x       y       z     vdW  Elec       q    Type
REMARK                         _______ _______ _______ _____ _____    ______ ____
ROOT
ATOM      1  O   UNL     1      35.816 -17.484 -20.227  0.00  0.00    -0.273 OA
ATOM      2  N   UNL     1      35.062 -19.016 -21.796  0.00  0.00    -0.271 N 
ATOM      3  N   UNL     1      34.342 -16.900 -23.480  0.00  0.00    -0.144 NA
ATOM      4  C   UNL     1      34.550 -19.272 -23.138  0.00  0.00    +0.113 C 
ATOM      5  C   UNL     1      33.616 -18.181 -23.620  0.00  0.00    +0.118 C 
ATOM      6  C   UNL     1      34.626 -16.592 -22.066  0.00  0.00    +0.181 C 
ATOM      7  C   UNL     1      35.243 -17.731 -21.293  0.00  0.00    +0.244 C 
ENDROOT
BRANCH   3   8
ATOM      8  S   UNL     1      33.743 -15.598 -24.416  0.00  0.00    +0.065 S 
ATOM      9  O   UNL     1      32.660 -16.107 -25.241  0.00  0.00    -0.153 OA
ATOM     10  O   UNL     1      34.878 -14.938 -25.039  0.00  0.00    -0.153 OA
BRANCH   8  11
ATOM     11  C   UNL     1      33.065 -14.512 -23.249  0.00  0.00    +0.141 C 
ATOM     12  C   UNL     1      32.897 -13.239 -23.627  0.00  0.00    +0.028 C 
BRANCH  12  15
ATOM     13 CL   UNL     1      31.288  -8.419 -21.626  0.00  0.00    -0.075 Cl
ATOM     14  S   UNL     1      32.417 -10.604 -23.290  0.00  0.00    -0.075 S 
ATOM     15  C   UNL     1      32.336 -12.226 -22.784  0.00  0.00    +0.032 C 
ATOM     16  C   UNL     1      31.719 -12.387 -21.578  0.00  0.00    +0.008 C 
ATOM     17  C   UNL     1      31.292 -11.138 -21.044  0.00  0.00    +0.018 C 
ATOM     18  C   UNL     1      31.609 -10.084 -21.872  0.00  0.00    +0.087 C 
ENDBRANCH  12  15
ENDBRANCH   8  11
ENDBRANCH   3   8
BRANCH   2  19
ATOM     19  C   UNL     1      35.603 -20.165 -21.083  0.00  0.00    +0.135 C 
BRANCH  19  22
ATOM     20  N   UNL     1      34.945 -21.544 -19.130  0.00  0.00    -0.314 N 
ATOM     21  N   UNL     1      31.341 -22.146 -17.262  0.00  0.00    -0.242 NA
ATOM     22  C   UNL     1      34.583 -20.682 -20.115  0.00  0.00    +0.046 C 
ATOM     23  C   UNL     1      33.250 -20.428 -20.030  0.00  0.00    +0.015 C 
ATOM     24  C   UNL     1      33.837 -21.868 -18.381  0.00  0.00    +0.051 C 
ATOM     25  C   UNL     1      32.755 -21.177 -18.927  0.00  0.00    +0.034 C 
ATOM     26  C   UNL     1      33.709 -22.705 -17.277  0.00  0.00    +0.035 C 
ATOM     27  C   UNL     1      31.497 -21.337 -18.337  0.00  0.00    +0.100 C 
ATOM     28  C   UNL     1      32.421 -22.794 -16.769  0.00  0.00    +0.100 C 
ATOM     29  H   UNL     1      35.856 -21.884 -18.977  0.00  0.00    +0.152 HD
ENDBRANCH  19  22
ENDBRANCH   2  19
TORSDOF 5
ENDMDL
MODEL 4
REMARK VINA RESULT:     -11.8      4.688      7.670
REMARK  Name = 447360
REMARK  5 active torsions:
REMARK  status: ('A' for Active; 'I' for Inactive)
REMARK    1  A    between atoms: N_2  and  C_19
REMARK    2  A    between atoms: N_3  and  S_8
REMARK    3  A    between atoms: S_8  and  C_11
REMARK    4  A    between atoms: C_12  and  C_15
REMARK    5  A    between atoms: C_19  and  C_22
REMARK                            x       y       z     vdW  Elec       q    Type
REMARK                         _______ _______ _______ _____ _____    ______ ____
ROOT
ATOM      1  O   UNL     1      33.004 -14.534 -25.600  0.00  0.00    -0.273 OA
ATOM      2  N   UNL     1      33.882 -15.172 -23.552  0.00  0.00    -0.271 N 
ATOM      3  N   UNL     1      32.473 -13.088 -22.325  0.00  0.00    -0.144 NA
ATOM      4  C   UNL     1      33.898 -15.012 -22.101  0.00  0.00    +0.113 C 
ATOM      5  C   UNL     1      33.710 -13.572 -21.674  0.00  0.00    +0.118 C 
ATOM      6  C   UNL     1      32.612 -13.058 -23.794  0.00  0.00    +0.181 C 
ATOM      7  C   UNL     1      33.160 -14.330 -24.392  0.00  0.00    +0.244 C 
ENDROOT
BRANCH   3   8
ATOM      8  S   UNL     1      31.753 -11.703 -21.622  0.00  0.00    +0.065 S 
ATOM      9  O   UNL     1      32.321 -11.535 -20.295  0.00  0.00    -0.153 OA
ATOM     10  O   UNL     1      30.314 -11.818 -21.784  0.00  0.00    -0.153 OA
BRANCH   8  11
ATOM     11  C   UNL     1      32.302 -10.390 -22.611  0.00  0.00    +0.141 C 
ATOM     12  C   UNL     1      31.587  -9.259 -22.572  0.00  0.00    +0.028 C 
BRANCH  12  15
ATOM     13 CL   UNL     1      34.272  -4.970 -24.628  0.00  0.00    -0.075 Cl
ATOM     14  S   UNL     1      33.471  -7.408 -23.134  0.00  0.00    -0.075 S 
ATOM     15  C   UNL     1      31.919  -8.081 -23.318  0.00  0.00    +0.032 C 
ATOM     16  C   UNL     1      31.130  -7.395 -24.193  0.00  0.00    +0.008 C 
ATOM     17  C   UNL     1      31.818  -6.272 -24.738  0.00  0.00    +0.018 C 
ATOM     18  C   UNL     1      33.100  -6.162 -24.248  0.00  0.00    +0.087 C 
ENDBRANCH  12  15
ENDBRANCH   8  11
ENDBRANCH   3   8
BRANCH   2  19
ATOM     19  C   UNL     1      34.466 -16.401 -24.071  0.00  0.00    +0.135 C 
BRANCH  19  22
ATOM     20  N   UNL     1      33.751 -18.196 -22.517  0.00  0.00    -0.314 N 
ATOM     21  N   UNL     1      35.698 -20.170 -19.492  0.00  0.00    -0.242 NA
ATOM     22  C   UNL     1      34.725 -17.351 -22.941  0.00  0.00    +0.046 C 
ATOM     23  C   UNL     1      35.848 -17.541 -22.198  0.00  0.00    +0.015 C 
ATOM     24  C   UNL     1      34.232 -18.958 -21.477  0.00  0.00    +0.051 C 
ATOM     25  C   UNL     1      35.553 -18.566 -21.257  0.00  0.00    +0.034 C 
ATOM     26  C   UNL     1      33.613 -19.952 -20.726  0.00  0.00    +0.035 C 
ATOM     27  C   UNL     1      36.275 -19.200 -20.240  0.00  0.00    +0.100 C 
ATOM     28  C   UNL     1      34.415 -20.515 -19.745  0.00  0.00    +0.100 C 
ATOM     29  H   UNL     1      32.843 -18.253 -22.893  0.00  0.00    +0.152 HD
ENDBRANCH  19  22
ENDBRANCH   2  19
TORSDOF 5
ENDMDL
MODEL 5
REMARK VINA RESULT:     -11.7      4.402      9.800
REMARK  Name = 447360
REMARK  5 active torsions:
REMARK  status: ('A' for Active; 'I' for Inactive)
REMARK    1  A    between atoms: N_2  and  C_19
REMARK    2  A    between atoms: N_3  and  S_8
REMARK    3  A    between atoms: S_8  and  C_11
REMARK    4  A    between atoms: C_12  and  C_15
REMARK    5  A    between atoms: C_19  and  C_22
REMARK                            x       y       z     vdW  Elec       q    Type
REMARK                         _______ _______ _______ _____ _____    ______ ____
ROOT
ATOM      1  O   UNL     1      37.044 -18.671 -19.931  0.00  0.00    -0.273 OA
ATOM      2  N   UNL     1      35.259 -18.715 -21.410  0.00  0.00    -0.271 N 
ATOM      3  N   UNL     1      33.962 -20.559 -19.751  0.00  0.00    -0.144 NA
ATOM      4  C   UNL     1      33.903 -19.165 -21.710  0.00  0.00    +0.113 C 
ATOM      5  C   UNL     1      33.627 -20.561 -21.192  0.00  0.00    +0.118 C 
ATOM      6  C   UNL     1      35.402 -20.326 -19.532  0.00  0.00    +0.181 C 
ATOM      7  C   UNL     1      35.963 -19.149 -20.291  0.00  0.00    +0.244 C 
ENDROOT
BRANCH   3   8
ATOM      8  S   UNL     1      33.266 -21.818 -18.823  0.00  0.00    +0.065 S 
ATOM      9  O   UNL     1      33.466 -23.063 -19.545  0.00  0.00    -0.153 OA
ATOM     10  O   UNL     1      31.924 -21.407 -18.449  0.00  0.00    -0.153 OA
BRANCH   8  11
ATOM     11  C   UNL     1      34.232 -21.870 -17.386  0.00  0.00    +0.141 C 
ATOM     12  C   UNL     1      33.846 -22.717 -16.424  0.00  0.00    +0.028 C 
BRANCH  12  15
ATOM     13 CL   UNL     1      35.096 -24.049 -11.276  0.00  0.00    -0.075 Cl
ATOM     14  S   UNL     1      33.745 -23.642 -13.889  0.00  0.00    -0.075 S 
ATOM     15  C   UNL     1      34.547 -22.887 -15.185  0.00  0.00    +0.032 C 
ATOM     16  C   UNL     1      35.823 -22.511 -14.887  0.00  0.00    +0.008 C 
ATOM     17  C   UNL     1      36.164 -22.852 -13.547  0.00  0.00    +0.018 C 
ATOM     18  C   UNL     1      35.125 -23.473 -12.890  0.00  0.00    +0.087 C 
ENDBRANCH  12  15
ENDBRANCH   8  11
ENDBRANCH   3   8
BRANCH   2  19
ATOM     19  C   UNL     1      35.761 -17.605 -22.207  0.00  0.00    +0.135 C 
BRANCH  19  22
ATOM     20  N   UNL     1      34.658 -15.521 -22.974  0.00  0.00    -0.314 N 
ATOM     21  N   UNL     1      32.333 -12.750 -21.034  0.00  0.00    -0.242 NA
ATOM     22  C   UNL     1      34.918 -16.390 -21.964  0.00  0.00    +0.046 C 
ATOM     23  C   UNL     1      34.314 -15.958 -20.825  0.00  0.00    +0.015 C 
ATOM     24  C   UNL     1      33.871 -14.497 -22.500  0.00  0.00    +0.051 C 
ATOM     25  C   UNL     1      33.638 -14.749 -21.147  0.00  0.00    +0.034 C 
ATOM     26  C   UNL     1      33.350 -13.383 -23.152  0.00  0.00    +0.035 C 
ATOM     27  C   UNL     1      32.852 -13.844 -20.427  0.00  0.00    +0.100 C 
ATOM     28  C   UNL     1      32.587 -12.550 -22.348  0.00  0.00    +0.100 C 
ATOM     29  H   UNL     1      34.983 -15.609 -23.899  0.00  0.00    +0.152 HD
ENDBRANCH  19  22
ENDBRANCH   2  19
TORSDOF 5
ENDMDL
MODEL 6
REMARK VINA RESULT:     -11.5      5.155      8.216
REMARK  Name = 447360
REMARK  5 active torsions:
REMARK  status: ('A' for Active; 'I' for Inactive)
REMARK    1  A    between atoms: N_2  and  C_19
REMARK    2  A    between atoms: N_3  and  S_8
REMARK    3  A    between atoms: S_8  and  C_11
REMARK    4  A    between atoms: C_12  and  C_15
REMARK    5  A    between atoms: C_19  and  C_22
REMARK                            x       y       z     vdW  Elec       q    Type
REMARK                         _______ _______ _______ _____ _____    ______ ____
ROOT
ATOM      1  O   UNL     1      32.694 -13.893 -25.697  0.00  0.00    -0.273 OA
ATOM      2  N   UNL     1      33.693 -14.645 -23.744  0.00  0.00    -0.271 N 
ATOM      3  N   UNL     1      32.289 -12.697 -22.305  0.00  0.00    -0.144 NA
ATOM      4  C   UNL     1      33.778 -14.586 -22.288  0.00  0.00    +0.113 C 
ATOM      5  C   UNL     1      33.571 -13.186 -21.751  0.00  0.00    +0.118 C 
ATOM      6  C   UNL     1      32.353 -12.561 -23.773  0.00  0.00    +0.181 C 
ATOM      7  C   UNL     1      32.905 -13.770 -24.486  0.00  0.00    +0.244 C 
ENDROOT
BRANCH   3   8
ATOM      8  S   UNL     1      31.567 -11.389 -21.470  0.00  0.00    +0.065 S 
ATOM      9  O   UNL     1      31.985 -11.465 -20.081  0.00  0.00    -0.153 OA
ATOM     10  O   UNL     1      30.152 -11.377 -21.801  0.00  0.00    -0.153 OA
BRANCH   8  11
ATOM     11  C   UNL     1      32.294  -9.982 -22.173  0.00  0.00    +0.141 C 
ATOM     12  C   UNL     1      31.689  -8.809 -21.952  0.00  0.00    +0.028 C 
BRANCH  12  15
ATOM     13 CL   UNL     1      31.964  -3.637 -23.687  0.00  0.00    -0.075 Cl
ATOM     14  S   UNL     1      31.073  -6.277 -22.660  0.00  0.00    -0.075 S 
ATOM     15  C   UNL     1      32.175  -7.557 -22.451  0.00  0.00    +0.032 C 
ATOM     16  C   UNL     1      33.453  -7.233 -22.799  0.00  0.00    +0.008 C 
ATOM     17  C   UNL     1      33.541  -5.886 -23.253  0.00  0.00    +0.018 C 
ATOM     18  C   UNL     1      32.320  -5.250 -23.229  0.00  0.00    +0.087 C 
ENDBRANCH  12  15
ENDBRANCH   8  11
ENDBRANCH   3   8
BRANCH   2  19
ATOM     19  C   UNL     1      34.285 -15.815 -24.377  0.00  0.00    +0.135 C 
BRANCH  19  22
ATOM     20  N   UNL     1      35.584 -16.963 -22.605  0.00  0.00    -0.314 N 
ATOM     21  N   UNL     1      34.808 -20.283 -20.320  0.00  0.00    -0.242 NA
ATOM     22  C   UNL     1      34.458 -16.903 -23.361  0.00  0.00    +0.046 C 
ATOM     23  C   UNL     1      33.630 -17.928 -23.026  0.00  0.00    +0.015 C 
ATOM     24  C   UNL     1      35.503 -18.043 -21.756  0.00  0.00    +0.051 C 
ATOM     25  C   UNL     1      34.280 -18.668 -22.000  0.00  0.00    +0.034 C 
ATOM     26  C   UNL     1      36.402 -18.509 -20.801  0.00  0.00    +0.035 C 
ATOM     27  C   UNL     1      33.953 -19.805 -21.255  0.00  0.00    +0.100 C 
ATOM     28  C   UNL     1      35.982 -19.641 -20.120  0.00  0.00    +0.100 C 
ATOM     29  H   UNL     1      36.339 -16.334 -22.657  0.00  0.00    +0.152 HD
ENDBRANCH  19  22
ENDBRANCH   2  19
TORSDOF 5
ENDMDL
MODEL 7
REMARK VINA RESULT:     -11.5      6.022     12.175
REMARK  Name = 447360
REMARK  5 active torsions:
REMARK  status: ('A' for Active; 'I' for Inactive)
REMARK    1  A    between atoms: N_2  and  C_19
REMARK    2  A    between atoms: N_3  and  S_8
REMARK    3  A    between atoms: S_8  and  C_11
REMARK    4  A    between atoms: C_12  and  C_15
REMARK    5  A    between atoms: C_19  and  C_22
REMARK                            x       y       z     vdW  Elec       q    Type
REMARK                         _______ _______ _______ _____ _____    ______ ____
ROOT
ATOM      1  O   UNL     1      32.289 -12.968 -20.217  0.00  0.00    -0.273 OA
ATOM      2  N   UNL     1      31.978 -11.885 -22.243  0.00  0.00    -0.271 N 
ATOM      3  N   UNL     1      32.985 -14.134 -23.571  0.00  0.00    -0.144 NA
ATOM      4  C   UNL     1      31.993 -11.947 -23.702  0.00  0.00    +0.113 C 
ATOM      5  C   UNL     1      33.111 -12.818 -24.234  0.00  0.00    +0.118 C 
ATOM      6  C   UNL     1      33.212 -14.030 -22.117  0.00  0.00    +0.181 C 
ATOM      7  C   UNL     1      32.431 -12.930 -21.443  0.00  0.00    +0.244 C 
ENDROOT
BRANCH   3   8
ATOM      8  S   UNL     1      33.769 -15.440 -24.352  0.00  0.00    +0.065 S 
ATOM      9  O   UNL     1      34.762 -14.884 -25.256  0.00  0.00    -0.153 OA
ATOM     10  O   UNL     1      32.745 -16.334 -24.863  0.00  0.00    -0.153 OA
BRANCH   8  11
ATOM     11  C   UNL     1      34.606 -16.258 -23.074  0.00  0.00    +0.141 C 
ATOM     12  C   UNL     1      34.284 -17.539 -22.858  0.00  0.00    +0.028 C 
BRANCH  12  15
ATOM     13 CL   UNL     1      35.130 -21.326 -19.014  0.00  0.00    -0.075 Cl
ATOM     14  S   UNL     1      33.969 -19.575 -21.112  0.00  0.00    -0.075 S 
ATOM     15  C   UNL     1      34.896 -18.355 -21.851  0.00  0.00    +0.032 C 
ATOM     16  C   UNL     1      36.174 -18.286 -21.381  0.00  0.00    +0.008 C 
ATOM     17  C   UNL     1      36.411 -19.269 -20.377  0.00  0.00    +0.018 C 
ATOM     18  C   UNL     1      35.295 -20.038 -20.133  0.00  0.00    +0.087 C 
ENDBRANCH  12  15
ENDBRANCH   8  11
ENDBRANCH   3   8
BRANCH   2  19
ATOM     19  C   UNL     1      31.246 -10.774 -21.653  0.00  0.00    +0.135 C 
BRANCH  19  22
ATOM     20  N   UNL     1      30.568  -8.742 -22.901  0.00  0.00    -0.314 N 
ATOM     21  N   UNL     1      32.728  -5.705 -24.620  0.00  0.00    -0.242 NA
ATOM     22  C   UNL     1      31.565  -9.511 -22.395  0.00  0.00    +0.046 C 
ATOM     23  C   UNL     1      32.767  -8.944 -22.680  0.00  0.00    +0.015 C 
ATOM     24  C   UNL     1      31.115  -7.648 -23.532  0.00  0.00    +0.051 C 
ATOM     25  C   UNL     1      32.501  -7.751 -23.407  0.00  0.00    +0.034 C 
ATOM     26  C   UNL     1      30.501  -6.588 -24.193  0.00  0.00    +0.035 C 
ATOM     27  C   UNL     1      33.296  -6.748 -23.970  0.00  0.00    +0.100 C 
ATOM     28  C   UNL     1      31.380  -5.650 -24.715  0.00  0.00    +0.100 C 
ATOM     29  H   UNL     1      29.606  -8.936 -22.829  0.00  0.00    +0.152 HD
ENDBRANCH  19  22
ENDBRANCH   2  19
TORSDOF 5
ENDMDL
MODEL 8
REMARK VINA RESULT:     -11.0      3.561      6.039
REMARK  Name = 447360
REMARK  5 active torsions:
REMARK  status: ('A' for Active; 'I' for Inactive)
REMARK    1  A    between atoms: N_2  and  C_19
REMARK    2  A    between atoms: N_3  and  S_8
REMARK    3  A    between atoms: S_8  and  C_11
REMARK    4  A    between atoms: C_12  and  C_15
REMARK    5  A    between atoms: C_19  and  C_22
REMARK                            x       y       z     vdW  Elec       q    Type
REMARK                         _______ _______ _______ _____ _____    ______ ____
ROOT
ATOM      1  O   UNL     1      34.796 -16.062 -20.531  0.00  0.00    -0.273 OA
ATOM      2  N   UNL     1      34.829 -16.950 -22.672  0.00  0.00    -0.271 N 
ATOM      3  N   UNL     1      33.713 -14.577 -23.648  0.00  0.00    -0.144 NA
ATOM      4  C   UNL     1      34.635 -16.750 -24.105  0.00  0.00    +0.113 C 
ATOM      5  C   UNL     1      33.477 -15.823 -24.409  0.00  0.00    +0.118 C 
ATOM      6  C   UNL     1      33.666 -14.815 -22.193  0.00  0.00    +0.181 C 
ATOM      7  C   UNL     1      34.501 -15.982 -21.728  0.00  0.00    +0.244 C 
ENDROOT
BRANCH   3   8
ATOM      8  S   UNL     1      32.865 -13.195 -24.199  0.00  0.00    +0.065 S 
ATOM      9  O   UNL     1      31.688 -13.655 -24.917  0.00  0.00    -0.153 OA
ATOM     10  O   UNL     1      33.819 -12.321 -24.860  0.00  0.00    -0.153 OA
BRANCH   8  11
ATOM     11  C   UNL     1      32.337 -12.413 -22.746  0.00  0.00    +0.141 C 
ATOM     12  C   UNL     1      32.237 -11.079 -22.776  0.00  0.00    +0.028 C 
BRANCH  12  15
ATOM     13 CL   UNL     1      31.122  -6.862 -19.488  0.00  0.00    -0.075 Cl
ATOM     14  S   UNL     1      31.990  -8.600 -21.734  0.00  0.00    -0.075 S 
ATOM     15  C   UNL     1      31.800 -10.289 -21.662  0.00  0.00    +0.032 C 
ATOM     16  C   UNL     1      31.229 -10.721 -20.502  0.00  0.00    +0.008 C 
ATOM     17  C   UNL     1      30.932  -9.632 -19.633  0.00  0.00    +0.018 C 
ATOM     18  C   UNL     1      31.294  -8.421 -20.179  0.00  0.00    +0.087 C 
ENDBRANCH  12  15
ENDBRANCH   8  11
ENDBRANCH   3   8
BRANCH   2  19
ATOM     19  C   UNL     1      35.606 -18.119 -22.284  0.00  0.00    +0.135 C 
BRANCH  19  22
ATOM     20  N   UNL     1      35.378 -19.777 -20.455  0.00  0.00    -0.314 N 
ATOM     21  N   UNL     1      32.111 -21.596 -18.764  0.00  0.00    -0.242 NA
ATOM     22  C   UNL     1      34.782 -18.996 -21.391  0.00  0.00    +0.046 C 
ATOM     23  C   UNL     1      33.434 -19.171 -21.338  0.00  0.00    +0.015 C 
ATOM     24  C   UNL     1      34.415 -20.482 -19.770  0.00  0.00    +0.051 C 
ATOM     25  C   UNL     1      33.179 -20.117 -20.307  0.00  0.00    +0.034 C 
ATOM     26  C   UNL     1      34.535 -21.398 -18.730  0.00  0.00    +0.035 C 
ATOM     27  C   UNL     1      32.024 -20.700 -19.776  0.00  0.00    +0.100 C 
ATOM     28  C   UNL     1      33.331 -21.916 -18.277  0.00  0.00    +0.100 C 
ATOM     29  H   UNL     1      36.347 -19.832 -20.292  0.00  0.00    +0.152 HD
ENDBRANCH  19  22
ENDBRANCH   2  19
TORSDOF 5
ENDMDL
MODEL 9
REMARK VINA RESULT:     -10.7      2.444      3.331
REMARK  Name = 447360
REMARK  5 active torsions:
REMARK  status: ('A' for Active; 'I' for Inactive)
REMARK    1  A    between atoms: N_2  and  C_19
REMARK    2  A    between atoms: N_3  and  S_8
REMARK    3  A    between atoms: S_8  and  C_11
REMARK    4  A    between atoms: C_12  and  C_15
REMARK    5  A    between atoms: C_19  and  C_22
REMARK                            x       y       z     vdW  Elec       q    Type
REMARK                         _______ _______ _______ _____ _____    ______ ____
ROOT
ATOM      1  O   UNL     1      36.049 -22.033 -17.961  0.00  0.00    -0.273 OA
ATOM      2  N   UNL     1      34.033 -21.913 -19.100  0.00  0.00    -0.271 N 
ATOM      3  N   UNL     1      35.024 -19.752 -20.577  0.00  0.00    -0.144 NA
ATOM      4  C   UNL     1      33.248 -21.325 -20.181  0.00  0.00    +0.113 C 
ATOM      5  C   UNL     1      33.560 -19.858 -20.393  0.00  0.00    +0.118 C 
ATOM      6  C   UNL     1      35.752 -20.146 -19.356  0.00  0.00    +0.181 C 
ATOM      7  C   UNL     1      35.305 -21.459 -18.763  0.00  0.00    +0.244 C 
ENDROOT
BRANCH   3   8
ATOM      8  S   UNL     1      35.578 -18.323 -21.340  0.00  0.00    +0.065 S 
ATOM      9  O   UNL     1      35.509 -18.532 -22.776  0.00  0.00    -0.153 OA
ATOM     10  O   UNL     1      36.838 -17.948 -20.723  0.00  0.00    -0.153 OA
BRANCH   8  11
ATOM     11  C   UNL     1      34.396 -17.129 -20.915  0.00  0.00    +0.141 C 
ATOM     12  C   UNL     1      34.539 -15.912 -21.454  0.00  0.00    +0.028 C 
BRANCH  12  15
ATOM     13 CL   UNL     1      31.576 -11.363 -22.050  0.00  0.00    -0.075 Cl
ATOM     14  S   UNL     1      33.417 -13.660 -22.435  0.00  0.00    -0.075 S 
ATOM     15  C   UNL     1      33.638 -14.824 -21.214  0.00  0.00    +0.032 C 
ATOM     16  C   UNL     1      32.901 -14.580 -20.093  0.00  0.00    +0.008 C 
ATOM     17  C   UNL     1      32.121 -13.396 -20.233  0.00  0.00    +0.018 C 
ATOM     18  C   UNL     1      32.307 -12.796 -21.459  0.00  0.00    +0.087 C 
ENDBRANCH  12  15
ENDBRANCH   8  11
ENDBRANCH   3   8
BRANCH   2  19
ATOM     19  C   UNL     1      33.525 -23.156 -18.538  0.00  0.00    +0.135 C 
BRANCH  19  22
ATOM     20  N   UNL     1      31.290 -22.671 -17.580  0.00  0.00    -0.314 N 
ATOM     21  N   UNL     1      30.025 -21.939 -13.745  0.00  0.00    -0.242 NA
ATOM     22  C   UNL     1      32.620 -22.853 -17.382  0.00  0.00    +0.046 C 
ATOM     23  C   UNL     1      32.906 -22.713 -16.060  0.00  0.00    +0.015 C 
ATOM     24  C   UNL     1      30.683 -22.407 -16.374  0.00  0.00    +0.051 C 
ATOM     25  C   UNL     1      31.680 -22.428 -15.398  0.00  0.00    +0.034 C 
ATOM     26  C   UNL     1      29.348 -22.156 -16.072  0.00  0.00    +0.035 C 
ATOM     27  C   UNL     1      31.317 -22.187 -14.070  0.00  0.00    +0.100 C 
ATOM     28  C   UNL     1      29.095 -21.929 -14.727  0.00  0.00    +0.100 C 
ATOM     29  H   UNL     1      30.831 -22.720 -18.450  0.00  0.00    +0.152 HD
ENDBRANCH  19  22
ENDBRANCH   2  19
TORSDOF 5
ENDMDL
