MODEL 1
REMARK VINA RESULT:     -11.7      0.000      0.000
REMARK  Name = 24856363
REMARK  6 active torsions:
REMARK  status: ('A' for Active; 'I' for Inactive)
REMARK    1  A    between atoms: C_1  and  C_24
REMARK    2  A    between atoms: C_3  and  C_9
REMARK    3  A    between atoms: C_8  and  C_16
REMARK    4  A    between atoms: N_15  and  C_18
REMARK    5  A    between atoms: C_18  and  C_19
REMARK    6  A    between atoms: N_23  and  C_26
REMARK                            x       y       z     vdW  Elec       q    Type
REMARK                         _______ _______ _______ _____ _____    ______ ____
ROOT
ATOM      1  C   UNL     1      34.109 -20.487 -19.849  0.00  0.00    +0.053 C 
ATOM      2  C   UNL     1      33.802 -19.295 -20.504  0.00  0.00    +0.004 C 
ATOM      3  C   UNL     1      34.819 -18.527 -21.069  0.00  0.00    -0.004 C 
ATOM      4  C   UNL     1      35.435 -20.912 -19.760  0.00  0.00    +0.004 C 
ATOM      5  C   UNL     1      36.145 -18.951 -20.979  0.00  0.00    -0.022 C 
ATOM      6  C   UNL     1      36.452 -20.144 -20.324  0.00  0.00    -0.004 C 
ATOM      7  C   UNL     1      37.263 -18.155 -21.572  0.00  0.00    +0.031 C 
ENDROOT
BRANCH   3   9
ATOM      8  C   UNL     1      33.806 -14.914 -23.036  0.00  0.00    +0.053 C 
ATOM      9  C   UNL     1      34.475 -17.294 -21.743  0.00  0.00    -0.000 C 
ATOM     10  C   UNL     1      33.900 -16.100 -23.763  0.00  0.00    +0.005 C 
ATOM     11  C   UNL     1      34.047 -14.917 -21.662  0.00  0.00    +0.005 C 
ATOM     12  C   UNL     1      34.234 -17.290 -23.116  0.00  0.00    +0.000 C 
ATOM     13  C   UNL     1      34.381 -16.107 -21.016  0.00  0.00    +0.000 C 
BRANCH   8  16
ATOM     14  O   UNL     1      33.013 -13.689 -24.871  0.00  0.00    -0.270 OA
ATOM     15  N   UNL     1      33.630 -12.487 -22.986  0.00  0.00    -0.301 N 
ATOM     16  C   UNL     1      33.459 -13.672 -23.710  0.00  0.00    +0.246 C 
ATOM     17  H   UNL     1      33.987 -12.548 -22.070  0.00  0.00    +0.150 HD
BRANCH  15  18
ATOM     18  C   UNL     1      33.307 -11.179 -23.509  0.00  0.00    +0.090 C 
BRANCH  18  19
ATOM     19  C   UNL     1      31.926 -10.771 -23.124  0.00  0.00    +0.020 C 
ATOM     20  C   UNL     1      31.731  -9.544 -22.282  0.00  0.00    +0.002 C 
ATOM     21  C   UNL     1      31.494 -10.904 -21.694  0.00  0.00    +0.002 C 
ENDBRANCH  18  19
ENDBRANCH  15  18
ENDBRANCH   8  16
ENDBRANCH   3   9
BRANCH   1  24
ATOM     22  O   UNL     1      31.932 -21.357 -19.805  0.00  0.00    -0.270 OA
ATOM     23  N   UNL     1      33.353 -21.981 -18.082  0.00  0.00    -0.302 N 
ATOM     24  C   UNL     1      33.048 -21.288 -19.259  0.00  0.00    +0.246 C 
ATOM     25  H   UNL     1      34.257 -21.881 -17.704  0.00  0.00    +0.150 HD
BRANCH  23  26
ATOM     26  C   UNL     1      32.415 -22.836 -17.392  0.00  0.00    +0.072 C 
ATOM     27  C   UNL     1      31.314 -22.258 -16.551  0.00  0.00    +0.021 C 
ATOM     28  C   UNL     1      32.453 -22.986 -15.900  0.00  0.00    +0.021 C 
ENDBRANCH  23  26
ENDBRANCH   1  24
TORSDOF 6
ENDMDL
MODEL 2
REMARK VINA RESULT:     -11.3      3.850      6.144
REMARK  Name = 24856363
REMARK  6 active torsions:
REMARK  status: ('A' for Active; 'I' for Inactive)
REMARK    1  A    between atoms: C_1  and  C_24
REMARK    2  A    between atoms: C_3  and  C_9
REMARK    3  A    between atoms: C_8  and  C_16
REMARK    4  A    between atoms: N_15  and  C_18
REMARK    5  A    between atoms: C_18  and  C_19
REMARK    6  A    between atoms: N_23  and  C_26
REMARK                            x       y       z     vdW  Elec       q    Type
REMARK                         _______ _______ _______ _____ _____    ______ ____
ROOT
ATOM      1  C   UNL     1      35.715 -22.885 -15.388  0.00  0.00    +0.053 C 
ATOM      2  C   UNL     1      35.675 -22.152 -16.575  0.00  0.00    +0.004 C 
ATOM      3  C   UNL     1      34.476 -22.023 -17.275  0.00  0.00    -0.004 C 
ATOM      4  C   UNL     1      34.555 -23.489 -14.902  0.00  0.00    +0.004 C 
ATOM      5  C   UNL     1      33.317 -22.628 -16.789  0.00  0.00    -0.022 C 
ATOM      6  C   UNL     1      33.357 -23.361 -15.603  0.00  0.00    -0.004 C 
ATOM      7  C   UNL     1      32.013 -22.512 -17.512  0.00  0.00    +0.031 C 
ENDROOT
BRANCH   3   9
ATOM      8  C   UNL     1      34.437 -19.782 -20.870  0.00  0.00    +0.053 C 
ATOM      9  C   UNL     1      34.461 -21.259 -18.503  0.00  0.00    -0.000 C 
ATOM     10  C   UNL     1      33.235 -20.157 -20.269  0.00  0.00    +0.005 C 
ATOM     11  C   UNL     1      35.651 -20.147 -20.288  0.00  0.00    +0.005 C 
ATOM     12  C   UNL     1      33.247 -20.894 -19.085  0.00  0.00    +0.000 C 
ATOM     13  C   UNL     1      35.663 -20.885 -19.104  0.00  0.00    +0.000 C 
BRANCH   8  16
ATOM     14  O   UNL     1      34.511 -19.585 -23.205  0.00  0.00    -0.270 OA
ATOM     15  N   UNL     1      34.291 -17.624 -21.986  0.00  0.00    -0.301 N 
ATOM     16  C   UNL     1      34.425 -19.013 -22.104  0.00  0.00    +0.246 C 
ATOM     17  H   UNL     1      34.228 -17.238 -21.083  0.00  0.00    +0.150 HD
BRANCH  15  18
ATOM     18  C   UNL     1      34.239 -16.728 -23.119  0.00  0.00    +0.090 C 
BRANCH  18  19
ATOM     19  C   UNL     1      34.652 -15.349 -22.733  0.00  0.00    +0.020 C 
ATOM     20  C   UNL     1      33.879 -14.623 -21.671  0.00  0.00    +0.002 C 
ATOM     21  C   UNL     1      33.773 -14.191 -23.104  0.00  0.00    +0.002 C 
ENDBRANCH  18  19
ENDBRANCH  15  18
ENDBRANCH   8  16
ENDBRANCH   3   9
BRANCH   1  24
ATOM     22  O   UNL     1      37.232 -22.251 -13.716  0.00  0.00    -0.270 OA
ATOM     23  N   UNL     1      37.823 -24.054 -15.049  0.00  0.00    -0.302 N 
ATOM     24  C   UNL     1      36.966 -23.019 -14.657  0.00  0.00    +0.246 C 
ATOM     25  H   UNL     1      37.549 -24.625 -15.803  0.00  0.00    +0.150 HD
BRANCH  23  26
ATOM     26  C   UNL     1      39.087 -24.331 -14.406  0.00  0.00    +0.072 C 
ATOM     27  C   UNL     1      39.965 -25.454 -14.875  0.00  0.00    +0.021 C 
ATOM     28  C   UNL     1      39.273 -25.546 -13.547  0.00  0.00    +0.021 C 
ENDBRANCH  23  26
ENDBRANCH   1  24
TORSDOF 6
ENDMDL
MODEL 3
REMARK VINA RESULT:     -11.0      3.356      5.664
REMARK  Name = 24856363
REMARK  6 active torsions:
REMARK  status: ('A' for Active; 'I' for Inactive)
REMARK    1  A    between atoms: C_1  and  C_24
REMARK    2  A    between atoms: C_3  and  C_9
REMARK    3  A    between atoms: C_8  and  C_16
REMARK    4  A    between atoms: N_15  and  C_18
REMARK    5  A    between atoms: C_18  and  C_19
REMARK    6  A    between atoms: N_23  and  C_26
REMARK                            x       y       z     vdW  Elec       q    Type
REMARK                         _______ _______ _______ _____ _____    ______ ____
ROOT
ATOM      1  C   UNL     1      31.626 -23.102 -16.082  0.00  0.00    +0.053 C 
ATOM      2  C   UNL     1      31.985 -22.368 -17.213  0.00  0.00    +0.004 C 
ATOM      3  C   UNL     1      33.318 -22.015 -17.421  0.00  0.00    -0.004 C 
ATOM      4  C   UNL     1      32.600 -23.483 -15.159  0.00  0.00    +0.004 C 
ATOM      5  C   UNL     1      34.292 -22.395 -16.498  0.00  0.00    -0.022 C 
ATOM      6  C   UNL     1      33.932 -23.129 -15.367  0.00  0.00    -0.004 C 
ATOM      7  C   UNL     1      35.730 -22.036 -16.686  0.00  0.00    +0.031 C 
ENDROOT
BRANCH   3   9
ATOM      8  C   UNL     1      34.329 -19.786 -20.879  0.00  0.00    +0.053 C 
ATOM      9  C   UNL     1      33.665 -21.254 -18.601  0.00  0.00    -0.000 C 
ATOM     10  C   UNL     1      35.332 -20.392 -20.122  0.00  0.00    +0.005 C 
ATOM     11  C   UNL     1      32.993 -19.914 -20.496  0.00  0.00    +0.005 C 
ATOM     12  C   UNL     1      35.000 -21.126 -18.983  0.00  0.00    +0.000 C 
ATOM     13  C   UNL     1      32.661 -20.648 -19.358  0.00  0.00    +0.000 C 
BRANCH   8  16
ATOM     14  O   UNL     1      35.846 -18.651 -22.259  0.00  0.00    -0.270 OA
ATOM     15  N   UNL     1      33.641 -18.750 -22.971  0.00  0.00    -0.301 N 
ATOM     16  C   UNL     1      34.674 -19.021 -22.066  0.00  0.00    +0.246 C 
ATOM     17  H   UNL     1      32.736 -19.074 -22.755  0.00  0.00    +0.150 HD
BRANCH  15  18
ATOM     18  C   UNL     1      33.831 -18.022 -24.205  0.00  0.00    +0.090 C 
BRANCH  18  19
ATOM     19  C   UNL     1      33.402 -16.602 -24.064  0.00  0.00    +0.020 C 
ATOM     20  C   UNL     1      34.211 -15.522 -24.722  0.00  0.00    +0.002 C 
ATOM     21  C   UNL     1      34.225 -15.667 -23.229  0.00  0.00    +0.002 C 
ENDBRANCH  18  19
ENDBRANCH  15  18
ENDBRANCH   8  16
ENDBRANCH   3   9
BRANCH   1  24
ATOM     22  O   UNL     1      29.945 -24.447 -15.151  0.00  0.00    -0.270 OA
ATOM     23  N   UNL     1      29.262 -22.667 -16.471  0.00  0.00    -0.302 N 
ATOM     24  C   UNL     1      30.235 -23.470 -15.865  0.00  0.00    +0.246 C 
ATOM     25  H   UNL     1      29.563 -21.909 -17.024  0.00  0.00    +0.150 HD
BRANCH  23  26
ATOM     26  C   UNL     1      27.841 -22.889 -16.330  0.00  0.00    +0.072 C 
ATOM     27  C   UNL     1      26.846 -21.912 -16.885  0.00  0.00    +0.021 C 
ATOM     28  C   UNL     1      27.013 -22.053 -15.400  0.00  0.00    +0.021 C 
ENDBRANCH  23  26
ENDBRANCH   1  24
TORSDOF 6
ENDMDL
MODEL 4
REMARK VINA RESULT:     -10.9      1.965      9.379
REMARK  Name = 24856363
REMARK  6 active torsions:
REMARK  status: ('A' for Active; 'I' for Inactive)
REMARK    1  A    between atoms: C_1  and  C_24
REMARK    2  A    between atoms: C_3  and  C_9
REMARK    3  A    between atoms: C_8  and  C_16
REMARK    4  A    between atoms: N_15  and  C_18
REMARK    5  A    between atoms: C_18  and  C_19
REMARK    6  A    between atoms: N_23  and  C_26
REMARK                            x       y       z     vdW  Elec       q    Type
REMARK                         _______ _______ _______ _____ _____    ______ ____
ROOT
ATOM      1  C   UNL     1      33.934 -14.915 -22.855  0.00  0.00    +0.053 C 
ATOM      2  C   UNL     1      34.195 -15.937 -21.942  0.00  0.00    +0.004 C 
ATOM      3  C   UNL     1      34.289 -17.257 -22.382  0.00  0.00    -0.004 C 
ATOM      4  C   UNL     1      33.768 -15.213 -24.208  0.00  0.00    +0.004 C 
ATOM      5  C   UNL     1      34.122 -17.556 -23.734  0.00  0.00    -0.022 C 
ATOM      6  C   UNL     1      33.862 -16.534 -24.647  0.00  0.00    -0.004 C 
ATOM      7  C   UNL     1      34.216 -18.958 -24.242  0.00  0.00    +0.031 C 
ENDROOT
BRANCH   3   9
ATOM      8  C   UNL     1      35.085 -20.310 -19.554  0.00  0.00    +0.053 C 
ATOM      9  C   UNL     1      34.559 -18.299 -21.415  0.00  0.00    -0.000 C 
ATOM     10  C   UNL     1      33.791 -20.133 -20.043  0.00  0.00    +0.005 C 
ATOM     11  C   UNL     1      36.116 -19.480 -19.995  0.00  0.00    +0.005 C 
ATOM     12  C   UNL     1      33.528 -19.129 -20.974  0.00  0.00    +0.000 C 
ATOM     13  C   UNL     1      35.853 -18.476 -20.926  0.00  0.00    +0.000 C 
BRANCH   8  16
ATOM     14  O   UNL     1      34.746 -22.438 -18.630  0.00  0.00    -0.270 OA
ATOM     15  N   UNL     1      36.349 -21.095 -17.627  0.00  0.00    -0.301 N 
ATOM     16  C   UNL     1      35.360 -21.357 -18.583  0.00  0.00    +0.246 C 
ATOM     17  H   UNL     1      36.796 -20.217 -17.649  0.00  0.00    +0.150 HD
BRANCH  15  18
ATOM     18  C   UNL     1      36.751 -22.043 -16.613  0.00  0.00    +0.090 C 
BRANCH  18  19
ATOM     19  C   UNL     1      35.801 -22.037 -15.464  0.00  0.00    +0.020 C 
ATOM     20  C   UNL     1      36.171 -22.763 -14.204  0.00  0.00    +0.002 C 
ATOM     21  C   UNL     1      35.091 -23.305 -15.094  0.00  0.00    +0.002 C 
ENDBRANCH  18  19
ENDBRANCH  15  18
ENDBRANCH   8  16
ENDBRANCH   3   9
BRANCH   1  24
ATOM     22  O   UNL     1      34.170 -13.233 -21.239  0.00  0.00    -0.270 OA
ATOM     23  N   UNL     1      33.376 -12.592 -23.321  0.00  0.00    -0.302 N 
ATOM     24  C   UNL     1      33.836 -13.538 -22.397  0.00  0.00    +0.246 C 
ATOM     25  H   UNL     1      33.127 -12.903 -24.222  0.00  0.00    +0.150 HD
BRANCH  23  26
ATOM     26  C   UNL     1      33.246 -11.184 -23.025  0.00  0.00    +0.072 C 
ATOM     27  C   UNL     1      31.986 -10.631 -22.426  0.00  0.00    +0.021 C 
ATOM     28  C   UNL     1      32.354 -10.297 -23.842  0.00  0.00    +0.021 C 
ENDBRANCH  23  26
ENDBRANCH   1  24
TORSDOF 6
ENDMDL
MODEL 5
REMARK VINA RESULT:     -10.6      2.596      4.680
REMARK  Name = 24856363
REMARK  6 active torsions:
REMARK  status: ('A' for Active; 'I' for Inactive)
REMARK    1  A    between atoms: C_1  and  C_24
REMARK    2  A    between atoms: C_3  and  C_9
REMARK    3  A    between atoms: C_8  and  C_16
REMARK    4  A    between atoms: N_15  and  C_18
REMARK    5  A    between atoms: C_18  and  C_19
REMARK    6  A    between atoms: N_23  and  C_26
REMARK                            x       y       z     vdW  Elec       q    Type
REMARK                         _______ _______ _______ _____ _____    ______ ____
ROOT
ATOM      1  C   UNL     1      34.750 -17.235 -22.042  0.00  0.00    +0.053 C 
ATOM      2  C   UNL     1      34.220 -15.997 -21.680  0.00  0.00    +0.004 C 
ATOM      3  C   UNL     1      33.712 -15.143 -22.657  0.00  0.00    -0.004 C 
ATOM      4  C   UNL     1      34.773 -17.619 -23.383  0.00  0.00    +0.004 C 
ATOM      5  C   UNL     1      33.735 -15.526 -23.998  0.00  0.00    -0.022 C 
ATOM      6  C   UNL     1      34.266 -16.764 -24.361  0.00  0.00    -0.004 C 
ATOM      7  C   UNL     1      33.200 -14.637 -25.075  0.00  0.00    +0.031 C 
ENDROOT
BRANCH   3   9
ATOM      8  C   UNL     1      32.123 -11.395 -21.484  0.00  0.00    +0.053 C 
ATOM      9  C   UNL     1      33.168 -13.864 -22.256  0.00  0.00    -0.000 C 
ATOM     10  C   UNL     1      31.992 -12.501 -20.645  0.00  0.00    +0.005 C 
ATOM     11  C   UNL     1      32.777 -11.524 -22.710  0.00  0.00    +0.005 C 
ATOM     12  C   UNL     1      32.515 -13.735 -21.030  0.00  0.00    +0.000 C 
ATOM     13  C   UNL     1      33.299 -12.758 -23.095  0.00  0.00    +0.000 C 
BRANCH   8  16
ATOM     14  O   UNL     1      31.119  -9.946 -19.938  0.00  0.00    -0.270 OA
ATOM     15  N   UNL     1      31.620  -9.077 -22.028  0.00  0.00    -0.301 N 
ATOM     16  C   UNL     1      31.578 -10.107 -21.082  0.00  0.00    +0.246 C 
ATOM     17  H   UNL     1      31.999  -9.274 -22.916  0.00  0.00    +0.150 HD
BRANCH  15  18
ATOM     18  C   UNL     1      31.140  -7.738 -21.772  0.00  0.00    +0.090 C 
BRANCH  18  19
ATOM     19  C   UNL     1      32.248  -6.846 -21.325  0.00  0.00    +0.020 C 
ATOM     20  C   UNL     1      32.342  -6.463 -19.877  0.00  0.00    +0.002 C 
ATOM     21  C   UNL     1      31.931  -5.443 -20.898  0.00  0.00    +0.002 C 
ENDBRANCH  18  19
ENDBRANCH  15  18
ENDBRANCH   8  16
ENDBRANCH   3   9
BRANCH   1  24
ATOM     22  O   UNL     1      36.390 -17.907 -20.506  0.00  0.00    -0.270 OA
ATOM     23  N   UNL     1      34.478 -19.210 -20.645  0.00  0.00    -0.302 N 
ATOM     24  C   UNL     1      35.280 -18.127 -21.022  0.00  0.00    +0.246 C 
ATOM     25  H   UNL     1      33.610 -19.326 -21.096  0.00  0.00    +0.150 HD
BRANCH  23  26
ATOM     26  C   UNL     1      34.854 -20.169 -19.631  0.00  0.00    +0.072 C 
ATOM     27  C   UNL     1      35.110 -21.606 -19.980  0.00  0.00    +0.021 C 
ATOM     28  C   UNL     1      33.900 -21.232 -19.176  0.00  0.00    +0.021 C 
ENDBRANCH  23  26
ENDBRANCH   1  24
TORSDOF 6
ENDMDL
MODEL 6
REMARK VINA RESULT:     -10.5      4.016     10.642
REMARK  Name = 24856363
REMARK  6 active torsions:
REMARK  status: ('A' for Active; 'I' for Inactive)
REMARK    1  A    between atoms: C_1  and  C_24
REMARK    2  A    between atoms: C_3  and  C_9
REMARK    3  A    between atoms: C_8  and  C_16
REMARK    4  A    between atoms: N_15  and  C_18
REMARK    5  A    between atoms: C_18  and  C_19
REMARK    6  A    between atoms: N_23  and  C_26
REMARK                            x       y       z     vdW  Elec       q    Type
REMARK                         _______ _______ _______ _____ _____    ______ ____
ROOT
ATOM      1  C   UNL     1      34.328 -19.543 -20.604  0.00  0.00    +0.053 C 
ATOM      2  C   UNL     1      35.019 -20.162 -19.562  0.00  0.00    +0.004 C 
ATOM      3  C   UNL     1      34.349 -21.033 -18.702  0.00  0.00    -0.004 C 
ATOM      4  C   UNL     1      32.969 -19.795 -20.786  0.00  0.00    +0.004 C 
ATOM      5  C   UNL     1      32.990 -21.284 -18.885  0.00  0.00    -0.022 C 
ATOM      6  C   UNL     1      32.299 -20.665 -19.927  0.00  0.00    -0.004 C 
ATOM      7  C   UNL     1      32.238 -22.211 -17.984  0.00  0.00    +0.031 C 
ENDROOT
BRANCH   3   9
ATOM      8  C   UNL     1      36.506 -22.875 -15.555  0.00  0.00    +0.053 C 
ATOM      9  C   UNL     1      35.087 -21.662 -17.629  0.00  0.00    -0.000 C 
ATOM     10  C   UNL     1      37.153 -21.992 -16.420  0.00  0.00    +0.005 C 
ATOM     11  C   UNL     1      35.150 -23.151 -15.727  0.00  0.00    +0.005 C 
ATOM     12  C   UNL     1      36.444 -21.385 -17.456  0.00  0.00    +0.000 C 
ATOM     13  C   UNL     1      34.440 -22.545 -16.764  0.00  0.00    +0.000 C 
BRANCH   8  16
ATOM     14  O   UNL     1      38.486 -23.431 -14.429  0.00  0.00    -0.270 OA
ATOM     15  N   UNL     1      36.496 -24.173 -13.496  0.00  0.00    -0.301 N 
ATOM     16  C   UNL     1      37.245 -23.508 -14.474  0.00  0.00    +0.246 C 
ATOM     17  H   UNL     1      35.516 -24.194 -13.594  0.00  0.00    +0.150 HD
BRANCH  15  18
ATOM     18  C   UNL     1      37.083 -24.829 -12.350  0.00  0.00    +0.090 C 
BRANCH  18  19
ATOM     19  C   UNL     1      37.014 -23.962 -11.140  0.00  0.00    +0.020 C 
ATOM     20  C   UNL     1      35.744 -23.919 -10.340  0.00  0.00    +0.002 C 
ATOM     21  C   UNL     1      36.152 -22.734 -11.166  0.00  0.00    +0.002 C 
ENDBRANCH  18  19
ENDBRANCH  15  18
ENDBRANCH   8  16
ENDBRANCH   3   9
BRANCH   1  24
ATOM     22  O   UNL     1      36.269 -18.638 -21.560  0.00  0.00    -0.270 OA
ATOM     23  N   UNL     1      34.238 -17.793 -22.293  0.00  0.00    -0.302 N 
ATOM     24  C   UNL     1      35.026 -18.635 -21.501  0.00  0.00    +0.246 C 
ATOM     25  H   UNL     1      33.259 -17.842 -22.194  0.00  0.00    +0.150 HD
BRANCH  23  26
ATOM     26  C   UNL     1      34.781 -16.854 -23.248  0.00  0.00    +0.072 C 
ATOM     27  C   UNL     1      34.482 -15.387 -23.149  0.00  0.00    +0.021 C 
ATOM     28  C   UNL     1      33.908 -16.196 -24.274  0.00  0.00    +0.021 C 
ENDBRANCH  23  26
ENDBRANCH   1  24
TORSDOF 6
ENDMDL
MODEL 7
REMARK VINA RESULT:     -10.5      3.421      6.825
REMARK  Name = 24856363
REMARK  6 active torsions:
REMARK  status: ('A' for Active; 'I' for Inactive)
REMARK    1  A    between atoms: C_1  and  C_24
REMARK    2  A    between atoms: C_3  and  C_9
REMARK    3  A    between atoms: C_8  and  C_16
REMARK    4  A    between atoms: N_15  and  C_18
REMARK    5  A    between atoms: C_18  and  C_19
REMARK    6  A    between atoms: N_23  and  C_26
REMARK                            x       y       z     vdW  Elec       q    Type
REMARK                         _______ _______ _______ _____ _____    ______ ____
ROOT
ATOM      1  C   UNL     1      33.860 -14.868 -22.476  0.00  0.00    +0.053 C 
ATOM      2  C   UNL     1      33.435 -13.567 -22.206  0.00  0.00    +0.004 C 
ATOM      3  C   UNL     1      32.956 -12.762 -23.239  0.00  0.00    -0.004 C 
ATOM      4  C   UNL     1      33.806 -15.364 -23.778  0.00  0.00    +0.004 C 
ATOM      5  C   UNL     1      32.903 -13.258 -24.542  0.00  0.00    -0.022 C 
ATOM      6  C   UNL     1      33.328 -14.558 -24.811  0.00  0.00    -0.004 C 
ATOM      7  C   UNL     1      32.396 -12.425 -25.675  0.00  0.00    +0.031 C 
ENDROOT
BRANCH   3   9
ATOM      8  C   UNL     1      31.677  -8.823 -22.347  0.00  0.00    +0.053 C 
ATOM      9  C   UNL     1      32.521 -11.416 -22.935  0.00  0.00    -0.000 C 
ATOM     10  C   UNL     1      32.758  -9.027 -23.205  0.00  0.00    +0.005 C 
ATOM     11  C   UNL     1      31.019  -9.915 -21.782  0.00  0.00    +0.005 C 
ATOM     12  C   UNL     1      33.179 -10.324 -23.499  0.00  0.00    +0.000 C 
ATOM     13  C   UNL     1      31.441 -11.212 -22.076  0.00  0.00    +0.000 C 
BRANCH   8  16
ATOM     14  O   UNL     1      31.235  -7.060 -20.866  0.00  0.00    -0.270 OA
ATOM     15  N   UNL     1      30.847  -6.669 -23.119  0.00  0.00    -0.301 N 
ATOM     16  C   UNL     1      31.238  -7.471 -22.039  0.00  0.00    +0.246 C 
ATOM     17  H   UNL     1      30.875  -7.059 -24.023  0.00  0.00    +0.150 HD
BRANCH  15  18
ATOM     18  C   UNL     1      30.409  -5.299 -22.978  0.00  0.00    +0.090 C 
BRANCH  18  19
ATOM     19  C   UNL     1      31.566  -4.383 -22.763  0.00  0.00    +0.020 C 
ATOM     20  C   UNL     1      31.538  -3.012 -23.372  0.00  0.00    +0.002 C 
ATOM     21  C   UNL     1      32.467  -4.057 -23.918  0.00  0.00    +0.002 C 
ENDBRANCH  18  19
ENDBRANCH  15  18
ENDBRANCH   8  16
ENDBRANCH   3   9
BRANCH   1  24
ATOM     22  O   UNL     1      34.223 -15.360 -20.211  0.00  0.00    -0.270 OA
ATOM     23  N   UNL     1      34.969 -16.914 -21.762  0.00  0.00    -0.302 N 
ATOM     24  C   UNL     1      34.360 -15.708 -21.398  0.00  0.00    +0.246 C 
ATOM     25  H   UNL     1      35.044 -17.127 -22.721  0.00  0.00    +0.150 HD
BRANCH  23  26
ATOM     26  C   UNL     1      35.492 -17.865 -20.808  0.00  0.00    +0.072 C 
ATOM     27  C   UNL     1      36.533 -18.870 -21.208  0.00  0.00    +0.021 C 
ATOM     28  C   UNL     1      35.139 -19.320 -20.888  0.00  0.00    +0.021 C 
ENDBRANCH  23  26
ENDBRANCH   1  24
TORSDOF 6
ENDMDL
MODEL 8
REMARK VINA RESULT:     -10.4      4.338     10.784
REMARK  Name = 24856363
REMARK  6 active torsions:
REMARK  status: ('A' for Active; 'I' for Inactive)
REMARK    1  A    between atoms: C_1  and  C_24
REMARK    2  A    between atoms: C_3  and  C_9
REMARK    3  A    between atoms: C_8  and  C_16
REMARK    4  A    between atoms: N_15  and  C_18
REMARK    5  A    between atoms: C_18  and  C_19
REMARK    6  A    between atoms: N_23  and  C_26
REMARK                            x       y       z     vdW  Elec       q    Type
REMARK                         _______ _______ _______ _____ _____    ______ ____
ROOT
ATOM      1  C   UNL     1      34.284 -19.547 -20.639  0.00  0.00    +0.053 C 
ATOM      2  C   UNL     1      34.956 -20.138 -19.569  0.00  0.00    +0.004 C 
ATOM      3  C   UNL     1      34.273 -20.989 -18.701  0.00  0.00    -0.004 C 
ATOM      4  C   UNL     1      32.929 -19.807 -20.841  0.00  0.00    +0.004 C 
ATOM      5  C   UNL     1      32.917 -21.248 -18.902  0.00  0.00    -0.022 C 
ATOM      6  C   UNL     1      32.246 -20.657 -19.973  0.00  0.00    -0.004 C 
ATOM      7  C   UNL     1      32.151 -22.154 -17.993  0.00  0.00    +0.031 C 
ENDROOT
BRANCH   3   9
ATOM      8  C   UNL     1      36.383 -22.746 -15.475  0.00  0.00    +0.053 C 
ATOM      9  C   UNL     1      34.992 -21.588 -17.598  0.00  0.00    -0.000 C 
ATOM     10  C   UNL     1      35.028 -23.024 -15.656  0.00  0.00    +0.005 C 
ATOM     11  C   UNL     1      37.042 -21.888 -16.356  0.00  0.00    +0.005 C 
ATOM     12  C   UNL     1      34.333 -22.446 -16.717  0.00  0.00    +0.000 C 
ATOM     13  C   UNL     1      36.347 -21.310 -17.417  0.00  0.00    +0.000 C 
BRANCH   8  16
ATOM     14  O   UNL     1      37.483 -22.654 -13.406  0.00  0.00    -0.270 OA
ATOM     15  N   UNL     1      37.336 -24.728 -14.433  0.00  0.00    -0.301 N 
ATOM     16  C   UNL     1      37.108 -23.348 -14.367  0.00  0.00    +0.246 C 
ATOM     17  H   UNL     1      37.011 -25.217 -15.224  0.00  0.00    +0.150 HD
BRANCH  15  18
ATOM     18  C   UNL     1      38.020 -25.474 -13.402  0.00  0.00    +0.090 C 
BRANCH  18  19
ATOM     19  C   UNL     1      39.429 -25.764 -13.792  0.00  0.00    +0.020 C 
ATOM     20  C   UNL     1      40.399 -24.627 -13.936  0.00  0.00    +0.002 C 
ATOM     21  C   UNL     1      39.911 -25.358 -15.153  0.00  0.00    +0.002 C 
ENDBRANCH  18  19
ENDBRANCH  15  18
ENDBRANCH   8  16
ENDBRANCH   3   9
BRANCH   1  24
ATOM     22  O   UNL     1      36.238 -18.697 -21.619  0.00  0.00    -0.270 OA
ATOM     23  N   UNL     1      34.223 -17.796 -22.330  0.00  0.00    -0.302 N 
ATOM     24  C   UNL     1      34.997 -18.659 -21.545  0.00  0.00    +0.246 C 
ATOM     25  H   UNL     1      33.245 -17.819 -22.220  0.00  0.00    +0.150 HD
BRANCH  23  26
ATOM     26  C   UNL     1      34.782 -16.875 -23.292  0.00  0.00    +0.072 C 
ATOM     27  C   UNL     1      34.434 -15.415 -23.259  0.00  0.00    +0.021 C 
ATOM     28  C   UNL     1      33.937 -16.280 -24.380  0.00  0.00    +0.021 C 
ENDBRANCH  23  26
ENDBRANCH   1  24
TORSDOF 6
ENDMDL
MODEL 9
REMARK VINA RESULT:     -10.2      3.470     11.082
REMARK  Name = 24856363
REMARK  6 active torsions:
REMARK  status: ('A' for Active; 'I' for Inactive)
REMARK    1  A    between atoms: C_1  and  C_24
REMARK    2  A    between atoms: C_3  and  C_9
REMARK    3  A    between atoms: C_8  and  C_16
REMARK    4  A    between atoms: N_15  and  C_18
REMARK    5  A    between atoms: C_18  and  C_19
REMARK    6  A    between atoms: N_23  and  C_26
REMARK                            x       y       z     vdW  Elec       q    Type
REMARK                         _______ _______ _______ _____ _____    ______ ____
ROOT
ATOM      1  C   UNL     1      32.611  -8.118 -22.830  0.00  0.00    +0.053 C 
ATOM      2  C   UNL     1      32.969  -9.414 -23.201  0.00  0.00    +0.004 C 
ATOM      3  C   UNL     1      32.399 -10.508 -22.549  0.00  0.00    -0.004 C 
ATOM      4  C   UNL     1      31.684  -7.915 -21.808  0.00  0.00    +0.004 C 
ATOM      5  C   UNL     1      31.473 -10.305 -21.527  0.00  0.00    -0.022 C 
ATOM      6  C   UNL     1      31.115  -9.009 -21.156  0.00  0.00    -0.004 C 
ATOM      7  C   UNL     1      30.842 -11.452 -20.805  0.00  0.00    +0.031 C 
ENDROOT
BRANCH   3   9
ATOM      8  C   UNL     1      33.540 -14.415 -23.725  0.00  0.00    +0.053 C 
ATOM      9  C   UNL     1      32.787 -11.842 -22.952  0.00  0.00    -0.000 C 
ATOM     10  C   UNL     1      32.855 -13.590 -24.618  0.00  0.00    +0.005 C 
ATOM     11  C   UNL     1      33.847 -13.953 -22.445  0.00  0.00    +0.005 C 
ATOM     12  C   UNL     1      32.479 -12.304 -24.231  0.00  0.00    +0.000 C 
ATOM     13  C   UNL     1      33.472 -12.667 -22.059  0.00  0.00    +0.000 C 
BRANCH   8  16
ATOM     14  O   UNL     1      34.180 -16.011 -25.319  0.00  0.00    -0.270 OA
ATOM     15  N   UNL     1      34.034 -16.719 -23.116  0.00  0.00    -0.301 N 
ATOM     16  C   UNL     1      33.932 -15.757 -24.127  0.00  0.00    +0.246 C 
ATOM     17  H   UNL     1      33.824 -16.448 -22.192  0.00  0.00    +0.150 HD
BRANCH  15  18
ATOM     18  C   UNL     1      34.435 -18.087 -23.353  0.00  0.00    +0.090 C 
BRANCH  18  19
ATOM     19  C   UNL     1      35.460 -18.527 -22.365  0.00  0.00    +0.020 C 
ATOM     20  C   UNL     1      35.014 -19.134 -21.066  0.00  0.00    +0.002 C 
ATOM     21  C   UNL     1      35.620 -17.761 -21.084  0.00  0.00    +0.002 C 
ENDBRANCH  18  19
ENDBRANCH  15  18
ENDBRANCH   8  16
ENDBRANCH   3   9
BRANCH   1  24
ATOM     22  O   UNL     1      34.215  -6.420 -23.043  0.00  0.00    -0.270 OA
ATOM     23  N   UNL     1      32.604  -6.564 -24.704  0.00  0.00    -0.302 N 
ATOM     24  C   UNL     1      33.205  -6.977 -23.510  0.00  0.00    +0.246 C 
ATOM     25  H   UNL     1      31.806  -7.051 -25.016  0.00  0.00    +0.150 HD
BRANCH  23  26
ATOM     26  C   UNL     1      33.090  -5.465 -25.506  0.00  0.00    +0.072 C 
ATOM     27  C   UNL     1      33.051  -5.522 -27.005  0.00  0.00    +0.021 C 
ATOM     28  C   UNL     1      34.366  -5.576 -26.285  0.00  0.00    +0.021 C 
ENDBRANCH  23  26
ENDBRANCH   1  24
TORSDOF 6
ENDMDL
