MODEL 1
REMARK VINA RESULT:     -10.6      0.000      0.000
REMARK  Name = 11552706
REMARK  6 active torsions:
REMARK  status: ('A' for Active; 'I' for Inactive)
REMARK    1  A    between atoms: C_2  and  C_26
REMARK    2  A    between atoms: C_5  and  C_10
REMARK    3  A    between atoms: C_11  and  C_17
REMARK    4  A    between atoms: N_16  and  C_19
REMARK    5  A    between atoms: C_19  and  C_20
REMARK    6  A    between atoms: N_25  and  C_28
REMARK                            x       y       z     vdW  Elec       q    Type
REMARK                         _______ _______ _______ _____ _____    ______ ____
ROOT
ATOM      1  F   UNL     1      34.286 -17.676 -25.336  0.00  0.00    -0.205 F 
ATOM      2  C   UNL     1      34.076 -15.848 -22.199  0.00  0.00    +0.056 C 
ATOM      3  C   UNL     1      34.092 -16.900 -21.283  0.00  0.00    +0.006 C 
ATOM      4  C   UNL     1      34.140 -16.114 -23.567  0.00  0.00    +0.034 C 
ATOM      5  C   UNL     1      34.175 -18.221 -21.730  0.00  0.00    +0.016 C 
ATOM      6  C   UNL     1      34.240 -18.482 -23.102  0.00  0.00    +0.007 C 
ATOM      7  C   UNL     1      34.223 -17.431 -24.018  0.00  0.00    +0.136 C 
ATOM      8  C   UNL     1      34.330 -19.884 -23.619  0.00  0.00    +0.033 C 
ENDROOT
BRANCH   5  10
ATOM      9  N   UNL     1      32.975 -19.756 -20.401  0.00  0.00    -0.244 NA
ATOM     10  C   UNL     1      34.192 -19.292 -20.762  0.00  0.00    +0.081 C 
ATOM     11  C   UNL     1      34.101 -21.293 -18.958  0.00  0.00    +0.072 C 
ATOM     12  C   UNL     1      35.389 -19.781 -20.263  0.00  0.00    +0.019 C 
ATOM     13  C   UNL     1      35.332 -20.813 -19.333  0.00  0.00    +0.008 C 
ATOM     14  C   UNL     1      32.960 -20.759 -19.494  0.00  0.00    +0.103 C 
BRANCH  11  17
ATOM     15  O   UNL     1      33.385 -23.412 -18.256  0.00  0.00    -0.270 OA
ATOM     16  N   UNL     1      34.665 -22.187 -16.760  0.00  0.00    -0.301 N 
ATOM     17  C   UNL     1      34.006 -22.393 -17.966  0.00  0.00    +0.247 C 
ATOM     18  H   UNL     1      35.137 -21.335 -16.619  0.00  0.00    +0.150 HD
BRANCH  16  19
ATOM     19  C   UNL     1      34.686 -23.169 -15.709  0.00  0.00    +0.090 C 
BRANCH  19  20
ATOM     20  C   UNL     1      36.018 -23.235 -14.929  0.00  0.00    +0.018 C 
ATOM     21  C   UNL     1      36.488 -24.702 -14.895  0.00  0.00    +0.002 C 
ATOM     22  C   UNL     1      35.836 -22.747 -13.482  0.00  0.00    +0.002 C 
ATOM     23  C   UNL     1      37.098 -22.387 -15.622  0.00  0.00    +0.002 C 
ENDBRANCH  19  20
ENDBRANCH  16  19
ENDBRANCH  11  17
ENDBRANCH   5  10
BRANCH   2  26
ATOM     24  O   UNL     1      34.246 -14.194 -20.546  0.00  0.00    -0.270 OA
ATOM     25  N   UNL     1      33.628 -13.503 -22.672  0.00  0.00    -0.302 N 
ATOM     26  C   UNL     1      33.988 -14.475 -21.730  0.00  0.00    +0.246 C 
ATOM     27  H   UNL     1      33.437 -13.796 -23.592  0.00  0.00    +0.150 HD
BRANCH  25  28
ATOM     28  C   UNL     1      33.522 -12.095 -22.366  0.00  0.00    +0.072 C 
ATOM     29  C   UNL     1      32.947 -11.147 -23.361  0.00  0.00    +0.021 C 
ATOM     30  C   UNL     1      32.192 -11.478 -22.107  0.00  0.00    +0.021 C 
ENDBRANCH  25  28
ENDBRANCH   2  26
TORSDOF 6
ENDMDL
MODEL 2
REMARK VINA RESULT:     -10.6      4.203     12.228
REMARK  Name = 11552706
REMARK  6 active torsions:
REMARK  status: ('A' for Active; 'I' for Inactive)
REMARK    1  A    between atoms: C_2  and  C_26
REMARK    2  A    between atoms: C_5  and  C_10
REMARK    3  A    between atoms: C_11  and  C_17
REMARK    4  A    between atoms: N_16  and  C_19
REMARK    5  A    between atoms: C_19  and  C_20
REMARK    6  A    between atoms: N_25  and  C_28
REMARK                            x       y       z     vdW  Elec       q    Type
REMARK                         _______ _______ _______ _____ _____    ______ ____
ROOT
ATOM      1  F   UNL     1      33.329 -14.912 -25.907  0.00  0.00    -0.205 F 
ATOM      2  C   UNL     1      33.800 -14.839 -22.302  0.00  0.00    +0.056 C 
ATOM      3  C   UNL     1      33.335 -13.558 -22.004  0.00  0.00    +0.006 C 
ATOM      4  C   UNL     1      33.798 -15.292 -23.621  0.00  0.00    +0.034 C 
ATOM      5  C   UNL     1      32.865 -12.725 -23.024  0.00  0.00    +0.016 C 
ATOM      6  C   UNL     1      32.864 -13.185 -24.344  0.00  0.00    +0.007 C 
ATOM      7  C   UNL     1      33.328 -14.465 -24.642  0.00  0.00    +0.136 C 
ATOM      8  C   UNL     1      32.367 -12.324 -25.462  0.00  0.00    +0.033 C 
ENDROOT
BRANCH   5  10
ATOM      9  N   UNL     1      33.058 -10.389 -23.277  0.00  0.00    -0.244 NA
ATOM     10  C   UNL     1      32.387 -11.405 -22.690  0.00  0.00    +0.081 C 
ATOM     11  C   UNL     1      31.583  -8.891 -22.139  0.00  0.00    +0.072 C 
ATOM     12  C   UNL     1      31.317 -11.231 -21.827  0.00  0.00    +0.019 C 
ATOM     13  C   UNL     1      30.909  -9.932 -21.549  0.00  0.00    +0.008 C 
ATOM     14  C   UNL     1      32.633  -9.139 -22.982  0.00  0.00    +0.103 C 
BRANCH  11  17
ATOM     15  O   UNL     1      31.151  -7.092 -20.700  0.00  0.00    -0.270 OA
ATOM     16  N   UNL     1      30.860  -6.715 -22.970  0.00  0.00    -0.301 N 
ATOM     17  C   UNL     1      31.173  -7.491 -21.861  0.00  0.00    +0.247 C 
ATOM     18  H   UNL     1      30.907  -7.125 -23.863  0.00  0.00    +0.150 HD
BRANCH  16  19
ATOM     19  C   UNL     1      30.470  -5.334 -22.865  0.00  0.00    +0.090 C 
BRANCH  19  20
ATOM     20  C   UNL     1      31.478  -4.341 -23.485  0.00  0.00    +0.018 C 
ATOM     21  C   UNL     1      31.271  -2.965 -22.825  0.00  0.00    +0.002 C 
ATOM     22  C   UNL     1      31.250  -4.196 -25.000  0.00  0.00    +0.002 C 
ATOM     23  C   UNL     1      32.923  -4.800 -23.228  0.00  0.00    +0.002 C 
ENDBRANCH  19  20
ENDBRANCH  16  19
ENDBRANCH  11  17
ENDBRANCH   5  10
BRANCH   2  26
ATOM     24  O   UNL     1      34.166 -15.368 -20.047  0.00  0.00    -0.270 OA
ATOM     25  N   UNL     1      34.877 -16.913 -21.623  0.00  0.00    -0.302 N 
ATOM     26  C   UNL     1      34.291 -15.701 -21.239  0.00  0.00    +0.246 C 
ATOM     27  H   UNL     1      34.943 -17.113 -22.584  0.00  0.00    +0.150 HD
BRANCH  25  28
ATOM     28  C   UNL     1      35.389 -17.885 -20.684  0.00  0.00    +0.072 C 
ATOM     29  C   UNL     1      35.170 -19.341 -20.912  0.00  0.00    +0.021 C 
ATOM     30  C   UNL     1      36.542 -18.752 -21.052  0.00  0.00    +0.021 C 
ENDBRANCH  25  28
ENDBRANCH   2  26
TORSDOF 6
ENDMDL
MODEL 3
REMARK VINA RESULT:     -10.4      3.995     10.440
REMARK  Name = 11552706
REMARK  6 active torsions:
REMARK  status: ('A' for Active; 'I' for Inactive)
REMARK    1  A    between atoms: C_2  and  C_26
REMARK    2  A    between atoms: C_5  and  C_10
REMARK    3  A    between atoms: C_11  and  C_17
REMARK    4  A    between atoms: N_16  and  C_19
REMARK    5  A    between atoms: C_19  and  C_20
REMARK    6  A    between atoms: N_25  and  C_28
REMARK                            x       y       z     vdW  Elec       q    Type
REMARK                         _______ _______ _______ _____ _____    ______ ____
ROOT
ATOM      1  F   UNL     1      29.856 -23.955 -13.845  0.00  0.00    -0.205 F 
ATOM      2  C   UNL     1      33.476 -23.919 -13.502  0.00  0.00    +0.056 C 
ATOM      3  C   UNL     1      33.846 -23.322 -14.708  0.00  0.00    +0.006 C 
ATOM      4  C   UNL     1      32.127 -24.132 -13.215  0.00  0.00    +0.034 C 
ATOM      5  C   UNL     1      32.869 -22.935 -15.630  0.00  0.00    +0.016 C 
ATOM      6  C   UNL     1      31.519 -23.150 -15.336  0.00  0.00    +0.007 C 
ATOM      7  C   UNL     1      31.149 -23.747 -14.131  0.00  0.00    +0.136 C 
ATOM      8  C   UNL     1      30.445 -22.749 -16.298  0.00  0.00    +0.033 C 
ENDROOT
BRANCH   5  10
ATOM      9  N   UNL     1      34.613 -22.189 -17.031  0.00  0.00    -0.244 NA
ATOM     10  C   UNL     1      33.277 -22.317 -16.869  0.00  0.00    +0.081 C 
ATOM     11  C   UNL     1      34.158 -21.176 -19.147  0.00  0.00    +0.072 C 
ATOM     12  C   UNL     1      32.339 -21.898 -17.799  0.00  0.00    +0.019 C 
ATOM     13  C   UNL     1      32.802 -21.311 -18.971  0.00  0.00    +0.008 C 
ATOM     14  C   UNL     1      35.025 -21.613 -18.183  0.00  0.00    +0.103 C 
BRANCH  11  17
ATOM     15  O   UNL     1      35.807 -20.856 -20.782  0.00  0.00    -0.270 OA
ATOM     16  N   UNL     1      33.833 -19.664 -21.033  0.00  0.00    -0.301 N 
ATOM     17  C   UNL     1      34.684 -20.552 -20.387  0.00  0.00    +0.247 C 
ATOM     18  H   UNL     1      32.950 -19.483 -20.638  0.00  0.00    +0.150 HD
BRANCH  16  19
ATOM     19  C   UNL     1      34.190 -18.998 -22.258  0.00  0.00    +0.090 C 
BRANCH  19  20
ATOM     20  C   UNL     1      35.002 -17.698 -22.060  0.00  0.00    +0.018 C 
ATOM     21  C   UNL     1      34.696 -16.752 -23.236  0.00  0.00    +0.002 C 
ATOM     22  C   UNL     1      36.513 -17.987 -22.045  0.00  0.00    +0.002 C 
ATOM     23  C   UNL     1      34.602 -17.000 -20.749  0.00  0.00    +0.002 C 
ENDBRANCH  19  20
ENDBRANCH  16  19
ENDBRANCH  11  17
ENDBRANCH   5  10
BRANCH   2  26
ATOM     24  O   UNL     1      34.250 -24.329 -11.327  0.00  0.00    -0.270 OA
ATOM     25  N   UNL     1      35.733 -24.717 -13.067  0.00  0.00    -0.302 N 
ATOM     26  C   UNL     1      34.495 -24.322 -12.547  0.00  0.00    +0.246 C 
ATOM     27  H   UNL     1      35.858 -24.686 -14.043  0.00  0.00    +0.150 HD
BRANCH  25  28
ATOM     28  C   UNL     1      36.836 -25.166 -12.249  0.00  0.00    +0.072 C 
ATOM     29  C   UNL     1      38.191 -25.347 -12.841  0.00  0.00    +0.021 C 
ATOM     30  C   UNL     1      37.931 -24.227 -11.878  0.00  0.00    +0.021 C 
ENDBRANCH  25  28
ENDBRANCH   2  26
TORSDOF 6
ENDMDL
MODEL 4
REMARK VINA RESULT:     -10.1      3.028     10.508
REMARK  Name = 11552706
REMARK  6 active torsions:
REMARK  status: ('A' for Active; 'I' for Inactive)
REMARK    1  A    between atoms: C_2  and  C_26
REMARK    2  A    between atoms: C_5  and  C_10
REMARK    3  A    between atoms: C_11  and  C_17
REMARK    4  A    between atoms: N_16  and  C_19
REMARK    5  A    between atoms: C_19  and  C_20
REMARK    6  A    between atoms: N_25  and  C_28
REMARK                            x       y       z     vdW  Elec       q    Type
REMARK                         _______ _______ _______ _____ _____    ______ ____
ROOT
ATOM      1  F   UNL     1      34.190 -16.962 -25.502  0.00  0.00    -0.205 F 
ATOM      2  C   UNL     1      34.695 -17.156 -21.906  0.00  0.00    +0.056 C 
ATOM      3  C   UNL     1      34.154 -15.935 -21.500  0.00  0.00    +0.006 C 
ATOM      4  C   UNL     1      34.706 -17.499 -23.258  0.00  0.00    +0.034 C 
ATOM      5  C   UNL     1      33.622 -15.053 -22.446  0.00  0.00    +0.016 C 
ATOM      6  C   UNL     1      33.635 -15.402 -23.799  0.00  0.00    +0.007 C 
ATOM      7  C   UNL     1      34.175 -16.622 -24.204  0.00  0.00    +0.136 C 
ATOM      8  C   UNL     1      33.074 -14.485 -24.840  0.00  0.00    +0.033 C 
ENDROOT
BRANCH   5  10
ATOM      9  N   UNL     1      33.234 -12.764 -22.857  0.00  0.00    -0.244 NA
ATOM     10  C   UNL     1      33.066 -13.797 -22.001  0.00  0.00    +0.081 C 
ATOM     11  C   UNL     1      32.070 -11.399 -21.277  0.00  0.00    +0.072 C 
ATOM     12  C   UNL     1      32.417 -13.697 -20.781  0.00  0.00    +0.019 C 
ATOM     13  C   UNL     1      31.906 -12.456 -20.416  0.00  0.00    +0.008 C 
ATOM     14  C   UNL     1      32.724 -11.573 -22.467  0.00  0.00    +0.103 C 
BRANCH  11  17
ATOM     15  O   UNL     1      31.176  -9.851 -19.760  0.00  0.00    -0.270 OA
ATOM     16  N   UNL     1      31.510  -9.118 -21.935  0.00  0.00    -0.301 N 
ATOM     17  C   UNL     1      31.537 -10.061 -20.915  0.00  0.00    +0.247 C 
ATOM     18  H   UNL     1      31.821  -9.382 -22.831  0.00  0.00    +0.150 HD
BRANCH  16  19
ATOM     19  C   UNL     1      31.045  -7.771 -21.735  0.00  0.00    +0.090 C 
BRANCH  19  20
ATOM     20  C   UNL     1      32.173  -6.725 -21.595  0.00  0.00    +0.018 C 
ATOM     21  C   UNL     1      33.345  -7.153 -22.499  0.00  0.00    +0.002 C 
ATOM     22  C   UNL     1      32.678  -6.647 -20.144  0.00  0.00    +0.002 C 
ATOM     23  C   UNL     1      31.687  -5.336 -22.042  0.00  0.00    +0.002 C 
ENDBRANCH  19  20
ENDBRANCH  16  19
ENDBRANCH  11  17
ENDBRANCH   5  10
BRANCH   2  26
ATOM     24  O   UNL     1      36.402 -17.902 -20.482  0.00  0.00    -0.270 OA
ATOM     25  N   UNL     1      34.422 -19.110 -20.482  0.00  0.00    -0.302 N 
ATOM     26  C   UNL     1      35.249 -18.069 -20.920  0.00  0.00    +0.246 C 
ATOM     27  H   UNL     1      33.521 -19.182 -20.871  0.00  0.00    +0.150 HD
BRANCH  25  28
ATOM     28  C   UNL     1      34.820 -20.082 -19.489  0.00  0.00    +0.072 C 
ATOM     29  C   UNL     1      34.147 -21.409 -19.421  0.00  0.00    +0.021 C 
ATOM     30  C   UNL     1      35.567 -21.306 -19.892  0.00  0.00    +0.021 C 
ENDBRANCH  25  28
ENDBRANCH   2  26
TORSDOF 6
ENDMDL
MODEL 5
REMARK VINA RESULT:     -10.0      5.129      8.781
REMARK  Name = 11552706
REMARK  6 active torsions:
REMARK  status: ('A' for Active; 'I' for Inactive)
REMARK    1  A    between atoms: C_2  and  C_26
REMARK    2  A    between atoms: C_5  and  C_10
REMARK    3  A    between atoms: C_11  and  C_17
REMARK    4  A    between atoms: N_16  and  C_19
REMARK    5  A    between atoms: C_19  and  C_20
REMARK    6  A    between atoms: N_25  and  C_28
REMARK                            x       y       z     vdW  Elec       q    Type
REMARK                         _______ _______ _______ _____ _____    ______ ____
ROOT
ATOM      1  F   UNL     1      30.670  -8.612 -19.599  0.00  0.00    -0.205 F 
ATOM      2  C   UNL     1      31.791  -7.903 -22.985  0.00  0.00    +0.056 C 
ATOM      3  C   UNL     1      32.208  -9.171 -23.393  0.00  0.00    +0.006 C 
ATOM      4  C   UNL     1      31.273  -7.718 -21.703  0.00  0.00    +0.034 C 
ATOM      5  C   UNL     1      32.107 -10.258 -22.520  0.00  0.00    +0.016 C 
ATOM      6  C   UNL     1      31.587 -10.068 -21.237  0.00  0.00    +0.007 C 
ATOM      7  C   UNL     1      31.170  -8.801 -20.829  0.00  0.00    +0.136 C 
ATOM      8  C   UNL     1      31.462 -11.207 -20.276  0.00  0.00    +0.033 C 
ENDROOT
BRANCH   5  10
ATOM      9  N   UNL     1      33.206 -12.289 -22.040  0.00  0.00    -0.244 NA
ATOM     10  C   UNL     1      32.543 -11.560 -22.966  0.00  0.00    +0.081 C 
ATOM     11  C   UNL     1      33.406 -14.011 -23.686  0.00  0.00    +0.072 C 
ATOM     12  C   UNL     1      32.283 -11.996 -24.256  0.00  0.00    +0.019 C 
ATOM     13  C   UNL     1      32.732 -13.261 -24.618  0.00  0.00    +0.008 C 
ATOM     14  C   UNL     1      33.627 -13.514 -22.430  0.00  0.00    +0.103 C 
BRANCH  11  17
ATOM     15  O   UNL     1      34.095 -15.641 -25.223  0.00  0.00    -0.270 OA
ATOM     16  N   UNL     1      34.130 -16.231 -22.980  0.00  0.00    -0.301 N 
ATOM     17  C   UNL     1      33.900 -15.365 -24.042  0.00  0.00    +0.247 C 
ATOM     18  H   UNL     1      33.942 -15.918 -22.066  0.00  0.00    +0.150 HD
BRANCH  16  19
ATOM     19  C   UNL     1      34.631 -17.567 -23.162  0.00  0.00    +0.090 C 
BRANCH  19  20
ATOM     20  C   UNL     1      35.237 -18.196 -21.888  0.00  0.00    +0.018 C 
ATOM     21  C   UNL     1      34.978 -17.242 -20.707  0.00  0.00    +0.002 C 
ATOM     22  C   UNL     1      36.755 -18.392 -22.036  0.00  0.00    +0.002 C 
ATOM     23  C   UNL     1      34.575 -19.551 -21.582  0.00  0.00    +0.002 C 
ENDBRANCH  19  20
ENDBRANCH  16  19
ENDBRANCH  11  17
ENDBRANCH   5  10
BRANCH   2  26
ATOM     24  O   UNL     1      30.899  -6.090 -24.174  0.00  0.00    -0.270 OA
ATOM     25  N   UNL     1      33.171  -6.490 -24.407  0.00  0.00    -0.302 N 
ATOM     26  C   UNL     1      31.899  -6.774 -23.894  0.00  0.00    +0.246 C 
ATOM     27  H   UNL     1      33.919  -7.073 -24.143  0.00  0.00    +0.150 HD
BRANCH  25  28
ATOM     28  C   UNL     1      33.444  -5.388 -25.301  0.00  0.00    +0.072 C 
ATOM     29  C   UNL     1      34.578  -5.461 -26.264  0.00  0.00    +0.021 C 
ATOM     30  C   UNL     1      33.163  -5.513 -26.758  0.00  0.00    +0.021 C 
ENDBRANCH  25  28
ENDBRANCH   2  26
TORSDOF 6
ENDMDL
MODEL 6
REMARK VINA RESULT:      -9.6      5.573      9.439
REMARK  Name = 11552706
REMARK  6 active torsions:
REMARK  status: ('A' for Active; 'I' for Inactive)
REMARK    1  A    between atoms: C_2  and  C_26
REMARK    2  A    between atoms: C_5  and  C_10
REMARK    3  A    between atoms: C_11  and  C_17
REMARK    4  A    between atoms: N_16  and  C_19
REMARK    5  A    between atoms: C_19  and  C_20
REMARK    6  A    between atoms: N_25  and  C_28
REMARK                            x       y       z     vdW  Elec       q    Type
REMARK                         _______ _______ _______ _____ _____    ______ ____
ROOT
ATOM      1  F   UNL     1      30.789  -7.668 -19.241  0.00  0.00    -0.205 F 
ATOM      2  C   UNL     1      31.819  -7.209 -22.699  0.00  0.00    +0.056 C 
ATOM      3  C   UNL     1      32.121  -8.523 -23.058  0.00  0.00    +0.006 C 
ATOM      4  C   UNL     1      31.370  -6.924 -21.409  0.00  0.00    +0.034 C 
ATOM      5  C   UNL     1      31.975  -9.557 -22.128  0.00  0.00    +0.016 C 
ATOM      6  C   UNL     1      31.524  -9.266 -20.837  0.00  0.00    +0.007 C 
ATOM      7  C   UNL     1      31.222  -7.953 -20.478  0.00  0.00    +0.136 C 
ATOM      8  C   UNL     1      31.354 -10.346 -19.816  0.00  0.00    +0.033 C 
ENDROOT
BRANCH   5  10
ATOM      9  N   UNL     1      33.009 -11.017 -23.665  0.00  0.00    -0.244 NA
ATOM     10  C   UNL     1      32.291 -10.909 -22.524  0.00  0.00    +0.081 C 
ATOM     11  C   UNL     1      32.942 -13.386 -23.364  0.00  0.00    +0.072 C 
ATOM     12  C   UNL     1      31.873 -11.991 -21.766  0.00  0.00    +0.019 C 
ATOM     13  C   UNL     1      32.213 -13.265 -22.207  0.00  0.00    +0.008 C 
ATOM     14  C   UNL     1      33.321 -12.271 -24.062  0.00  0.00    +0.103 C 
BRANCH  11  17
ATOM     15  O   UNL     1      32.973 -15.076 -24.990  0.00  0.00    -0.270 OA
ATOM     16  N   UNL     1      34.077 -15.514 -22.998  0.00  0.00    -0.301 N 
ATOM     17  C   UNL     1      33.320 -14.733 -23.862  0.00  0.00    +0.247 C 
ATOM     18  H   UNL     1      34.306 -15.153 -22.111  0.00  0.00    +0.150 HD
BRANCH  16  19
ATOM     19  C   UNL     1      34.540 -16.832 -23.345  0.00  0.00    +0.090 C 
BRANCH  19  20
ATOM     20  C   UNL     1      34.900 -17.718 -22.132  0.00  0.00    +0.018 C 
ATOM     21  C   UNL     1      36.395 -18.078 -22.222  0.00  0.00    +0.002 C 
ATOM     22  C   UNL     1      34.082 -19.021 -22.138  0.00  0.00    +0.002 C 
ATOM     23  C   UNL     1      34.652 -16.965 -20.814  0.00  0.00    +0.002 C 
ENDBRANCH  19  20
ENDBRANCH  16  19
ENDBRANCH  11  17
ENDBRANCH   5  10
BRANCH   2  26
ATOM     24  O   UNL     1      32.924  -6.143 -24.470  0.00  0.00    -0.270 OA
ATOM     25  N   UNL     1      31.001  -5.129 -23.662  0.00  0.00    -0.302 N 
ATOM     26  C   UNL     1      31.974  -6.136 -23.667  0.00  0.00    +0.246 C 
ATOM     27  H   UNL     1      30.276  -5.187 -22.999  0.00  0.00    +0.150 HD
BRANCH  25  28
ATOM     28  C   UNL     1      31.004  -4.011 -24.578  0.00  0.00    +0.072 C 
ATOM     29  C   UNL     1      30.528  -2.672 -24.134  0.00  0.00    +0.021 C 
ATOM     30  C   UNL     1      31.984  -2.903 -24.410  0.00  0.00    +0.021 C 
ENDBRANCH  25  28
ENDBRANCH   2  26
TORSDOF 6
ENDMDL
MODEL 7
REMARK VINA RESULT:      -9.5      1.750      2.421
REMARK  Name = 11552706
REMARK  6 active torsions:
REMARK  status: ('A' for Active; 'I' for Inactive)
REMARK    1  A    between atoms: C_2  and  C_26
REMARK    2  A    between atoms: C_5  and  C_10
REMARK    3  A    between atoms: C_11  and  C_17
REMARK    4  A    between atoms: N_16  and  C_19
REMARK    5  A    between atoms: C_19  and  C_20
REMARK    6  A    between atoms: N_25  and  C_28
REMARK                            x       y       z     vdW  Elec       q    Type
REMARK                         _______ _______ _______ _____ _____    ______ ____
ROOT
ATOM      1  F   UNL     1      34.478 -17.993 -25.278  0.00  0.00    -0.205 F 
ATOM      2  C   UNL     1      34.131 -15.997 -22.257  0.00  0.00    +0.056 C 
ATOM      3  C   UNL     1      34.088 -16.999 -21.287  0.00  0.00    +0.006 C 
ATOM      4  C   UNL     1      34.262 -16.337 -23.604  0.00  0.00    +0.034 C 
ATOM      5  C   UNL     1      34.177 -18.343 -21.659  0.00  0.00    +0.016 C 
ATOM      6  C   UNL     1      34.308 -18.678 -23.010  0.00  0.00    +0.007 C 
ATOM      7  C   UNL     1      34.351 -17.677 -23.980  0.00  0.00    +0.136 C 
ATOM      8  C   UNL     1      34.407 -20.106 -23.447  0.00  0.00    +0.033 C 
ENDROOT
BRANCH   5  10
ATOM      9  N   UNL     1      32.890 -19.736 -20.258  0.00  0.00    -0.244 NA
ATOM     10  C   UNL     1      34.132 -19.361 -20.636  0.00  0.00    +0.081 C 
ATOM     11  C   UNL     1      33.924 -21.255 -18.730  0.00  0.00    +0.072 C 
ATOM     12  C   UNL     1      35.298 -19.889 -20.105  0.00  0.00    +0.019 C 
ATOM     13  C   UNL     1      35.181 -20.866 -19.122  0.00  0.00    +0.008 C 
ATOM     14  C   UNL     1      32.816 -20.688 -19.300  0.00  0.00    +0.103 C 
BRANCH  11  17
ATOM     15  O   UNL     1      34.767 -22.776 -17.156  0.00  0.00    -0.270 OA
ATOM     16  N   UNL     1      32.460 -22.637 -17.352  0.00  0.00    -0.301 N 
ATOM     17  C   UNL     1      33.765 -22.295 -17.682  0.00  0.00    +0.247 C 
ATOM     18  H   UNL     1      31.721 -22.196 -17.831  0.00  0.00    +0.150 HD
BRANCH  16  19
ATOM     19  C   UNL     1      32.143 -23.609 -16.340  0.00  0.00    +0.090 C 
BRANCH  19  20
ATOM     20  C   UNL     1      30.980 -23.200 -15.409  0.00  0.00    +0.018 C 
ATOM     21  C   UNL     1      29.978 -22.362 -16.226  0.00  0.00    +0.002 C 
ATOM     22  C   UNL     1      31.487 -22.347 -14.233  0.00  0.00    +0.002 C 
ATOM     23  C   UNL     1      30.255 -24.442 -14.864  0.00  0.00    +0.002 C 
ENDBRANCH  19  20
ENDBRANCH  16  19
ENDBRANCH  11  17
ENDBRANCH   5  10
BRANCH   2  26
ATOM     24  O   UNL     1      34.210 -14.263 -20.682  0.00  0.00    -0.270 OA
ATOM     25  N   UNL     1      33.770 -13.673 -22.882  0.00  0.00    -0.302 N 
ATOM     26  C   UNL     1      34.037 -14.600 -21.867  0.00  0.00    +0.246 C 
ATOM     27  H   UNL     1      33.644 -14.010 -23.798  0.00  0.00    +0.150 HD
BRANCH  25  28
ATOM     28  C   UNL     1      33.671 -12.249 -22.656  0.00  0.00    +0.072 C 
ATOM     29  C   UNL     1      33.100 -11.357 -23.704  0.00  0.00    +0.021 C 
ATOM     30  C   UNL     1      32.344 -11.613 -22.433  0.00  0.00    +0.021 C 
ENDBRANCH  25  28
ENDBRANCH   2  26
TORSDOF 6
ENDMDL
MODEL 8
REMARK VINA RESULT:      -9.3      3.401     10.052
REMARK  Name = 11552706
REMARK  6 active torsions:
REMARK  status: ('A' for Active; 'I' for Inactive)
REMARK    1  A    between atoms: C_2  and  C_26
REMARK    2  A    between atoms: C_5  and  C_10
REMARK    3  A    between atoms: C_11  and  C_17
REMARK    4  A    between atoms: N_16  and  C_19
REMARK    5  A    between atoms: C_19  and  C_20
REMARK    6  A    between atoms: N_25  and  C_28
REMARK                            x       y       z     vdW  Elec       q    Type
REMARK                         _______ _______ _______ _____ _____    ______ ____
ROOT
ATOM      1  F   UNL     1      32.254 -23.888 -15.110  0.00  0.00    -0.205 F 
ATOM      2  C   UNL     1      35.744 -22.893 -15.346  0.00  0.00    +0.056 C 
ATOM      3  C   UNL     1      35.723 -22.145 -16.524  0.00  0.00    +0.006 C 
ATOM      4  C   UNL     1      34.571 -23.481 -14.872  0.00  0.00    +0.034 C 
ATOM      5  C   UNL     1      34.528 -21.982 -17.232  0.00  0.00    +0.016 C 
ATOM      6  C   UNL     1      33.356 -22.573 -16.752  0.00  0.00    +0.007 C 
ATOM      7  C   UNL     1      33.376 -23.320 -15.575  0.00  0.00    +0.136 C 
ATOM      8  C   UNL     1      32.058 -22.420 -17.481  0.00  0.00    +0.033 C 
ENDROOT
BRANCH   5  10
ATOM      9  N   UNL     1      35.751 -20.782 -18.852  0.00  0.00    -0.244 NA
ATOM     10  C   UNL     1      34.532 -21.203 -18.447  0.00  0.00    +0.081 C 
ATOM     11  C   UNL     1      34.662 -19.737 -20.705  0.00  0.00    +0.072 C 
ATOM     12  C   UNL     1      33.352 -20.926 -19.120  0.00  0.00    +0.019 C 
ATOM     13  C   UNL     1      33.429 -20.170 -20.284  0.00  0.00    +0.008 C 
ATOM     14  C   UNL     1      35.785 -20.048 -19.988  0.00  0.00    +0.103 C 
BRANCH  11  17
ATOM     15  O   UNL     1      34.442 -19.418 -23.018  0.00  0.00    -0.270 OA
ATOM     16  N   UNL     1      35.249 -17.628 -21.782  0.00  0.00    -0.301 N 
ATOM     17  C   UNL     1      34.778 -18.925 -21.943  0.00  0.00    +0.247 C 
ATOM     18  H   UNL     1      35.495 -17.323 -20.879  0.00  0.00    +0.150 HD
BRANCH  16  19
ATOM     19  C   UNL     1      35.393 -16.712 -22.883  0.00  0.00    +0.090 C 
BRANCH  19  20
ATOM     20  C   UNL     1      34.197 -15.753 -23.071  0.00  0.00    +0.018 C 
ATOM     21  C   UNL     1      33.074 -16.517 -23.798  0.00  0.00    +0.002 C 
ATOM     22  C   UNL     1      34.593 -14.536 -23.924  0.00  0.00    +0.002 C 
ATOM     23  C   UNL     1      33.665 -15.272 -21.710  0.00  0.00    +0.002 C 
ENDBRANCH  19  20
ENDBRANCH  16  19
ENDBRANCH  11  17
ENDBRANCH   5  10
BRANCH   2  26
ATOM     24  O   UNL     1      37.202 -22.414 -13.574  0.00  0.00    -0.270 OA
ATOM     25  N   UNL     1      37.902 -23.994 -15.120  0.00  0.00    -0.302 N 
ATOM     26  C   UNL     1      36.988 -23.062 -14.614  0.00  0.00    +0.246 C 
ATOM     27  H   UNL     1      37.667 -24.472 -15.948  0.00  0.00    +0.150 HD
BRANCH  25  28
ATOM     28  C   UNL     1      39.169 -24.293 -14.493  0.00  0.00    +0.072 C 
ATOM     29  C   UNL     1      39.289 -25.426 -13.535  0.00  0.00    +0.021 C 
ATOM     30  C   UNL     1      39.936 -25.507 -14.885  0.00  0.00    +0.021 C 
ENDBRANCH  25  28
ENDBRANCH   2  26
TORSDOF 6
ENDMDL
MODEL 9
REMARK VINA RESULT:      -9.1      6.613     14.250
REMARK  Name = 11552706
REMARK  6 active torsions:
REMARK  status: ('A' for Active; 'I' for Inactive)
REMARK    1  A    between atoms: C_2  and  C_26
REMARK    2  A    between atoms: C_5  and  C_10
REMARK    3  A    between atoms: C_11  and  C_17
REMARK    4  A    between atoms: N_16  and  C_19
REMARK    5  A    between atoms: C_19  and  C_20
REMARK    6  A    between atoms: N_25  and  C_28
REMARK                            x       y       z     vdW  Elec       q    Type
REMARK                         _______ _______ _______ _____ _____    ______ ____
ROOT
ATOM      1  F   UNL     1      31.597 -12.372 -19.443  0.00  0.00    -0.205 F 
ATOM      2  C   UNL     1      32.512 -12.530 -22.959  0.00  0.00    +0.056 C 
ATOM      3  C   UNL     1      32.321 -11.201 -23.338  0.00  0.00    +0.006 C 
ATOM      4  C   UNL     1      32.265 -12.922 -21.643  0.00  0.00    +0.034 C 
ATOM      5  C   UNL     1      31.885 -10.259 -22.402  0.00  0.00    +0.016 C 
ATOM      6  C   UNL     1      31.640 -10.657 -21.085  0.00  0.00    +0.007 C 
ATOM      7  C   UNL     1      31.830 -11.985 -20.706  0.00  0.00    +0.136 C 
ATOM      8  C   UNL     1      31.173  -9.677 -20.055  0.00  0.00    +0.033 C 
ENDROOT
BRANCH   5  10
ATOM      9  N   UNL     1      30.409  -8.491 -22.912  0.00  0.00    -0.244 NA
ATOM     10  C   UNL     1      31.697  -8.889 -22.818  0.00  0.00    +0.081 C 
ATOM     11  C   UNL     1      31.224  -6.349 -23.588  0.00  0.00    +0.072 C 
ATOM     12  C   UNL     1      32.783  -8.073 -23.093  0.00  0.00    +0.019 C 
ATOM     13  C   UNL     1      32.530  -6.764 -23.489  0.00  0.00    +0.008 C 
ATOM     14  C   UNL     1      30.202  -7.213 -23.300  0.00  0.00    +0.103 C 
BRANCH  11  17
ATOM     15  O   UNL     1      30.092  -4.306 -23.378  0.00  0.00    -0.270 OA
ATOM     16  N   UNL     1      31.632  -4.482 -25.103  0.00  0.00    -0.301 N 
ATOM     17  C   UNL     1      30.920  -4.958 -24.010  0.00  0.00    +0.247 C 
ATOM     18  H   UNL     1      32.276  -5.081 -25.546  0.00  0.00    +0.150 HD
BRANCH  16  19
ATOM     19  C   UNL     1      31.468  -3.148 -25.616  0.00  0.00    +0.090 C 
BRANCH  19  20
ATOM     20  C   UNL     1      32.396  -2.805 -26.802  0.00  0.00    +0.018 C 
ATOM     21  C   UNL     1      32.915  -4.123 -27.408  0.00  0.00    +0.002 C 
ATOM     22  C   UNL     1      33.603  -1.972 -26.337  0.00  0.00    +0.002 C 
ATOM     23  C   UNL     1      31.630  -2.031 -27.888  0.00  0.00    +0.002 C 
ENDBRANCH  19  20
ENDBRANCH  16  19
ENDBRANCH  11  17
ENDBRANCH   5  10
BRANCH   2  26
ATOM     24  O   UNL     1      32.822 -13.297 -25.153  0.00  0.00    -0.270 OA
ATOM     25  N   UNL     1      33.577 -14.665 -23.439  0.00  0.00    -0.302 N 
ATOM     26  C   UNL     1      32.964 -13.508 -23.935  0.00  0.00    +0.246 C 
ATOM     27  H   UNL     1      33.656 -14.766 -22.464  0.00  0.00    +0.150 HD
BRANCH  25  28
ATOM     28  C   UNL     1      34.100 -15.715 -24.282  0.00  0.00    +0.072 C 
ATOM     29  C   UNL     1      34.379 -17.066 -23.720  0.00  0.00    +0.021 C 
ATOM     30  C   UNL     1      33.239 -16.865 -24.674  0.00  0.00    +0.021 C 
ENDBRANCH  25  28
ENDBRANCH   2  26
TORSDOF 6
ENDMDL
