MODEL 1
REMARK VINA RESULT:     -11.1      0.000      0.000
REMARK  Name = 72106
REMARK  7 active torsions:
REMARK  status: ('A' for Active; 'I' for Inactive)
REMARK    1  A    between atoms: C_2  and  C_8
REMARK    2  A    between atoms: C_8  and  O_9
REMARK    3  A    between atoms: O_9  and  C_10
REMARK    4  A    between atoms: C_10  and  C_11
REMARK    5  A    between atoms: C_11  and  N_13
REMARK    6  A    between atoms: N_19  and  C_21
REMARK    7  A    between atoms: C_23  and  C_30
REMARK                            x       y       z     vdW  Elec       q    Type
REMARK                         _______ _______ _______ _____ _____    ______ ____
ROOT
ATOM      1  N   UNL     1      36.313 -21.426 -17.303  0.00  0.00    -0.229 NA
ATOM      2  C   UNL     1      34.851 -22.653 -15.859  0.00  0.00    +0.107 C 
ATOM      3  C   UNL     1      35.133 -22.034 -17.049  0.00  0.00    +0.138 C 
ATOM      4  C   UNL     1      35.793 -22.675 -14.856  0.00  0.00    +0.011 C 
ATOM      5  C   UNL     1      37.020 -22.059 -15.079  0.00  0.00    +0.021 C 
ATOM      6  C   UNL     1      37.228 -21.453 -16.308  0.00  0.00    +0.100 C 
ATOM      7  N   UNL     1      34.151 -22.020 -18.072  0.00  0.00    -0.298 N 
ATOM      8  H   UNL     1      33.554 -22.804 -18.060  0.00  0.00    +0.154 HD
ENDROOT
BRANCH   7   9
ATOM      9  C   UNL     1      33.866 -21.107 -19.099  0.00  0.00    +0.049 C 
ATOM     10  C   UNL     1      34.889 -20.341 -19.664  0.00  0.00    +0.018 C 
ATOM     11  C   UNL     1      34.606 -19.434 -20.686  0.00  0.00    +0.073 C 
ATOM     12  C   UNL     1      32.556 -20.959 -19.565  0.00  0.00    +0.015 C 
ATOM     13  C   UNL     1      33.297 -19.290 -21.148  0.00  0.00    +0.004 C 
ATOM     14  C   UNL     1      32.272 -20.053 -20.587  0.00  0.00    +0.001 C 
BRANCH  11  18
ATOM     15  F   UNL     1      36.950 -18.993 -20.875  0.00  0.00    -0.166 F 
ATOM     16  F   UNL     1      35.742 -18.673 -22.648  0.00  0.00    -0.166 F 
ATOM     17  F   UNL     1      35.597 -17.292 -20.975  0.00  0.00    -0.166 F 
ATOM     18  C   UNL     1      35.701 -18.618 -21.284  0.00  0.00    +0.419 C 
ENDBRANCH  11  18
ENDBRANCH   7   9
BRANCH   2  20
ATOM     19  O   UNL     1      32.569 -23.158 -16.329  0.00  0.00    -0.245 OA
ATOM     20  C   UNL     1      33.544 -23.314 -15.612  0.00  0.00    +0.344 C 
BRANCH  20  21
ATOM     21  O   UNL     1      33.602 -24.093 -14.497  0.00  0.00    -0.448 OA
BRANCH  21  22
ATOM     22  C   UNL     1      32.745 -23.716 -13.428  0.00  0.00    +0.186 C 
BRANCH  22  23
ATOM     23  C   UNL     1      31.504 -24.594 -13.462  0.00  0.00    -0.029 C 
BRANCH  23  25
ATOM     24  O   UNL     1      27.937 -23.223 -15.197  0.00  0.00    -0.358 OA
ATOM     25  N   UNL     1      30.540 -24.088 -14.438  0.00  0.00    +0.393 N 
ATOM     26  C   UNL     1      30.013 -22.782 -14.021  0.00  0.00    -0.044 C 
ATOM     27  C   UNL     1      29.436 -25.040 -14.622  0.00  0.00    -0.044 C 
ATOM     28  C   UNL     1      29.000 -22.281 -15.047  0.00  0.00    +0.119 C 
ATOM     29  C   UNL     1      28.437 -24.487 -15.634  0.00  0.00    +0.119 C 
ATOM     30  H   UNL     1      31.024 -23.976 -15.327  0.00  0.00    -0.079 HD
ENDBRANCH  23  25
ENDBRANCH  22  23
ENDBRANCH  21  22
ENDBRANCH  20  21
ENDBRANCH   2  20
TORSDOF 7
ENDMDL
MODEL 2
REMARK VINA RESULT:     -10.9      4.088      7.456
REMARK  Name = 72106
REMARK  7 active torsions:
REMARK  status: ('A' for Active; 'I' for Inactive)
REMARK    1  A    between atoms: C_2  and  C_8
REMARK    2  A    between atoms: C_8  and  O_9
REMARK    3  A    between atoms: O_9  and  C_10
REMARK    4  A    between atoms: C_10  and  C_11
REMARK    5  A    between atoms: C_11  and  N_13
REMARK    6  A    between atoms: N_19  and  C_21
REMARK    7  A    between atoms: C_23  and  C_30
REMARK                            x       y       z     vdW  Elec       q    Type
REMARK                         _______ _______ _______ _____ _____    ______ ____
ROOT
ATOM      1  N   UNL     1      36.021 -23.736 -13.965  0.00  0.00    -0.229 NA
ATOM      2  C   UNL     1      36.646 -22.333 -15.800  0.00  0.00    +0.107 C 
ATOM      3  C   UNL     1      35.724 -22.814 -14.907  0.00  0.00    +0.138 C 
ATOM      4  C   UNL     1      37.943 -22.791 -15.762  0.00  0.00    +0.011 C 
ATOM      5  C   UNL     1      38.288 -23.742 -14.807  0.00  0.00    +0.021 C 
ATOM      6  C   UNL     1      37.299 -24.178 -13.940  0.00  0.00    +0.100 C 
ATOM      7  N   UNL     1      34.392 -22.331 -14.960  0.00  0.00    -0.298 N 
ATOM      8  H   UNL     1      34.318 -21.405 -15.286  0.00  0.00    +0.154 HD
ENDROOT
BRANCH   7   9
ATOM      9  C   UNL     1      33.159 -22.918 -14.637  0.00  0.00    +0.049 C 
ATOM     10  C   UNL     1      31.997 -22.533 -15.314  0.00  0.00    +0.018 C 
ATOM     11  C   UNL     1      30.771 -23.117 -14.995  0.00  0.00    +0.073 C 
ATOM     12  C   UNL     1      33.083 -23.894 -13.639  0.00  0.00    +0.015 C 
ATOM     13  C   UNL     1      30.701 -24.090 -13.997  0.00  0.00    +0.004 C 
ATOM     14  C   UNL     1      31.857 -24.478 -13.319  0.00  0.00    +0.001 C 
BRANCH  11  18
ATOM     15  F   UNL     1      28.749 -23.749 -16.105  0.00  0.00    -0.166 F 
ATOM     16  F   UNL     1      28.717 -21.894 -14.983  0.00  0.00    -0.166 F 
ATOM     17  F   UNL     1      29.806 -22.005 -16.861  0.00  0.00    -0.166 F 
ATOM     18  C   UNL     1      29.536 -22.701 -15.718  0.00  0.00    +0.419 C 
ENDBRANCH  11  18
ENDBRANCH   7   9
BRANCH   2  20
ATOM     19  O   UNL     1      36.826 -20.224 -16.898  0.00  0.00    -0.245 OA
ATOM     20  C   UNL     1      36.288 -21.318 -16.823  0.00  0.00    +0.344 C 
BRANCH  20  21
ATOM     21  O   UNL     1      35.300 -21.780 -17.637  0.00  0.00    -0.448 OA
BRANCH  21  22
ATOM     22  C   UNL     1      35.450 -21.500 -19.022  0.00  0.00    +0.186 C 
BRANCH  22  23
ATOM     23  C   UNL     1      34.223 -20.742 -19.504  0.00  0.00    -0.029 C 
BRANCH  23  25
ATOM     24  O   UNL     1      35.802 -18.233 -22.475  0.00  0.00    -0.358 OA
ATOM     25  N   UNL     1      34.614 -19.545 -20.246  0.00  0.00    +0.393 N 
ATOM     26  C   UNL     1      33.949 -19.502 -21.555  0.00  0.00    -0.044 C 
ATOM     27  C   UNL     1      36.072 -19.492 -20.420  0.00  0.00    -0.044 C 
ATOM     28  C   UNL     1      34.382 -18.251 -22.315  0.00  0.00    +0.119 C 
ATOM     29  C   UNL     1      36.455 -18.241 -21.205  0.00  0.00    +0.119 C 
ATOM     30  H   UNL     1      34.321 -18.732 -19.704  0.00  0.00    -0.079 HD
ENDBRANCH  23  25
ENDBRANCH  22  23
ENDBRANCH  21  22
ENDBRANCH  20  21
ENDBRANCH   2  20
TORSDOF 7
ENDMDL
MODEL 3
REMARK VINA RESULT:     -10.9      4.199      7.205
REMARK  Name = 72106
REMARK  7 active torsions:
REMARK  status: ('A' for Active; 'I' for Inactive)
REMARK    1  A    between atoms: C_2  and  C_8
REMARK    2  A    between atoms: C_8  and  O_9
REMARK    3  A    between atoms: O_9  and  C_10
REMARK    4  A    between atoms: C_10  and  C_11
REMARK    5  A    between atoms: C_11  and  N_13
REMARK    6  A    between atoms: N_19  and  C_21
REMARK    7  A    between atoms: C_23  and  C_30
REMARK                            x       y       z     vdW  Elec       q    Type
REMARK                         _______ _______ _______ _____ _____    ______ ____
ROOT
ATOM      1  N   UNL     1      32.636 -22.030 -18.530  0.00  0.00    -0.229 NA
ATOM      2  C   UNL     1      34.885 -21.287 -18.190  0.00  0.00    +0.107 C 
ATOM      3  C   UNL     1      33.763 -21.963 -17.787  0.00  0.00    +0.138 C 
ATOM      4  C   UNL     1      34.897 -20.636 -19.403  0.00  0.00    +0.011 C 
ATOM      5  C   UNL     1      33.755 -20.681 -20.196  0.00  0.00    +0.021 C 
ATOM      6  C   UNL     1      32.661 -21.385 -19.718  0.00  0.00    +0.100 C 
ATOM      7  N   UNL     1      33.768 -22.628 -16.535  0.00  0.00    -0.298 N 
ATOM      8  H   UNL     1      34.656 -22.952 -16.261  0.00  0.00    +0.154 HD
ENDROOT
BRANCH   7   9
ATOM      9  C   UNL     1      32.751 -22.915 -15.611  0.00  0.00    +0.049 C 
ATOM     10  C   UNL     1      31.422 -22.591 -15.903  0.00  0.00    +0.018 C 
ATOM     11  C   UNL     1      30.411 -22.877 -14.985  0.00  0.00    +0.073 C 
ATOM     12  C   UNL     1      33.059 -23.528 -14.393  0.00  0.00    +0.015 C 
ATOM     13  C   UNL     1      30.725 -23.489 -13.771  0.00  0.00    +0.004 C 
ATOM     14  C   UNL     1      32.049 -23.814 -13.475  0.00  0.00    +0.001 C 
BRANCH  11  18
ATOM     15  F   UNL     1      28.485 -21.542 -14.506  0.00  0.00    -0.166 F 
ATOM     16  F   UNL     1      28.814 -22.086 -16.579  0.00  0.00    -0.166 F 
ATOM     17  F   UNL     1      28.150 -23.590 -15.157  0.00  0.00    -0.166 F 
ATOM     18  C   UNL     1      28.997 -22.528 -15.301  0.00  0.00    +0.419 C 
ENDBRANCH  11  18
ENDBRANCH   7   9
BRANCH   2  20
ATOM     19  O   UNL     1      36.816 -20.242 -17.262  0.00  0.00    -0.245 OA
ATOM     20  C   UNL     1      36.109 -21.233 -17.351  0.00  0.00    +0.344 C 
BRANCH  20  21
ATOM     21  O   UNL     1      36.314 -22.421 -16.719  0.00  0.00    -0.448 OA
BRANCH  21  22
ATOM     22  C   UNL     1      37.351 -22.441 -15.747  0.00  0.00    +0.186 C 
BRANCH  22  23
ATOM     23  C   UNL     1      36.751 -22.813 -14.400  0.00  0.00    -0.029 C 
BRANCH  23  25
ATOM     24  O   UNL     1      38.263 -26.728 -14.401  0.00  0.00    -0.358 OA
ATOM     25  N   UNL     1      37.269 -24.101 -13.942  0.00  0.00    +0.393 N 
ATOM     26  C   UNL     1      38.627 -24.329 -14.455  0.00  0.00    -0.044 C 
ATOM     27  C   UNL     1      36.383 -25.196 -14.358  0.00  0.00    -0.044 C 
ATOM     28  C   UNL     1      39.140 -25.684 -13.975  0.00  0.00    +0.119 C 
ATOM     29  C   UNL     1      36.948 -26.530 -13.879  0.00  0.00    +0.119 C 
ATOM     30  H   UNL     1      37.305 -24.079 -12.924  0.00  0.00    -0.079 HD
ENDBRANCH  23  25
ENDBRANCH  22  23
ENDBRANCH  21  22
ENDBRANCH  20  21
ENDBRANCH   2  20
TORSDOF 7
ENDMDL
MODEL 4
REMARK VINA RESULT:     -10.9      4.174      6.933
REMARK  Name = 72106
REMARK  7 active torsions:
REMARK  status: ('A' for Active; 'I' for Inactive)
REMARK    1  A    between atoms: C_2  and  C_8
REMARK    2  A    between atoms: C_8  and  O_9
REMARK    3  A    between atoms: O_9  and  C_10
REMARK    4  A    between atoms: C_10  and  C_11
REMARK    5  A    between atoms: C_11  and  N_13
REMARK    6  A    between atoms: N_19  and  C_21
REMARK    7  A    between atoms: C_23  and  C_30
REMARK                            x       y       z     vdW  Elec       q    Type
REMARK                         _______ _______ _______ _____ _____    ______ ____
ROOT
ATOM      1  N   UNL     1      32.539 -22.046 -18.346  0.00  0.00    -0.229 NA
ATOM      2  C   UNL     1      34.840 -21.561 -17.897  0.00  0.00    +0.107 C 
ATOM      3  C   UNL     1      33.634 -22.116 -17.556  0.00  0.00    +0.138 C 
ATOM      4  C   UNL     1      34.975 -20.894 -19.094  0.00  0.00    +0.011 C 
ATOM      5  C   UNL     1      33.870 -20.799 -19.934  0.00  0.00    +0.021 C 
ATOM      6  C   UNL     1      32.686 -21.386 -19.517  0.00  0.00    +0.100 C 
ATOM      7  N   UNL     1      33.512 -22.800 -16.321  0.00  0.00    -0.298 N 
ATOM      8  H   UNL     1      34.347 -23.224 -16.017  0.00  0.00    +0.154 HD
ENDROOT
BRANCH   7   9
ATOM      9  C   UNL     1      32.431 -22.990 -15.446  0.00  0.00    +0.049 C 
ATOM     10  C   UNL     1      31.137 -22.633 -15.838  0.00  0.00    +0.018 C 
ATOM     11  C   UNL     1      30.062 -22.823 -14.969  0.00  0.00    +0.073 C 
ATOM     12  C   UNL     1      32.640 -23.538 -14.177  0.00  0.00    +0.015 C 
ATOM     13  C   UNL     1      30.276 -23.370 -13.704  0.00  0.00    +0.004 C 
ATOM     14  C   UNL     1      31.565 -23.728 -13.308  0.00  0.00    +0.001 C 
BRANCH  11  18
ATOM     15  F   UNL     1      28.614 -21.978 -16.675  0.00  0.00    -0.166 F 
ATOM     16  F   UNL     1      27.789 -23.469 -15.334  0.00  0.00    -0.166 F 
ATOM     17  F   UNL     1      28.154 -21.449 -14.616  0.00  0.00    -0.166 F 
ATOM     18  C   UNL     1      28.684 -22.440 -15.391  0.00  0.00    +0.419 C 
ENDBRANCH  11  18
ENDBRANCH   7   9
BRANCH   2  20
ATOM     19  O   UNL     1      36.865 -20.776 -16.916  0.00  0.00    -0.245 OA
ATOM     20  C   UNL     1      36.025 -21.657 -17.008  0.00  0.00    +0.344 C 
BRANCH  20  21
ATOM     21  O   UNL     1      36.028 -22.840 -16.334  0.00  0.00    -0.448 OA
BRANCH  21  22
ATOM     22  C   UNL     1      36.919 -22.926 -15.230  0.00  0.00    +0.186 C 
BRANCH  22  23
ATOM     23  C   UNL     1      36.208 -22.416 -13.987  0.00  0.00    -0.029 C 
BRANCH  23  25
ATOM     24  O   UNL     1      35.946 -25.322 -10.970  0.00  0.00    -0.358 OA
ATOM     25  N   UNL     1      36.531 -23.247 -12.828  0.00  0.00    +0.393 N 
ATOM     26  C   UNL     1      36.612 -24.663 -13.209  0.00  0.00    -0.044 C 
ATOM     27  C   UNL     1      35.533 -23.068 -11.764  0.00  0.00    -0.044 C 
ATOM     28  C   UNL     1      36.936 -25.512 -11.982  0.00  0.00    +0.119 C 
ATOM     29  C   UNL     1      35.884 -23.952 -10.571  0.00  0.00    +0.119 C 
ATOM     30  H   UNL     1      37.440 -22.952 -12.475  0.00  0.00    -0.079 HD
ENDBRANCH  23  25
ENDBRANCH  22  23
ENDBRANCH  21  22
ENDBRANCH  20  21
ENDBRANCH   2  20
TORSDOF 7
ENDMDL
MODEL 5
REMARK VINA RESULT:     -10.8      3.997      8.028
REMARK  Name = 72106
REMARK  7 active torsions:
REMARK  status: ('A' for Active; 'I' for Inactive)
REMARK    1  A    between atoms: C_2  and  C_8
REMARK    2  A    between atoms: C_8  and  O_9
REMARK    3  A    between atoms: O_9  and  C_10
REMARK    4  A    between atoms: C_10  and  C_11
REMARK    5  A    between atoms: C_11  and  N_13
REMARK    6  A    between atoms: N_19  and  C_21
REMARK    7  A    between atoms: C_23  and  C_30
REMARK                            x       y       z     vdW  Elec       q    Type
REMARK                         _______ _______ _______ _____ _____    ______ ____
ROOT
ATOM      1  N   UNL     1      32.452 -23.287 -14.225  0.00  0.00    -0.229 NA
ATOM      2  C   UNL     1      32.497 -22.832 -16.574  0.00  0.00    +0.107 C 
ATOM      3  C   UNL     1      33.092 -23.256 -15.414  0.00  0.00    +0.138 C 
ATOM      4  C   UNL     1      31.186 -22.413 -16.559  0.00  0.00    +0.011 C 
ATOM      5  C   UNL     1      30.493 -22.430 -15.354  0.00  0.00    +0.021 C 
ATOM      6  C   UNL     1      31.165 -22.871 -14.225  0.00  0.00    +0.100 C 
ATOM      7  N   UNL     1      34.443 -23.684 -15.447  0.00  0.00    -0.298 N 
ATOM      8  H   UNL     1      34.714 -24.081 -16.307  0.00  0.00    +0.154 HD
ENDROOT
BRANCH   7   9
ATOM      9  C   UNL     1      35.470 -23.653 -14.491  0.00  0.00    +0.049 C 
ATOM     10  C   UNL     1      36.721 -24.206 -14.782  0.00  0.00    +0.018 C 
ATOM     11  C   UNL     1      37.742 -24.174 -13.832  0.00  0.00    +0.073 C 
ATOM     12  C   UNL     1      35.251 -23.066 -13.241  0.00  0.00    +0.015 C 
ATOM     13  C   UNL     1      37.518 -23.587 -12.587  0.00  0.00    +0.004 C 
ATOM     14  C   UNL     1      36.272 -23.033 -12.291  0.00  0.00    +0.001 C 
BRANCH  11  18
ATOM     15  F   UNL     1      39.590 -24.349 -15.341  0.00  0.00    -0.166 F 
ATOM     16  F   UNL     1      40.034 -24.477 -13.222  0.00  0.00    -0.166 F 
ATOM     17  F   UNL     1      39.037 -26.130 -14.222  0.00  0.00    -0.166 F 
ATOM     18  C   UNL     1      39.073 -24.767 -14.148  0.00  0.00    +0.419 C 
ENDBRANCH  11  18
ENDBRANCH   7   9
BRANCH   2  20
ATOM     19  O   UNL     1      33.198 -23.731 -18.668  0.00  0.00    -0.245 OA
ATOM     20  C   UNL     1      33.228 -22.810 -17.866  0.00  0.00    +0.344 C 
BRANCH  20  21
ATOM     21  O   UNL     1      33.915 -21.644 -18.013  0.00  0.00    -0.448 OA
BRANCH  21  22
ATOM     22  C   UNL     1      34.389 -21.360 -19.322  0.00  0.00    +0.186 C 
BRANCH  22  23
ATOM     23  C   UNL     1      33.471 -20.330 -19.962  0.00  0.00    -0.029 C 
BRANCH  23  25
ATOM     24  O   UNL     1      36.153 -18.259 -22.439  0.00  0.00    -0.358 OA
ATOM     25  N   UNL     1      34.248 -19.252 -20.571  0.00  0.00    +0.393 N 
ATOM     26  C   UNL     1      33.926 -19.120 -21.998  0.00  0.00    -0.044 C 
ATOM     27  C   UNL     1      35.688 -19.487 -20.400  0.00  0.00    -0.044 C 
ATOM     28  C   UNL     1      34.759 -17.998 -22.614  0.00  0.00    +0.119 C 
ATOM     29  C   UNL     1      36.479 -18.357 -21.052  0.00  0.00    +0.119 C 
ATOM     30  H   UNL     1      34.002 -18.383 -20.099  0.00  0.00    -0.079 HD
ENDBRANCH  23  25
ENDBRANCH  22  23
ENDBRANCH  21  22
ENDBRANCH  20  21
ENDBRANCH   2  20
TORSDOF 7
ENDMDL
MODEL 6
REMARK VINA RESULT:     -10.7      4.816      8.892
REMARK  Name = 72106
REMARK  7 active torsions:
REMARK  status: ('A' for Active; 'I' for Inactive)
REMARK    1  A    between atoms: C_2  and  C_8
REMARK    2  A    between atoms: C_8  and  O_9
REMARK    3  A    between atoms: O_9  and  C_10
REMARK    4  A    between atoms: C_10  and  C_11
REMARK    5  A    between atoms: C_11  and  N_13
REMARK    6  A    between atoms: N_19  and  C_21
REMARK    7  A    between atoms: C_23  and  C_30
REMARK                            x       y       z     vdW  Elec       q    Type
REMARK                         _______ _______ _______ _____ _____    ______ ____
ROOT
ATOM      1  N   UNL     1      33.197 -21.594 -18.615  0.00  0.00    -0.229 NA
ATOM      2  C   UNL     1      34.378 -20.062 -20.025  0.00  0.00    +0.107 C 
ATOM      3  C   UNL     1      34.339 -21.002 -19.027  0.00  0.00    +0.138 C 
ATOM      4  C   UNL     1      33.214 -19.684 -20.656  0.00  0.00    +0.011 C 
ATOM      5  C   UNL     1      32.017 -20.270 -20.260  0.00  0.00    +0.021 C 
ATOM      6  C   UNL     1      32.062 -21.211 -19.243  0.00  0.00    +0.100 C 
ATOM      7  N   UNL     1      35.546 -21.381 -18.387  0.00  0.00    -0.298 N 
ATOM      8  H   UNL     1      36.340 -21.317 -18.967  0.00  0.00    +0.154 HD
ENDROOT
BRANCH   7   9
ATOM      9  C   UNL     1      35.829 -21.830 -17.088  0.00  0.00    +0.049 C 
ATOM     10  C   UNL     1      34.812 -22.365 -16.291  0.00  0.00    +0.018 C 
ATOM     11  C   UNL     1      35.093 -22.812 -15.000  0.00  0.00    +0.073 C 
ATOM     12  C   UNL     1      37.129 -21.747 -16.581  0.00  0.00    +0.015 C 
ATOM     13  C   UNL     1      36.393 -22.727 -14.500  0.00  0.00    +0.004 C 
ATOM     14  C   UNL     1      37.411 -22.194 -15.291  0.00  0.00    +0.001 C 
BRANCH  11  18
ATOM     15  F   UNL     1      33.793 -24.715 -14.357  0.00  0.00    -0.166 F 
ATOM     16  F   UNL     1      34.232 -23.257 -12.813  0.00  0.00    -0.166 F 
ATOM     17  F   UNL     1      32.798 -22.781 -14.377  0.00  0.00    -0.166 F 
ATOM     18  C   UNL     1      34.005 -23.381 -14.154  0.00  0.00    +0.419 C 
ENDBRANCH  11  18
ENDBRANCH   7   9
BRANCH   2  20
ATOM     19  O   UNL     1      36.544 -19.130 -19.681  0.00  0.00    -0.245 OA
ATOM     20  C   UNL     1      35.650 -19.431 -20.456  0.00  0.00    +0.344 C 
BRANCH  20  21
ATOM     21  O   UNL     1      35.663 -19.244 -21.805  0.00  0.00    -0.448 OA
BRANCH  21  22
ATOM     22  C   UNL     1      36.077 -17.960 -22.253  0.00  0.00    +0.186 C 
BRANCH  22  23
ATOM     23  C   UNL     1      35.162 -16.911 -21.642  0.00  0.00    -0.029 C 
BRANCH  23  25
ATOM     24  O   UNL     1      32.997 -14.360 -24.176  0.00  0.00    -0.358 OA
ATOM     25  N   UNL     1      34.838 -15.874 -22.620  0.00  0.00    +0.393 N 
ATOM     26  C   UNL     1      33.999 -14.831 -22.016  0.00  0.00    -0.044 C 
ATOM     27  C   UNL     1      34.159 -16.453 -23.787  0.00  0.00    -0.044 C 
ATOM     28  C   UNL     1      33.663 -13.768 -23.059  0.00  0.00    +0.119 C 
ATOM     29  C   UNL     1      33.820 -15.353 -24.789  0.00  0.00    +0.119 C 
ATOM     30  H   UNL     1      35.712 -15.452 -22.929  0.00  0.00    -0.079 HD
ENDBRANCH  23  25
ENDBRANCH  22  23
ENDBRANCH  21  22
ENDBRANCH  20  21
ENDBRANCH   2  20
TORSDOF 7
ENDMDL
MODEL 7
REMARK VINA RESULT:     -10.6      4.707      8.273
REMARK  Name = 72106
REMARK  7 active torsions:
REMARK  status: ('A' for Active; 'I' for Inactive)
REMARK    1  A    between atoms: C_2  and  C_8
REMARK    2  A    between atoms: C_8  and  O_9
REMARK    3  A    between atoms: O_9  and  C_10
REMARK    4  A    between atoms: C_10  and  C_11
REMARK    5  A    between atoms: C_11  and  N_13
REMARK    6  A    between atoms: N_19  and  C_21
REMARK    7  A    between atoms: C_23  and  C_30
REMARK                            x       y       z     vdW  Elec       q    Type
REMARK                         _______ _______ _______ _____ _____    ______ ____
ROOT
ATOM      1  N   UNL     1      35.228 -22.405 -14.817  0.00  0.00    -0.229 NA
ATOM      2  C   UNL     1      35.277 -21.889 -17.154  0.00  0.00    +0.107 C 
ATOM      3  C   UNL     1      34.607 -22.213 -16.002  0.00  0.00    +0.138 C 
ATOM      4  C   UNL     1      36.646 -21.744 -17.135  0.00  0.00    +0.011 C 
ATOM      5  C   UNL     1      37.321 -21.934 -15.935  0.00  0.00    +0.021 C 
ATOM      6  C   UNL     1      36.573 -22.261 -14.815  0.00  0.00    +0.100 C 
ATOM      7  N   UNL     1      33.198 -22.358 -16.039  0.00  0.00    -0.298 N 
ATOM      8  H   UNL     1      32.758 -21.794 -16.716  0.00  0.00    +0.154 HD
ENDROOT
BRANCH   7   9
ATOM      9  C   UNL     1      32.307 -23.149 -15.296  0.00  0.00    +0.049 C 
ATOM     10  C   UNL     1      30.948 -23.177 -15.625  0.00  0.00    +0.018 C 
ATOM     11  C   UNL     1      30.063 -23.964 -14.888  0.00  0.00    +0.073 C 
ATOM     12  C   UNL     1      32.773 -23.916 -14.225  0.00  0.00    +0.015 C 
ATOM     13  C   UNL     1      30.534 -24.728 -13.819  0.00  0.00    +0.004 C 
ATOM     14  C   UNL     1      31.889 -24.704 -13.488  0.00  0.00    +0.001 C 
BRANCH  11  18
ATOM     15  F   UNL     1      28.369 -24.425 -16.512  0.00  0.00    -0.166 F 
ATOM     16  F   UNL     1      27.869 -24.800 -14.435  0.00  0.00    -0.166 F 
ATOM     17  F   UNL     1      28.033 -22.757 -15.158  0.00  0.00    -0.166 F 
ATOM     18  C   UNL     1      28.615 -23.989 -15.241  0.00  0.00    +0.419 C 
ENDBRANCH  11  18
ENDBRANCH   7   9
BRANCH   2  20
ATOM     19  O   UNL     1      33.724 -22.457 -18.872  0.00  0.00    -0.245 OA
ATOM     20  C   UNL     1      34.565 -21.683 -18.441  0.00  0.00    +0.344 C 
BRANCH  20  21
ATOM     21  O   UNL     1      34.983 -20.538 -19.046  0.00  0.00    -0.448 OA
BRANCH  21  22
ATOM     22  C   UNL     1      34.277 -20.159 -20.220  0.00  0.00    +0.186 C 
BRANCH  22  23
ATOM     23  C   UNL     1      35.200 -19.331 -21.100  0.00  0.00    -0.029 C 
BRANCH  23  25
ATOM     24  O   UNL     1      34.116 -16.729 -24.209  0.00  0.00    -0.358 OA
ATOM     25  N   UNL     1      34.431 -18.410 -21.934  0.00  0.00    +0.393 N 
ATOM     26  C   UNL     1      34.230 -18.967 -23.278  0.00  0.00    -0.044 C 
ATOM     27  C   UNL     1      35.100 -17.105 -22.024  0.00  0.00    -0.044 C 
ATOM     28  C   UNL     1      33.437 -17.983 -24.134  0.00  0.00    +0.119 C 
ATOM     29  C   UNL     1      34.286 -16.165 -22.908  0.00  0.00    +0.119 C 
ATOM     30  H   UNL     1      33.519 -18.278 -21.496  0.00  0.00    -0.079 HD
ENDBRANCH  23  25
ENDBRANCH  22  23
ENDBRANCH  21  22
ENDBRANCH  20  21
ENDBRANCH   2  20
TORSDOF 7
ENDMDL
MODEL 8
REMARK VINA RESULT:     -10.5      4.530      7.067
REMARK  Name = 72106
REMARK  7 active torsions:
REMARK  status: ('A' for Active; 'I' for Inactive)
REMARK    1  A    between atoms: C_2  and  C_8
REMARK    2  A    between atoms: C_8  and  O_9
REMARK    3  A    between atoms: O_9  and  C_10
REMARK    4  A    between atoms: C_10  and  C_11
REMARK    5  A    between atoms: C_11  and  N_13
REMARK    6  A    between atoms: N_19  and  C_21
REMARK    7  A    between atoms: C_23  and  C_30
REMARK                            x       y       z     vdW  Elec       q    Type
REMARK                         _______ _______ _______ _____ _____    ______ ____
ROOT
ATOM      1  N   UNL     1      32.151 -21.396 -19.066  0.00  0.00    -0.229 NA
ATOM      2  C   UNL     1      34.439 -21.408 -18.361  0.00  0.00    +0.107 C 
ATOM      3  C   UNL     1      33.128 -21.780 -18.215  0.00  0.00    +0.138 C 
ATOM      4  C   UNL     1      34.810 -20.605 -19.416  0.00  0.00    +0.011 C 
ATOM      5  C   UNL     1      33.834 -20.187 -20.314  0.00  0.00    +0.021 C 
ATOM      6  C   UNL     1      32.531 -20.606 -20.096  0.00  0.00    +0.100 C 
ATOM      7  N   UNL     1      32.762 -22.608 -17.123  0.00  0.00    -0.298 N 
ATOM      8  H   UNL     1      33.478 -23.216 -16.829  0.00  0.00    +0.154 HD
ENDROOT
BRANCH   7   9
ATOM      9  C   UNL     1      31.577 -22.727 -16.381  0.00  0.00    +0.049 C 
ATOM     10  C   UNL     1      31.567 -23.444 -15.180  0.00  0.00    +0.018 C 
ATOM     11  C   UNL     1      30.389 -23.562 -14.441  0.00  0.00    +0.073 C 
ATOM     12  C   UNL     1      30.398 -22.128 -16.835  0.00  0.00    +0.015 C 
ATOM     13  C   UNL     1      29.216 -22.962 -14.900  0.00  0.00    +0.004 C 
ATOM     14  C   UNL     1      29.220 -22.245 -16.096  0.00  0.00    +0.001 C 
BRANCH  11  18
ATOM     15  F   UNL     1      31.589 -24.898 -12.861  0.00  0.00    -0.166 F 
ATOM     16  F   UNL     1      30.065 -23.572 -12.072  0.00  0.00    -0.166 F 
ATOM     17  F   UNL     1      29.486 -25.357 -13.171  0.00  0.00    -0.166 F 
ATOM     18  C   UNL     1      30.384 -24.329 -13.163  0.00  0.00    +0.419 C 
ENDBRANCH  11  18
ENDBRANCH   7   9
BRANCH   2  20
ATOM     19  O   UNL     1      36.620 -21.390 -17.401  0.00  0.00    -0.245 OA
ATOM     20  C   UNL     1      35.489 -21.848 -17.408  0.00  0.00    +0.344 C 
BRANCH  20  21
ATOM     21  O   UNL     1      35.009 -22.810 -16.573  0.00  0.00    -0.448 OA
BRANCH  21  22
ATOM     22  C   UNL     1      35.827 -23.129 -15.455  0.00  0.00    +0.186 C 
BRANCH  22  23
ATOM     23  C   UNL     1      35.081 -22.758 -14.183  0.00  0.00    -0.029 C 
BRANCH  23  25
ATOM     24  O   UNL     1      36.078 -25.390 -11.069  0.00  0.00    -0.358 OA
ATOM     25  N   UNL     1      35.736 -23.338 -13.012  0.00  0.00    +0.393 N 
ATOM     26  C   UNL     1      36.375 -24.616 -13.351  0.00  0.00    -0.044 C 
ATOM     27  C   UNL     1      34.774 -23.530 -11.918  0.00  0.00    -0.044 C 
ATOM     28  C   UNL     1      37.040 -25.207 -12.110  0.00  0.00    +0.119 C 
ATOM     29  C   UNL     1      35.476 -24.145 -10.712  0.00  0.00    +0.119 C 
ATOM     30  H   UNL     1      36.456 -22.686 -12.701  0.00  0.00    -0.079 HD
ENDBRANCH  23  25
ENDBRANCH  22  23
ENDBRANCH  21  22
ENDBRANCH  20  21
ENDBRANCH   2  20
TORSDOF 7
ENDMDL
MODEL 9
REMARK VINA RESULT:     -10.5      7.585     10.414
REMARK  Name = 72106
REMARK  7 active torsions:
REMARK  status: ('A' for Active; 'I' for Inactive)
REMARK    1  A    between atoms: C_2  and  C_8
REMARK    2  A    between atoms: C_8  and  O_9
REMARK    3  A    between atoms: O_9  and  C_10
REMARK    4  A    between atoms: C_10  and  C_11
REMARK    5  A    between atoms: C_11  and  N_13
REMARK    6  A    between atoms: N_19  and  C_21
REMARK    7  A    between atoms: C_23  and  C_30
REMARK                            x       y       z     vdW  Elec       q    Type
REMARK                         _______ _______ _______ _____ _____    ______ ____
ROOT
ATOM      1  N   UNL     1      32.264 -12.824 -24.196  0.00  0.00    -0.229 NA
ATOM      2  C   UNL     1      33.608 -14.495 -23.133  0.00  0.00    +0.107 C 
ATOM      3  C   UNL     1      32.750 -13.427 -23.089  0.00  0.00    +0.138 C 
ATOM      4  C   UNL     1      34.012 -15.001 -24.349  0.00  0.00    +0.011 C 
ATOM      5  C   UNL     1      33.534 -14.407 -25.512  0.00  0.00    +0.021 C 
ATOM      6  C   UNL     1      32.671 -13.330 -25.382  0.00  0.00    +0.100 C 
ATOM      7  N   UNL     1      32.344 -12.918 -21.829  0.00  0.00    -0.298 N 
ATOM      8  H   UNL     1      32.314 -13.598 -21.117  0.00  0.00    +0.154 HD
ENDROOT
BRANCH   7   9
ATOM      9  C   UNL     1      31.976 -11.634 -21.401  0.00  0.00    +0.049 C 
ATOM     10  C   UNL     1      31.957 -10.568 -22.306  0.00  0.00    +0.018 C 
ATOM     11  C   UNL     1      31.590  -9.291 -21.880  0.00  0.00    +0.073 C 
ATOM     12  C   UNL     1      31.625 -11.410 -20.066  0.00  0.00    +0.015 C 
ATOM     13  C   UNL     1      31.241  -9.074 -20.547  0.00  0.00    +0.004 C 
ATOM     14  C   UNL     1      31.258 -10.134 -19.640  0.00  0.00    +0.001 C 
BRANCH  11  18
ATOM     15  F   UNL     1      32.766  -7.499 -22.943  0.00  0.00    -0.166 F 
ATOM     16  F   UNL     1      31.273  -8.536 -24.127  0.00  0.00    -0.166 F 
ATOM     17  F   UNL     1      30.652  -7.204 -22.524  0.00  0.00    -0.166 F 
ATOM     18  C   UNL     1      31.572  -8.158 -22.849  0.00  0.00    +0.419 C 
ENDBRANCH  11  18
ENDBRANCH   7   9
BRANCH   2  20
ATOM     19  O   UNL     1      34.203 -14.558 -20.826  0.00  0.00    -0.245 OA
ATOM     20  C   UNL     1      34.124 -15.137 -21.898  0.00  0.00    +0.344 C 
BRANCH  20  21
ATOM     21  O   UNL     1      34.484 -16.428 -22.139  0.00  0.00    -0.448 OA
BRANCH  21  22
ATOM     22  C   UNL     1      34.910 -17.178 -21.009  0.00  0.00    +0.186 C 
BRANCH  22  23
ATOM     23  C   UNL     1      34.904 -18.654 -21.372  0.00  0.00    -0.029 C 
BRANCH  23  25
ATOM     24  O   UNL     1      33.917 -21.953 -18.973  0.00  0.00    -0.358 OA
ATOM     25  N   UNL     1      34.544 -19.470 -20.213  0.00  0.00    +0.393 N 
ATOM     26  C   UNL     1      35.580 -20.474 -19.940  0.00  0.00    -0.044 C 
ATOM     27  C   UNL     1      33.247 -20.128 -20.422  0.00  0.00    -0.044 C 
ATOM     28  C   UNL     1      35.176 -21.321 -18.736  0.00  0.00    +0.119 C 
ATOM     29  C   UNL     1      32.897 -20.981 -19.207  0.00  0.00    +0.119 C 
ATOM     30  H   UNL     1      34.469 -18.851 -19.406  0.00  0.00    -0.079 HD
ENDBRANCH  23  25
ENDBRANCH  22  23
ENDBRANCH  21  22
ENDBRANCH  20  21
ENDBRANCH   2  20
TORSDOF 7
ENDMDL
