MODEL 1
REMARK VINA RESULT:     -11.7      0.000      0.000
REMARK  Name = 44814423
REMARK  10 active torsions:
REMARK  status: ('A' for Active; 'I' for Inactive)
REMARK    1  A    between atoms: C_3  and  C_32
REMARK    2  A    between atoms: C_4  and  C_10
REMARK    3  A    between atoms: C_5  and  O_26
REMARK    4  A    between atoms: C_6  and  O_28
REMARK    5  A    between atoms: C_7  and  O_30
REMARK    6  A    between atoms: C_13  and  C_16
REMARK    7  A    between atoms: C_16  and  C_17
REMARK    8  A    between atoms: C_22  and  O_23
REMARK    9  A    between atoms: O_23  and  C_24
REMARK   10  A    between atoms: C_32  and  O_33
REMARK                            x       y       z     vdW  Elec       q    Type
REMARK                         _______ _______ _______ _____ _____    ______ ____
ROOT
ATOM      1  O   UNL     1      35.407 -24.997 -14.203  0.00  0.00    -0.326 OA
ATOM      2  O   UNL     1      35.964 -22.797 -13.697  0.00  0.00    -0.326 OA
ATOM      3  C   UNL     1      36.745 -25.004 -13.684  0.00  0.00    +0.176 C 
ATOM      4  C   UNL     1      34.881 -23.752 -13.690  0.00  0.00    +0.235 C 
ATOM      5  C   UNL     1      36.638 -25.372 -12.185  0.00  0.00    +0.169 C 
ATOM      6  C   UNL     1      34.495 -24.008 -12.217  0.00  0.00    +0.196 C 
ATOM      7  C   UNL     1      35.742 -24.397 -11.404  0.00  0.00    +0.172 C 
ATOM      8  C   UNL     1      37.150 -23.563 -13.957  0.00  0.00    +0.177 C 
ENDROOT
BRANCH   4  10
ATOM      9 CL   UNL     1      30.216 -21.984 -17.078  0.00  0.00    -0.083 Cl
ATOM     10  C   UNL     1      33.714 -23.310 -14.548  0.00  0.00    +0.031 C 
ATOM     11  C   UNL     1      33.792 -23.414 -15.938  0.00  0.00    -0.003 C 
ATOM     12  C   UNL     1      32.562 -22.799 -13.951  0.00  0.00    +0.001 C 
ATOM     13  C   UNL     1      32.718 -23.006 -16.729  0.00  0.00    -0.007 C 
ATOM     14  C   UNL     1      31.488 -22.392 -14.742  0.00  0.00    +0.011 C 
ATOM     15  C   UNL     1      31.566 -22.496 -16.131  0.00  0.00    +0.054 C 
BRANCH  13  16
ATOM     16  C   UNL     1      32.840 -23.135 -18.213  0.00  0.00    +0.053 C 
BRANCH  16  17
ATOM     17  C   UNL     1      33.505 -21.948 -18.877  0.00  0.00    -0.018 C 
ATOM     18  C   UNL     1      34.887 -21.779 -18.784  0.00  0.00    -0.001 C 
ATOM     19  C   UNL     1      32.736 -21.022 -19.582  0.00  0.00    -0.001 C 
ATOM     20  C   UNL     1      35.499 -20.685 -19.395  0.00  0.00    +0.037 C 
ATOM     21  C   UNL     1      33.347 -19.928 -20.193  0.00  0.00    +0.037 C 
ATOM     22  C   UNL     1      34.729 -19.760 -20.100  0.00  0.00    +0.139 C 
BRANCH  22  23
ATOM     23  O   UNL     1      35.327 -18.692 -20.697  0.00  0.00    -0.475 OA
BRANCH  23  24
ATOM     24  C   UNL     1      34.993 -18.441 -22.062  0.00  0.00    +0.206 C 
ATOM     25  C   UNL     1      34.808 -16.952 -22.258  0.00  0.00    +0.051 C 
ENDBRANCH  23  24
ENDBRANCH  22  23
ENDBRANCH  16  17
ENDBRANCH  13  16
ENDBRANCH   4  10
BRANCH   5  26
ATOM     26  O   UNL     1      37.924 -25.428 -11.575  0.00  0.00    -0.379 OA
ATOM     27  H   UNL     1      38.069 -24.623 -11.053  0.00  0.00    +0.211 HD
ENDBRANCH   5  26
BRANCH   6  28
ATOM     28  O   UNL     1      33.932 -22.827 -11.648  0.00  0.00    -0.377 OA
ATOM     29  H   UNL     1      33.758 -22.182 -12.351  0.00  0.00    +0.211 HD
ENDBRANCH   6  28
BRANCH   7  30
ATOM     30  O   UNL     1      35.320 -25.008 -10.185  0.00  0.00    -0.379 OA
ATOM     31  H   UNL     1      35.506 -25.959 -10.218  0.00  0.00    +0.211 HD
ENDBRANCH   7  30
BRANCH   3  32
ATOM     32  C   UNL     1      37.599 -26.000 -14.456  0.00  0.00    +0.169 C 
BRANCH  32  33
ATOM     33  O   UNL     1      36.866 -26.447 -15.583  0.00  0.00    -0.379 OA
ATOM     34  H   UNL     1      37.418 -26.371 -16.377  0.00  0.00    +0.211 HD
ENDBRANCH  32  33
ENDBRANCH   3  32
TORSDOF 10
ENDMDL
MODEL 2
REMARK VINA RESULT:     -10.9      1.032      2.567
REMARK  Name = 44814423
REMARK  10 active torsions:
REMARK  status: ('A' for Active; 'I' for Inactive)
REMARK    1  A    between atoms: C_3  and  C_32
REMARK    2  A    between atoms: C_4  and  C_10
REMARK    3  A    between atoms: C_5  and  O_26
REMARK    4  A    between atoms: C_6  and  O_28
REMARK    5  A    between atoms: C_7  and  O_30
REMARK    6  A    between atoms: C_13  and  C_16
REMARK    7  A    between atoms: C_16  and  C_17
REMARK    8  A    between atoms: C_22  and  O_23
REMARK    9  A    between atoms: O_23  and  C_24
REMARK   10  A    between atoms: C_32  and  O_33
REMARK                            x       y       z     vdW  Elec       q    Type
REMARK                         _______ _______ _______ _____ _____    ______ ____
ROOT
ATOM      1  O   UNL     1      35.895 -22.823 -13.645  0.00  0.00    -0.326 OA
ATOM      2  O   UNL     1      34.798 -24.745 -12.930  0.00  0.00    -0.326 OA
ATOM      3  C   UNL     1      36.674 -23.389 -12.581  0.00  0.00    +0.176 C 
ATOM      4  C   UNL     1      35.117 -23.954 -14.096  0.00  0.00    +0.235 C 
ATOM      5  C   UNL     1      37.797 -24.219 -13.247  0.00  0.00    +0.169 C 
ATOM      6  C   UNL     1      36.046 -24.801 -14.993  0.00  0.00    +0.196 C 
ATOM      7  C   UNL     1      37.245 -25.312 -14.177  0.00  0.00    +0.172 C 
ATOM      8  C   UNL     1      35.610 -24.213 -11.872  0.00  0.00    +0.177 C 
ENDROOT
BRANCH   4  10
ATOM      9 CL   UNL     1      30.171 -21.971 -16.920  0.00  0.00    -0.083 Cl
ATOM     10  C   UNL     1      33.879 -23.457 -14.814  0.00  0.00    +0.031 C 
ATOM     11  C   UNL     1      33.837 -23.448 -16.209  0.00  0.00    -0.003 C 
ATOM     12  C   UNL     1      32.780 -23.008 -14.081  0.00  0.00    +0.001 C 
ATOM     13  C   UNL     1      32.698 -22.991 -16.869  0.00  0.00    -0.007 C 
ATOM     14  C   UNL     1      31.640 -22.551 -14.741  0.00  0.00    +0.011 C 
ATOM     15  C   UNL     1      31.599 -22.542 -16.136  0.00  0.00    +0.054 C 
BRANCH  13  16
ATOM     16  C   UNL     1      32.692 -22.999 -18.364  0.00  0.00    +0.053 C 
BRANCH  16  17
ATOM     17  C   UNL     1      33.461 -21.850 -18.984  0.00  0.00    -0.018 C 
ATOM     18  C   UNL     1      32.785 -20.874 -19.716  0.00  0.00    -0.001 C 
ATOM     19  C   UNL     1      34.844 -21.770 -18.824  0.00  0.00    -0.001 C 
ATOM     20  C   UNL     1      33.493 -19.816 -20.288  0.00  0.00    +0.037 C 
ATOM     21  C   UNL     1      35.552 -20.713 -19.396  0.00  0.00    +0.037 C 
ATOM     22  C   UNL     1      34.877 -19.737 -20.128  0.00  0.00    +0.139 C 
BRANCH  22  23
ATOM     23  O   UNL     1      35.567 -18.705 -20.685  0.00  0.00    -0.475 OA
BRANCH  23  24
ATOM     24  C   UNL     1      35.134 -18.251 -21.967  0.00  0.00    +0.206 C 
ATOM     25  C   UNL     1      34.861 -16.764 -21.898  0.00  0.00    +0.051 C 
ENDBRANCH  23  24
ENDBRANCH  22  23
ENDBRANCH  16  17
ENDBRANCH  13  16
ENDBRANCH   4  10
BRANCH   5  26
ATOM     26  O   UNL     1      38.648 -24.811 -12.271  0.00  0.00    -0.379 OA
ATOM     27  H   UNL     1      38.549 -24.341 -11.428  0.00  0.00    +0.211 HD
ENDBRANCH   5  26
BRANCH   6  28
ATOM     28  O   UNL     1      35.334 -25.925 -15.508  0.00  0.00    -0.377 OA
ATOM     29  H   UNL     1      35.115 -26.529 -14.782  0.00  0.00    +0.211 HD
ENDBRANCH   6  28
BRANCH   7  30
ATOM     30  O   UNL     1      38.268 -25.731 -15.082  0.00  0.00    -0.379 OA
ATOM     31  H   UNL     1      38.373 -26.694 -15.026  0.00  0.00    +0.211 HD
ENDBRANCH   7  30
BRANCH   3  32
ATOM     32  C   UNL     1      37.232 -22.282 -11.697  0.00  0.00    +0.169 C 
BRANCH  32  33
ATOM     33  O   UNL     1      36.619 -22.369 -10.423  0.00  0.00    -0.379 OA
ATOM     34  H   UNL     1      36.558 -23.300 -10.156  0.00  0.00    +0.211 HD
ENDBRANCH  32  33
ENDBRANCH   3  32
TORSDOF 10
ENDMDL
MODEL 3
REMARK VINA RESULT:     -10.8      1.373      1.843
REMARK  Name = 44814423
REMARK  10 active torsions:
REMARK  status: ('A' for Active; 'I' for Inactive)
REMARK    1  A    between atoms: C_3  and  C_32
REMARK    2  A    between atoms: C_4  and  C_10
REMARK    3  A    between atoms: C_5  and  O_26
REMARK    4  A    between atoms: C_6  and  O_28
REMARK    5  A    between atoms: C_7  and  O_30
REMARK    6  A    between atoms: C_13  and  C_16
REMARK    7  A    between atoms: C_16  and  C_17
REMARK    8  A    between atoms: C_22  and  O_23
REMARK    9  A    between atoms: O_23  and  C_24
REMARK   10  A    between atoms: C_32  and  O_33
REMARK                            x       y       z     vdW  Elec       q    Type
REMARK                         _______ _______ _______ _____ _____    ______ ____
ROOT
ATOM      1  O   UNL     1      35.482 -24.795 -14.136  0.00  0.00    -0.326 OA
ATOM      2  O   UNL     1      35.352 -22.476 -14.049  0.00  0.00    -0.326 OA
ATOM      3  C   UNL     1      36.826 -24.293 -14.097  0.00  0.00    +0.176 C 
ATOM      4  C   UNL     1      34.722 -23.693 -13.592  0.00  0.00    +0.235 C 
ATOM      5  C   UNL     1      37.286 -24.370 -12.622  0.00  0.00    +0.169 C 
ATOM      6  C   UNL     1      34.887 -23.755 -12.058  0.00  0.00    +0.196 C 
ATOM      7  C   UNL     1      36.367 -23.578 -11.679  0.00  0.00    +0.172 C 
ATOM      8  C   UNL     1      36.604 -22.882 -14.620  0.00  0.00    +0.177 C 
ENDROOT
BRANCH   4  10
ATOM      9 CL   UNL     1      28.981 -24.163 -15.377  0.00  0.00    -0.083 Cl
ATOM     10  C   UNL     1      33.282 -23.804 -14.047  0.00  0.00    +0.031 C 
ATOM     11  C   UNL     1      32.853 -23.117 -15.184  0.00  0.00    -0.003 C 
ATOM     12  C   UNL     1      32.383 -24.595 -13.330  0.00  0.00    +0.001 C 
ATOM     13  C   UNL     1      31.528 -23.220 -15.602  0.00  0.00    -0.007 C 
ATOM     14  C   UNL     1      31.057 -24.698 -13.750  0.00  0.00    +0.011 C 
ATOM     15  C   UNL     1      30.629 -24.010 -14.886  0.00  0.00    +0.054 C 
BRANCH  13  16
ATOM     16  C   UNL     1      31.109 -22.469 -16.825  0.00  0.00    +0.053 C 
BRANCH  16  17
ATOM     17  C   UNL     1      32.268 -21.967 -17.661  0.00  0.00    -0.018 C 
ATOM     18  C   UNL     1      32.035 -21.099 -18.728  0.00  0.00    -0.001 C 
ATOM     19  C   UNL     1      33.569 -22.373 -17.365  0.00  0.00    -0.001 C 
ATOM     20  C   UNL     1      33.102 -20.637 -19.498  0.00  0.00    +0.037 C 
ATOM     21  C   UNL     1      34.636 -21.912 -18.134  0.00  0.00    +0.037 C 
ATOM     22  C   UNL     1      34.403 -21.044 -19.201  0.00  0.00    +0.139 C 
BRANCH  22  23
ATOM     23  O   UNL     1      35.444 -20.593 -19.952  0.00  0.00    -0.475 OA
BRANCH  23  24
ATOM     24  C   UNL     1      35.174 -19.528 -20.863  0.00  0.00    +0.206 C 
ATOM     25  C   UNL     1      36.398 -18.642 -20.963  0.00  0.00    +0.051 C 
ENDBRANCH  23  24
ENDBRANCH  22  23
ENDBRANCH  16  17
ENDBRANCH  13  16
ENDBRANCH   4  10
BRANCH   5  26
ATOM     26  O   UNL     1      38.627 -23.912 -12.476  0.00  0.00    -0.379 OA
ATOM     27  H   UNL     1      39.240 -24.613 -12.747  0.00  0.00    +0.211 HD
ENDBRANCH   5  26
BRANCH   6  28
ATOM     28  O   UNL     1      34.133 -22.711 -11.444  0.00  0.00    -0.377 OA
ATOM     29  H   UNL     1      34.288 -21.879 -11.917  0.00  0.00    +0.211 HD
ENDBRANCH   6  28
BRANCH   7  30
ATOM     30  O   UNL     1      36.552 -24.033 -10.338  0.00  0.00    -0.379 OA
ATOM     31  H   UNL     1      37.162 -23.437  -9.876  0.00  0.00    +0.211 HD
ENDBRANCH   7  30
BRANCH   3  32
ATOM     32  C   UNL     1      37.718 -25.116 -15.017  0.00  0.00    +0.169 C 
BRANCH  32  33
ATOM     33  O   UNL     1      38.215 -26.226 -14.291  0.00  0.00    -0.379 OA
ATOM     34  H   UNL     1      38.768 -25.910 -13.559  0.00  0.00    +0.211 HD
ENDBRANCH  32  33
ENDBRANCH   3  32
TORSDOF 10
ENDMDL
MODEL 4
REMARK VINA RESULT:     -10.8     10.769     17.847
REMARK  Name = 44814423
REMARK  10 active torsions:
REMARK  status: ('A' for Active; 'I' for Inactive)
REMARK    1  A    between atoms: C_3  and  C_32
REMARK    2  A    between atoms: C_4  and  C_10
REMARK    3  A    between atoms: C_5  and  O_26
REMARK    4  A    between atoms: C_6  and  O_28
REMARK    5  A    between atoms: C_7  and  O_30
REMARK    6  A    between atoms: C_13  and  C_16
REMARK    7  A    between atoms: C_16  and  C_17
REMARK    8  A    between atoms: C_22  and  O_23
REMARK    9  A    between atoms: O_23  and  C_24
REMARK   10  A    between atoms: C_32  and  O_33
REMARK                            x       y       z     vdW  Elec       q    Type
REMARK                         _______ _______ _______ _____ _____    ______ ____
ROOT
ATOM      1  O   UNL     1      32.612  -5.929 -23.844  0.00  0.00    -0.326 OA
ATOM      2  O   UNL     1      30.417  -6.538 -24.307  0.00  0.00    -0.326 OA
ATOM      3  C   UNL     1      32.322  -5.496 -25.181  0.00  0.00    +0.176 C 
ATOM      4  C   UNL     1      31.294  -6.057 -23.265  0.00  0.00    +0.235 C 
ATOM      5  C   UNL     1      31.938  -4.000 -25.090  0.00  0.00    +0.169 C 
ATOM      6  C   UNL     1      30.834  -4.631 -22.891  0.00  0.00    +0.196 C 
ATOM      7  C   UNL     1      30.744  -3.757 -24.153  0.00  0.00    +0.172 C 
ATOM      8  C   UNL     1      31.169  -6.428 -25.525  0.00  0.00    +0.177 C 
ENDROOT
BRANCH   4  10
ATOM      9 CL   UNL     1      31.559  -9.783 -18.530  0.00  0.00    -0.083 Cl
ATOM     10  C   UNL     1      31.356  -6.999 -22.081  0.00  0.00    +0.031 C 
ATOM     11  C   UNL     1      30.904  -8.314 -22.210  0.00  0.00    -0.003 C 
ATOM     12  C   UNL     1      31.865  -6.554 -20.861  0.00  0.00    +0.001 C 
ATOM     13  C   UNL     1      30.961  -9.181 -21.120  0.00  0.00    -0.007 C 
ATOM     14  C   UNL     1      31.923  -7.422 -19.771  0.00  0.00    +0.011 C 
ATOM     15  C   UNL     1      31.470  -8.736 -19.901  0.00  0.00    +0.054 C 
BRANCH  13  16
ATOM     16  C   UNL     1      30.468 -10.581 -21.300  0.00  0.00    +0.053 C 
BRANCH  16  17
ATOM     17  C   UNL     1      31.556 -11.570 -21.662  0.00  0.00    -0.018 C 
ATOM     18  C   UNL     1      32.273 -11.415 -22.849  0.00  0.00    -0.001 C 
ATOM     19  C   UNL     1      31.841 -12.637 -20.810  0.00  0.00    -0.001 C 
ATOM     20  C   UNL     1      33.274 -12.327 -23.183  0.00  0.00    +0.037 C 
ATOM     21  C   UNL     1      32.842 -13.548 -21.143  0.00  0.00    +0.037 C 
ATOM     22  C   UNL     1      33.559 -13.393 -22.330  0.00  0.00    +0.139 C 
BRANCH  22  23
ATOM     23  O   UNL     1      34.536 -14.282 -22.656  0.00  0.00    -0.475 OA
BRANCH  23  24
ATOM     24  C   UNL     1      34.119 -15.567 -23.116  0.00  0.00    +0.206 C 
ATOM     25  C   UNL     1      34.755 -16.632 -22.249  0.00  0.00    +0.051 C 
ENDBRANCH  23  24
ENDBRANCH  22  23
ENDBRANCH  16  17
ENDBRANCH  13  16
ENDBRANCH   4  10
BRANCH   5  26
ATOM     26  O   UNL     1      31.650  -3.463 -26.377  0.00  0.00    -0.379 OA
ATOM     27  H   UNL     1      32.465  -3.115 -26.772  0.00  0.00    +0.211 HD
ENDBRANCH   5  26
BRANCH   6  28
ATOM     28  O   UNL     1      29.546  -4.680 -22.279  0.00  0.00    -0.377 OA
ATOM     29  H   UNL     1      29.083  -5.483 -22.563  0.00  0.00    +0.211 HD
ENDBRANCH   6  28
BRANCH   7  30
ATOM     30  O   UNL     1      30.718  -2.385 -23.757  0.00  0.00    -0.379 OA
ATOM     31  H   UNL     1      31.621  -2.086 -23.570  0.00  0.00    +0.211 HD
ENDBRANCH   7  30
BRANCH   3  32
ATOM     32  C   UNL     1      33.532  -5.721 -26.077  0.00  0.00    +0.169 C 
BRANCH  32  33
ATOM     33  O   UNL     1      33.100  -5.744 -27.425  0.00  0.00    -0.379 OA
ATOM     34  H   UNL     1      33.872  -5.785 -28.011  0.00  0.00    +0.211 HD
ENDBRANCH  32  33
ENDBRANCH   3  32
TORSDOF 10
ENDMDL
MODEL 5
REMARK VINA RESULT:     -10.5      1.393      2.539
REMARK  Name = 44814423
REMARK  10 active torsions:
REMARK  status: ('A' for Active; 'I' for Inactive)
REMARK    1  A    between atoms: C_3  and  C_32
REMARK    2  A    between atoms: C_4  and  C_10
REMARK    3  A    between atoms: C_5  and  O_26
REMARK    4  A    between atoms: C_6  and  O_28
REMARK    5  A    between atoms: C_7  and  O_30
REMARK    6  A    between atoms: C_13  and  C_16
REMARK    7  A    between atoms: C_16  and  C_17
REMARK    8  A    between atoms: C_22  and  O_23
REMARK    9  A    between atoms: O_23  and  C_24
REMARK   10  A    between atoms: C_32  and  O_33
REMARK                            x       y       z     vdW  Elec       q    Type
REMARK                         _______ _______ _______ _____ _____    ______ ____
ROOT
ATOM      1  O   UNL     1      35.800 -24.415 -13.228  0.00  0.00    -0.326 OA
ATOM      2  O   UNL     1      35.571 -25.413 -15.316  0.00  0.00    -0.326 OA
ATOM      3  C   UNL     1      36.863 -25.370 -13.365  0.00  0.00    +0.176 C 
ATOM      4  C   UNL     1      35.429 -24.165 -14.603  0.00  0.00    +0.235 C 
ATOM      5  C   UNL     1      38.112 -24.581 -13.826  0.00  0.00    +0.169 C 
ATOM      6  C   UNL     1      36.475 -23.182 -15.172  0.00  0.00    +0.196 C 
ATOM      7  C   UNL     1      37.873 -23.822 -15.140  0.00  0.00    +0.172 C 
ATOM      8  C   UNL     1      36.268 -26.291 -14.419  0.00  0.00    +0.177 C 
ENDROOT
BRANCH   4  10
ATOM      9 CL   UNL     1      29.787 -22.039 -14.753  0.00  0.00    -0.083 Cl
ATOM     10  C   UNL     1      34.013 -23.630 -14.650  0.00  0.00    +0.031 C 
ATOM     11  C   UNL     1      33.422 -23.325 -15.877  0.00  0.00    -0.003 C 
ATOM     12  C   UNL     1      33.299 -23.441 -13.467  0.00  0.00    +0.001 C 
ATOM     13  C   UNL     1      32.119 -22.833 -15.920  0.00  0.00    -0.007 C 
ATOM     14  C   UNL     1      31.994 -22.949 -13.510  0.00  0.00    +0.011 C 
ATOM     15  C   UNL     1      31.404 -22.645 -14.737  0.00  0.00    +0.054 C 
BRANCH  13  16
ATOM     16  C   UNL     1      31.521 -22.520 -17.255  0.00  0.00    +0.053 C 
BRANCH  16  17
ATOM     17  C   UNL     1      32.464 -21.795 -18.192  0.00  0.00    -0.018 C 
ATOM     18  C   UNL     1      33.827 -22.092 -18.178  0.00  0.00    -0.001 C 
ATOM     19  C   UNL     1      31.970 -20.829 -19.068  0.00  0.00    -0.001 C 
ATOM     20  C   UNL     1      34.696 -21.423 -19.041  0.00  0.00    +0.037 C 
ATOM     21  C   UNL     1      32.838 -20.160 -19.930  0.00  0.00    +0.037 C 
ATOM     22  C   UNL     1      34.201 -20.457 -19.917  0.00  0.00    +0.139 C 
BRANCH  22  23
ATOM     23  O   UNL     1      35.049 -19.805 -20.759  0.00  0.00    -0.475 OA
BRANCH  23  24
ATOM     24  C   UNL     1      34.592 -18.571 -21.313  0.00  0.00    +0.206 C 
ATOM     25  C   UNL     1      34.503 -18.709 -22.817  0.00  0.00    +0.051 C 
ENDBRANCH  23  24
ENDBRANCH  22  23
ENDBRANCH  16  17
ENDBRANCH  13  16
ENDBRANCH   4  10
BRANCH   5  26
ATOM     26  O   UNL     1      39.238 -25.441 -13.971  0.00  0.00    -0.379 OA
ATOM     27  H   UNL     1      39.832 -25.326 -13.213  0.00  0.00    +0.211 HD
ENDBRANCH   5  26
BRANCH   6  28
ATOM     28  O   UNL     1      36.154 -22.858 -16.524  0.00  0.00    -0.377 OA
ATOM     29  H   UNL     1      35.830 -21.945 -16.570  0.00  0.00    +0.211 HD
ENDBRANCH   6  28
BRANCH   7  30
ATOM     30  O   UNL     1      38.850 -22.790 -15.281  0.00  0.00    -0.379 OA
ATOM     31  H   UNL     1      38.448 -21.933 -15.071  0.00  0.00    +0.211 HD
ENDBRANCH   7  30
BRANCH   3  32
ATOM     32  C   UNL     1      37.096 -26.083 -12.040  0.00  0.00    +0.169 C 
BRANCH  32  33
ATOM     33  O   UNL     1      36.248 -25.510 -11.061  0.00  0.00    -0.379 OA
ATOM     34  H   UNL     1      35.575 -24.964 -11.498  0.00  0.00    +0.211 HD
ENDBRANCH  32  33
ENDBRANCH   3  32
TORSDOF 10
ENDMDL
MODEL 6
REMARK VINA RESULT:      -9.8     10.828     18.042
REMARK  Name = 44814423
REMARK  10 active torsions:
REMARK  status: ('A' for Active; 'I' for Inactive)
REMARK    1  A    between atoms: C_3  and  C_32
REMARK    2  A    between atoms: C_4  and  C_10
REMARK    3  A    between atoms: C_5  and  O_26
REMARK    4  A    between atoms: C_6  and  O_28
REMARK    5  A    between atoms: C_7  and  O_30
REMARK    6  A    between atoms: C_13  and  C_16
REMARK    7  A    between atoms: C_16  and  C_17
REMARK    8  A    between atoms: C_22  and  O_23
REMARK    9  A    between atoms: O_23  and  C_24
REMARK   10  A    between atoms: C_32  and  O_33
REMARK                            x       y       z     vdW  Elec       q    Type
REMARK                         _______ _______ _______ _____ _____    ______ ____
ROOT
ATOM      1  O   UNL     1      30.846  -5.269 -23.711  0.00  0.00    -0.326 OA
ATOM      2  O   UNL     1      32.976  -4.731 -22.948  0.00  0.00    -0.326 OA
ATOM      3  C   UNL     1      31.239  -4.053 -24.364  0.00  0.00    +0.176 C 
ATOM      4  C   UNL     1      32.117  -5.833 -23.313  0.00  0.00    +0.235 C 
ATOM      5  C   UNL     1      31.787  -4.452 -25.754  0.00  0.00    +0.169 C 
ATOM      6  C   UNL     1      32.720  -6.496 -24.571  0.00  0.00    +0.196 C 
ATOM      7  C   UNL     1      32.962  -5.439 -25.661  0.00  0.00    +0.172 C 
ATOM      8  C   UNL     1      32.291  -3.548 -23.387  0.00  0.00    +0.177 C 
ENDROOT
BRANCH   4  10
ATOM      9 CL   UNL     1      31.267  -9.664 -18.734  0.00  0.00    -0.083 Cl
ATOM     10  C   UNL     1      31.899  -6.801 -22.169  0.00  0.00    +0.031 C 
ATOM     11  C   UNL     1      31.335  -8.054 -22.413  0.00  0.00    -0.003 C 
ATOM     12  C   UNL     1      32.263  -6.440 -20.872  0.00  0.00    +0.001 C 
ATOM     13  C   UNL     1      31.135  -8.945 -21.360  0.00  0.00    -0.007 C 
ATOM     14  C   UNL     1      32.062  -7.332 -19.818  0.00  0.00    +0.011 C 
ATOM     15  C   UNL     1      31.498  -8.585 -20.062  0.00  0.00    +0.054 C 
BRANCH  13  16
ATOM     16  C   UNL     1      30.529 -10.278 -21.663  0.00  0.00    +0.053 C 
BRANCH  16  17
ATOM     17  C   UNL     1      31.539 -11.404 -21.746  0.00  0.00    -0.018 C 
ATOM     18  C   UNL     1      31.606 -12.357 -20.730  0.00  0.00    -0.001 C 
ATOM     19  C   UNL     1      32.403 -11.486 -22.838  0.00  0.00    -0.001 C 
ATOM     20  C   UNL     1      32.537 -13.394 -20.806  0.00  0.00    +0.037 C 
ATOM     21  C   UNL     1      33.333 -12.522 -22.915  0.00  0.00    +0.037 C 
ATOM     22  C   UNL     1      33.400 -13.476 -21.899  0.00  0.00    +0.139 C 
BRANCH  22  23
ATOM     23  O   UNL     1      34.307 -14.487 -21.974  0.00  0.00    -0.475 OA
BRANCH  23  24
ATOM     24  C   UNL     1      34.304 -15.276 -23.164  0.00  0.00    +0.206 C 
ATOM     25  C   UNL     1      34.682 -16.699 -22.814  0.00  0.00    +0.051 C 
ENDBRANCH  23  24
ENDBRANCH  22  23
ENDBRANCH  16  17
ENDBRANCH  13  16
ENDBRANCH   4  10
BRANCH   5  26
ATOM     26  O   UNL     1      32.187  -3.305 -26.498  0.00  0.00    -0.379 OA
ATOM     27  H   UNL     1      32.495  -2.616 -25.889  0.00  0.00    +0.211 HD
ENDBRANCH   5  26
BRANCH   6  28
ATOM     28  O   UNL     1      33.968  -7.108 -24.247  0.00  0.00    -0.377 OA
ATOM     29  H   UNL     1      33.874  -7.621 -23.430  0.00  0.00    +0.211 HD
ENDBRANCH   6  28
BRANCH   7  30
ATOM     30  O   UNL     1      33.127  -6.104 -26.914  0.00  0.00    -0.379 OA
ATOM     31  H   UNL     1      33.450  -5.473 -27.575  0.00  0.00    +0.211 HD
ENDBRANCH   7  30
BRANCH   3  32
ATOM     32  C   UNL     1      30.049  -3.109 -24.469  0.00  0.00    +0.169 C 
BRANCH  32  33
ATOM     33  O   UNL     1      29.967  -2.350 -23.276  0.00  0.00    -0.379 OA
ATOM     34  H   UNL     1      30.820  -1.919 -23.108  0.00  0.00    +0.211 HD
ENDBRANCH  32  33
ENDBRANCH   3  32
TORSDOF 10
ENDMDL
MODEL 7
REMARK VINA RESULT:      -9.5      2.815      5.497
REMARK  Name = 44814423
REMARK  10 active torsions:
REMARK  status: ('A' for Active; 'I' for Inactive)
REMARK    1  A    between atoms: C_3  and  C_32
REMARK    2  A    between atoms: C_4  and  C_10
REMARK    3  A    between atoms: C_5  and  O_26
REMARK    4  A    between atoms: C_6  and  O_28
REMARK    5  A    between atoms: C_7  and  O_30
REMARK    6  A    between atoms: C_13  and  C_16
REMARK    7  A    between atoms: C_16  and  C_17
REMARK    8  A    between atoms: C_22  and  O_23
REMARK    9  A    between atoms: O_23  and  C_24
REMARK   10  A    between atoms: C_32  and  O_33
REMARK                            x       y       z     vdW  Elec       q    Type
REMARK                         _______ _______ _______ _____ _____    ______ ____
ROOT
ATOM      1  O   UNL     1      36.835 -22.595 -13.245  0.00  0.00    -0.326 OA
ATOM      2  O   UNL     1      35.339 -24.282 -13.812  0.00  0.00    -0.326 OA
ATOM      3  C   UNL     1      36.565 -23.345 -12.052  0.00  0.00    +0.176 C 
ATOM      4  C   UNL     1      36.476 -23.530 -14.288  0.00  0.00    +0.235 C 
ATOM      5  C   UNL     1      37.722 -24.359 -11.893  0.00  0.00    +0.169 C 
ATOM      6  C   UNL     1      37.659 -24.512 -14.428  0.00  0.00    +0.196 C 
ATOM      7  C   UNL     1      37.863 -25.284 -13.113  0.00  0.00    +0.172 C 
ATOM      8  C   UNL     1      35.223 -23.963 -12.417  0.00  0.00    +0.177 C 
ENDROOT
BRANCH   4  10
ATOM      9 CL   UNL     1      35.305 -20.479 -19.356  0.00  0.00    -0.083 Cl
ATOM     10  C   UNL     1      36.174 -22.768 -15.562  0.00  0.00    +0.031 C 
ATOM     11  C   UNL     1      34.915 -22.872 -16.155  0.00  0.00    -0.003 C 
ATOM     12  C   UNL     1      37.153 -21.961 -16.142  0.00  0.00    +0.001 C 
ATOM     13  C   UNL     1      34.636 -22.170 -17.327  0.00  0.00    -0.007 C 
ATOM     14  C   UNL     1      36.874 -21.259 -17.314  0.00  0.00    +0.011 C 
ATOM     15  C   UNL     1      35.615 -21.364 -17.907  0.00  0.00    +0.054 C 
BRANCH  13  16
ATOM     16  C   UNL     1      33.275 -22.307 -17.930  0.00  0.00    +0.053 C 
BRANCH  16  17
ATOM     17  C   UNL     1      32.177 -22.541 -16.914  0.00  0.00    -0.018 C 
ATOM     18  C   UNL     1      32.455 -23.230 -15.732  0.00  0.00    -0.001 C 
ATOM     19  C   UNL     1      30.888 -22.069 -17.159  0.00  0.00    -0.001 C 
ATOM     20  C   UNL     1      31.443 -23.446 -14.797  0.00  0.00    +0.037 C 
ATOM     21  C   UNL     1      29.876 -22.285 -16.224  0.00  0.00    +0.037 C 
ATOM     22  C   UNL     1      30.154 -22.974 -15.043  0.00  0.00    +0.139 C 
BRANCH  22  23
ATOM     23  O   UNL     1      29.167 -23.184 -14.129  0.00  0.00    -0.475 OA
BRANCH  23  24
ATOM     24  C   UNL     1      29.205 -24.413 -13.404  0.00  0.00    +0.206 C 
ATOM     25  C   UNL     1      28.557 -25.498 -14.236  0.00  0.00    +0.051 C 
ENDBRANCH  23  24
ENDBRANCH  22  23
ENDBRANCH  16  17
ENDBRANCH  13  16
ENDBRANCH   4  10
BRANCH   5  26
ATOM     26  O   UNL     1      37.560 -25.145 -10.717  0.00  0.00    -0.379 OA
ATOM     27  H   UNL     1      36.668 -25.526 -10.703  0.00  0.00    +0.211 HD
ENDBRANCH   5  26
BRANCH   6  28
ATOM     28  O   UNL     1      37.391 -25.451 -15.469  0.00  0.00    -0.377 OA
ATOM     29  H   UNL     1      36.613 -25.164 -15.971  0.00  0.00    +0.211 HD
ENDBRANCH   6  28
BRANCH   7  30
ATOM     30  O   UNL     1      39.166 -25.867 -13.124  0.00  0.00    -0.379 OA
ATOM     31  H   UNL     1      39.569 -25.774 -12.246  0.00  0.00    +0.211 HD
ENDBRANCH   7  30
BRANCH   3  32
ATOM     32  C   UNL     1      36.462 -22.406 -10.858  0.00  0.00    +0.169 C 
BRANCH  32  33
ATOM     33  O   UNL     1      36.016 -23.147  -9.736  0.00  0.00    -0.379 OA
ATOM     34  H   UNL     1      35.262 -23.700  -9.994  0.00  0.00    +0.211 HD
ENDBRANCH  32  33
ENDBRANCH   3  32
TORSDOF 10
ENDMDL
MODEL 8
REMARK VINA RESULT:      -9.5      3.497      5.316
REMARK  Name = 44814423
REMARK  10 active torsions:
REMARK  status: ('A' for Active; 'I' for Inactive)
REMARK    1  A    between atoms: C_3  and  C_32
REMARK    2  A    between atoms: C_4  and  C_10
REMARK    3  A    between atoms: C_5  and  O_26
REMARK    4  A    between atoms: C_6  and  O_28
REMARK    5  A    between atoms: C_7  and  O_30
REMARK    6  A    between atoms: C_13  and  C_16
REMARK    7  A    between atoms: C_16  and  C_17
REMARK    8  A    between atoms: C_22  and  O_23
REMARK    9  A    between atoms: O_23  and  C_24
REMARK   10  A    between atoms: C_32  and  O_33
REMARK                            x       y       z     vdW  Elec       q    Type
REMARK                         _______ _______ _______ _____ _____    ______ ____
ROOT
ATOM      1  O   UNL     1      31.376 -24.078 -14.990  0.00  0.00    -0.326 OA
ATOM      2  O   UNL     1      30.986 -21.828 -14.554  0.00  0.00    -0.326 OA
ATOM      3  C   UNL     1      30.214 -24.001 -14.151  0.00  0.00    +0.176 C 
ATOM      4  C   UNL     1      31.430 -22.755 -15.569  0.00  0.00    +0.235 C 
ATOM      5  C   UNL     1      28.985 -24.082 -15.086  0.00  0.00    +0.169 C 
ATOM      6  C   UNL     1      30.391 -22.728 -16.711  0.00  0.00    +0.196 C 
ATOM      7  C   UNL     1      28.981 -22.970 -16.147  0.00  0.00    +0.172 C 
ATOM      8  C   UNL     1      30.434 -22.641 -13.506  0.00  0.00    +0.177 C 
ENDROOT
BRANCH   4  10
ATOM      9 CL   UNL     1      37.064 -21.610 -17.389  0.00  0.00    -0.083 Cl
ATOM     10  C   UNL     1      32.843 -22.469 -16.034  0.00  0.00    +0.031 C 
ATOM     11  C   UNL     1      33.133 -22.432 -17.399  0.00  0.00    -0.003 C 
ATOM     12  C   UNL     1      33.853 -22.241 -15.100  0.00  0.00    +0.001 C 
ATOM     13  C   UNL     1      34.433 -22.168 -17.828  0.00  0.00    -0.007 C 
ATOM     14  C   UNL     1      35.153 -21.978 -15.530  0.00  0.00    +0.011 C 
ATOM     15  C   UNL     1      35.444 -21.941 -16.894  0.00  0.00    +0.054 C 
BRANCH  13  16
ATOM     16  C   UNL     1      34.703 -22.136 -19.298  0.00  0.00    +0.053 C 
BRANCH  16  17
ATOM     17  C   UNL     1      34.777 -20.738 -19.876  0.00  0.00    -0.018 C 
ATOM     18  C   UNL     1      36.014 -20.110 -20.026  0.00  0.00    -0.001 C 
ATOM     19  C   UNL     1      33.609 -20.079 -20.258  0.00  0.00    -0.001 C 
ATOM     20  C   UNL     1      36.082 -18.822 -20.557  0.00  0.00    +0.037 C 
ATOM     21  C   UNL     1      33.676 -18.792 -20.789  0.00  0.00    +0.037 C 
ATOM     22  C   UNL     1      34.913 -18.163 -20.939  0.00  0.00    +0.139 C 
BRANCH  22  23
ATOM     23  O   UNL     1      34.979 -16.907 -21.458  0.00  0.00    -0.475 OA
BRANCH  23  24
ATOM     24  C   UNL     1      34.615 -16.751 -22.829  0.00  0.00    +0.206 C 
ATOM     25  C   UNL     1      34.323 -15.291 -23.099  0.00  0.00    +0.051 C 
ENDBRANCH  23  24
ENDBRANCH  22  23
ENDBRANCH  16  17
ENDBRANCH  13  16
ENDBRANCH   4  10
BRANCH   5  26
ATOM     26  O   UNL     1      27.770 -24.036 -14.344  0.00  0.00    -0.379 OA
ATOM     27  H   UNL     1      27.953 -23.728 -13.442  0.00  0.00    +0.211 HD
ENDBRANCH   5  26
BRANCH   6  28
ATOM     28  O   UNL     1      30.410 -21.455 -17.356  0.00  0.00    -0.377 OA
ATOM     29  H   UNL     1      31.317 -21.241 -17.622  0.00  0.00    +0.211 HD
ENDBRANCH   6  28
BRANCH   7  30
ATOM     30  O   UNL     1      28.116 -23.339 -17.222  0.00  0.00    -0.379 OA
ATOM     31  H   UNL     1      28.128 -24.302 -17.331  0.00  0.00    +0.211 HD
ENDBRANCH   7  30
BRANCH   3  32
ATOM     32  C   UNL     1      30.232 -25.132 -13.132  0.00  0.00    +0.169 C 
BRANCH  32  33
ATOM     33  O   UNL     1      29.741 -24.638 -11.898  0.00  0.00    -0.379 OA
ATOM     34  H   UNL     1      30.485 -24.469 -11.299  0.00  0.00    +0.211 HD
ENDBRANCH  32  33
ENDBRANCH   3  32
TORSDOF 10
ENDMDL
MODEL 9
REMARK VINA RESULT:      -9.2      2.611      5.207
REMARK  Name = 44814423
REMARK  10 active torsions:
REMARK  status: ('A' for Active; 'I' for Inactive)
REMARK    1  A    between atoms: C_3  and  C_32
REMARK    2  A    between atoms: C_4  and  C_10
REMARK    3  A    between atoms: C_5  and  O_26
REMARK    4  A    between atoms: C_6  and  O_28
REMARK    5  A    between atoms: C_7  and  O_30
REMARK    6  A    between atoms: C_13  and  C_16
REMARK    7  A    between atoms: C_16  and  C_17
REMARK    8  A    between atoms: C_22  and  O_23
REMARK    9  A    between atoms: O_23  and  C_24
REMARK   10  A    between atoms: C_32  and  O_33
REMARK                            x       y       z     vdW  Elec       q    Type
REMARK                         _______ _______ _______ _____ _____    ______ ____
ROOT
ATOM      1  O   UNL     1      36.133 -24.625 -14.881  0.00  0.00    -0.326 OA
ATOM      2  O   UNL     1      38.103 -23.391 -14.928  0.00  0.00    -0.326 OA
ATOM      3  C   UNL     1      37.093 -25.322 -14.075  0.00  0.00    +0.176 C 
ATOM      4  C   UNL     1      36.663 -23.280 -14.903  0.00  0.00    +0.235 C 
ATOM      5  C   UNL     1      36.818 -24.917 -12.607  0.00  0.00    +0.169 C 
ATOM      6  C   UNL     1      36.270 -22.627 -13.560  0.00  0.00    +0.196 C 
ATOM      7  C   UNL     1      36.908 -23.398 -12.392  0.00  0.00    +0.172 C 
ATOM      8  C   UNL     1      38.387 -24.771 -14.654  0.00  0.00    +0.177 C 
ENDROOT
BRANCH   4  10
ATOM      9 CL   UNL     1      34.525 -20.338 -19.713  0.00  0.00    -0.083 Cl
ATOM     10  C   UNL     1      36.118 -22.545 -16.110  0.00  0.00    +0.031 C 
ATOM     11  C   UNL     1      34.781 -22.703 -16.478  0.00  0.00    -0.003 C 
ATOM     12  C   UNL     1      36.952 -21.712 -16.855  0.00  0.00    +0.001 C 
ATOM     13  C   UNL     1      34.279 -22.027 -17.589  0.00  0.00    -0.007 C 
ATOM     14  C   UNL     1      36.450 -21.035 -17.966  0.00  0.00    +0.011 C 
ATOM     15  C   UNL     1      35.113 -21.193 -18.333  0.00  0.00    +0.054 C 
BRANCH  13  16
ATOM     16  C   UNL     1      32.841 -22.221 -17.948  0.00  0.00    +0.053 C 
BRANCH  16  17
ATOM     17  C   UNL     1      31.946 -22.499 -16.759  0.00  0.00    -0.018 C 
ATOM     18  C   UNL     1      30.580 -22.227 -16.835  0.00  0.00    -0.001 C 
ATOM     19  C   UNL     1      32.487 -23.027 -15.587  0.00  0.00    -0.001 C 
ATOM     20  C   UNL     1      29.755 -22.483 -15.739  0.00  0.00    +0.037 C 
ATOM     21  C   UNL     1      31.664 -23.283 -14.491  0.00  0.00    +0.037 C 
ATOM     22  C   UNL     1      30.298 -23.011 -14.567  0.00  0.00    +0.139 C 
BRANCH  22  23
ATOM     23  O   UNL     1      29.493 -23.261 -13.498  0.00  0.00    -0.475 OA
BRANCH  23  24
ATOM     24  C   UNL     1      29.361 -24.622 -13.090  0.00  0.00    +0.206 C 
ATOM     25  C   UNL     1      28.782 -25.427 -14.234  0.00  0.00    +0.051 C 
ENDBRANCH  23  24
ENDBRANCH  22  23
ENDBRANCH  16  17
ENDBRANCH  13  16
ENDBRANCH   4  10
BRANCH   5  26
ATOM     26  O   UNL     1      37.711 -25.578 -11.715  0.00  0.00    -0.379 OA
ATOM     27  H   UNL     1      38.621 -25.474 -12.033  0.00  0.00    +0.211 HD
ENDBRANCH   5  26
BRANCH   6  28
ATOM     28  O   UNL     1      36.732 -21.278 -13.520  0.00  0.00    -0.377 OA
ATOM     29  H   UNL     1      37.656 -21.244 -13.812  0.00  0.00    +0.211 HD
ENDBRANCH   6  28
BRANCH   7  30
ATOM     30  O   UNL     1      36.228 -23.046 -11.186  0.00  0.00    -0.379 OA
ATOM     31  H   UNL     1      36.876 -22.897 -10.481  0.00  0.00    +0.211 HD
ENDBRANCH   7  30
BRANCH   3  32
ATOM     32  C   UNL     1      36.959 -26.824 -14.287  0.00  0.00    +0.169 C 
BRANCH  32  33
ATOM     33  O   UNL     1      36.426 -27.053 -15.579  0.00  0.00    -0.379 OA
ATOM     34  H   UNL     1      36.949 -26.565 -16.235  0.00  0.00    +0.211 HD
ENDBRANCH  32  33
ENDBRANCH   3  32
TORSDOF 10
ENDMDL
