MODEL 1
REMARK VINA RESULT:     -10.9      0.000      0.000
REMARK  Name = 6102822
REMARK  5 active torsions:
REMARK  status: ('A' for Active; 'I' for Inactive)
REMARK    1  A    between atoms: N_2  and  S_21
REMARK    2  A    between atoms: C_4  and  C_12
REMARK    3  A    between atoms: C_10  and  O_32
REMARK    4  A    between atoms: C_15  and  N_18
REMARK    5  A    between atoms: S_21  and  C_26
REMARK                            x       y       z     vdW  Elec       q    Type
REMARK                         _______ _______ _______ _____ _____    ______ ____
ROOT
ATOM      1  O   UNL     1      34.034 -22.414 -16.068  0.00  0.00    -0.413 OA
ATOM      2  N   UNL     1      35.319 -21.374 -17.904  0.00  0.00    -0.158 N 
ATOM      3  N   UNL     1      36.296 -22.539 -16.011  0.00  0.00    -0.354 NA
ATOM      4  C   UNL     1      33.545 -23.637 -13.978  0.00  0.00    +0.040 C 
ATOM      5  C   UNL     1      34.389 -23.098 -14.941  0.00  0.00    +0.175 C 
ATOM      6  C   UNL     1      35.774 -23.173 -14.910  0.00  0.00    +0.156 C 
ATOM      7  C   UNL     1      34.178 -24.293 -12.918  0.00  0.00    +0.036 C 
ATOM      8  C   UNL     1      35.229 -22.115 -16.651  0.00  0.00    +0.364 C 
ATOM      9  C   UNL     1      36.393 -23.836 -13.840  0.00  0.00    +0.126 C 
ATOM     10  C   UNL     1      35.573 -24.392 -12.847  0.00  0.00    +0.123 C 
ATOM     11  H   UNL     1      36.044 -20.725 -18.059  0.00  0.00    +0.179 HD
ENDROOT
BRANCH   4  12
ATOM     12  C   UNL     1      32.114 -23.517 -14.079  0.00  0.00    +0.004 C 
ATOM     13  C   UNL     1      31.301 -24.646 -13.943  0.00  0.00    +0.014 C 
ATOM     14  C   UNL     1      31.527 -22.271 -14.317  0.00  0.00    +0.000 C 
ATOM     15  C   UNL     1      29.915 -24.530 -14.041  0.00  0.00    +0.042 C 
ATOM     16  C   UNL     1      30.140 -22.154 -14.415  0.00  0.00    +0.001 C 
ATOM     17  C   UNL     1      29.334 -23.284 -14.277  0.00  0.00    +0.014 C 
BRANCH  15  18
ATOM     18  N   UNL     1      29.099 -25.672 -13.902  0.00  0.00    -0.357 N 
ATOM     19  H   UNL     1      29.460 -26.486 -13.483  0.00  0.00    +0.142 HD
ATOM     20  H   UNL     1      28.169 -25.656 -14.223  0.00  0.00    +0.142 HD
ENDBRANCH  15  18
ENDBRANCH   4  12
BRANCH   2  21
ATOM     21  S   UNL     1      34.130 -21.669 -19.094  0.00  0.00    +0.078 S 
ATOM     22  O   UNL     1      34.501 -22.873 -19.814  0.00  0.00    -0.150 OA
ATOM     23  O   UNL     1      32.801 -21.552 -18.526  0.00  0.00    -0.150 OA
BRANCH  21  26
ATOM     24 CL   UNL     1      31.664 -20.246 -20.628  0.00  0.00    -0.081 Cl
ATOM     25 CL   UNL     1      37.497 -18.232 -21.532  0.00  0.00    -0.082 Cl
ATOM     26  C   UNL     1      34.363 -20.313 -20.207  0.00  0.00    +0.137 C 
ATOM     27  C   UNL     1      33.292 -19.718 -20.854  0.00  0.00    +0.077 C 
ATOM     28  C   UNL     1      35.662 -19.867 -20.406  0.00  0.00    +0.032 C 
ATOM     29  C   UNL     1      35.893 -18.800 -21.274  0.00  0.00    +0.059 C 
ATOM     30  C   UNL     1      33.524 -18.651 -21.722  0.00  0.00    +0.014 C 
ATOM     31  C   UNL     1      34.824 -18.192 -21.932  0.00  0.00    +0.012 C 
ENDBRANCH  21  26
ENDBRANCH   2  21
BRANCH  10  32
ATOM     32  O   UNL     1      36.148 -25.044 -11.795  0.00  0.00    -0.475 OA
ATOM     33  C   UNL     1      37.452 -25.581 -12.002  0.00  0.00    +0.252 C 
ENDBRANCH  10  32
TORSDOF 5
ENDMDL
MODEL 2
REMARK VINA RESULT:     -10.3      1.492      2.137
REMARK  Name = 6102822
REMARK  5 active torsions:
REMARK  status: ('A' for Active; 'I' for Inactive)
REMARK    1  A    between atoms: N_2  and  S_21
REMARK    2  A    between atoms: C_4  and  C_12
REMARK    3  A    between atoms: C_10  and  O_32
REMARK    4  A    between atoms: C_15  and  N_18
REMARK    5  A    between atoms: S_21  and  C_26
REMARK                            x       y       z     vdW  Elec       q    Type
REMARK                         _______ _______ _______ _____ _____    ______ ____
ROOT
ATOM      1  O   UNL     1      34.467 -22.128 -16.492  0.00  0.00    -0.413 OA
ATOM      2  N   UNL     1      35.616 -20.803 -18.231  0.00  0.00    -0.158 N 
ATOM      3  N   UNL     1      36.732 -22.046 -16.469  0.00  0.00    -0.354 NA
ATOM      4  C   UNL     1      34.132 -23.585 -14.524  0.00  0.00    +0.040 C 
ATOM      5  C   UNL     1      34.905 -22.881 -15.439  0.00  0.00    +0.175 C 
ATOM      6  C   UNL     1      36.291 -22.828 -15.429  0.00  0.00    +0.156 C 
ATOM      7  C   UNL     1      34.843 -24.278 -13.539  0.00  0.00    +0.036 C 
ATOM      8  C   UNL     1      35.617 -21.665 -17.054  0.00  0.00    +0.364 C 
ATOM      9  C   UNL     1      36.988 -23.529 -14.434  0.00  0.00    +0.126 C 
ATOM     10  C   UNL     1      36.242 -24.252 -13.492  0.00  0.00    +0.123 C 
ATOM     11  H   UNL     1      36.274 -20.077 -18.330  0.00  0.00    +0.179 HD
ENDROOT
BRANCH   4  12
ATOM     12  C   UNL     1      32.694 -23.591 -14.600  0.00  0.00    +0.004 C 
ATOM     13  C   UNL     1      32.040 -22.903 -15.627  0.00  0.00    +0.014 C 
ATOM     14  C   UNL     1      31.942 -24.282 -13.646  0.00  0.00    +0.000 C 
ATOM     15  C   UNL     1      30.647 -22.909 -15.700  0.00  0.00    +0.042 C 
ATOM     16  C   UNL     1      30.549 -24.288 -13.719  0.00  0.00    +0.001 C 
ATOM     17  C   UNL     1      29.902 -23.601 -14.747  0.00  0.00    +0.014 C 
BRANCH  15  18
ATOM     18  N   UNL     1      29.993 -22.215 -16.739  0.00  0.00    -0.357 N 
ATOM     19  H   UNL     1      29.014 -22.267 -16.825  0.00  0.00    +0.142 HD
ATOM     20  H   UNL     1      30.515 -21.678 -17.378  0.00  0.00    +0.142 HD
ENDBRANCH  15  18
ENDBRANCH   4  12
BRANCH   2  21
ATOM     21  S   UNL     1      34.437 -21.094 -19.432  0.00  0.00    +0.078 S 
ATOM     22  O   UNL     1      34.729 -22.372 -20.052  0.00  0.00    -0.150 OA
ATOM     23  O   UNL     1      33.108 -20.832 -18.914  0.00  0.00    -0.150 OA
BRANCH  21  26
ATOM     24 CL   UNL     1      36.946 -19.076 -19.120  0.00  0.00    -0.081 Cl
ATOM     25 CL   UNL     1      33.190 -18.662 -24.083  0.00  0.00    -0.082 Cl
ATOM     26  C   UNL     1      34.804 -19.845 -20.632  0.00  0.00    +0.137 C 
ATOM     27  C   UNL     1      35.883 -18.992 -20.479  0.00  0.00    +0.077 C 
ATOM     28  C   UNL     1      33.966 -19.756 -21.735  0.00  0.00    +0.032 C 
ATOM     29  C   UNL     1      34.217 -18.788 -22.707  0.00  0.00    +0.059 C 
ATOM     30  C   UNL     1      36.133 -18.023 -21.451  0.00  0.00    +0.014 C 
ATOM     31  C   UNL     1      35.300 -17.921 -22.565  0.00  0.00    +0.012 C 
ENDBRANCH  21  26
ENDBRANCH   2  21
BRANCH  10  32
ATOM     32  O   UNL     1      36.894 -24.943 -12.513  0.00  0.00    -0.475 OA
ATOM     33  C   UNL     1      38.192 -25.440 -12.828  0.00  0.00    +0.252 C 
ENDBRANCH  10  32
TORSDOF 5
ENDMDL
MODEL 3
REMARK VINA RESULT:     -10.2      2.949      5.159
REMARK  Name = 6102822
REMARK  5 active torsions:
REMARK  status: ('A' for Active; 'I' for Inactive)
REMARK    1  A    between atoms: N_2  and  S_21
REMARK    2  A    between atoms: C_4  and  C_12
REMARK    3  A    between atoms: C_10  and  O_32
REMARK    4  A    between atoms: C_15  and  N_18
REMARK    5  A    between atoms: S_21  and  C_26
REMARK                            x       y       z     vdW  Elec       q    Type
REMARK                         _______ _______ _______ _____ _____    ______ ____
ROOT
ATOM      1  O   UNL     1      34.319 -21.407 -18.631  0.00  0.00    -0.413 OA
ATOM      2  N   UNL     1      33.910 -20.343 -20.823  0.00  0.00    -0.158 N 
ATOM      3  N   UNL     1      32.176 -21.131 -19.317  0.00  0.00    -0.354 NA
ATOM      4  C   UNL     1      33.871 -22.486 -16.454  0.00  0.00    +0.040 C 
ATOM      5  C   UNL     1      33.498 -21.906 -17.660  0.00  0.00    +0.175 C 
ATOM      6  C   UNL     1      32.188 -21.734 -18.084  0.00  0.00    +0.156 C 
ATOM      7  C   UNL     1      32.820 -22.915 -15.638  0.00  0.00    +0.036 C 
ATOM      8  C   UNL     1      33.453 -20.964 -19.585  0.00  0.00    +0.364 C 
ATOM      9  C   UNL     1      31.146 -22.170 -17.253  0.00  0.00    +0.126 C 
ATOM     10  C   UNL     1      31.483 -22.761 -16.027  0.00  0.00    +0.123 C 
ATOM     11  H   UNL     1      33.440 -20.501 -21.674  0.00  0.00    +0.179 HD
ENDROOT
BRANCH   4  12
ATOM     12  C   UNL     1      35.256 -22.630 -16.085  0.00  0.00    +0.004 C 
ATOM     13  C   UNL     1      35.651 -23.658 -15.224  0.00  0.00    +0.014 C 
ATOM     14  C   UNL     1      36.213 -21.742 -16.583  0.00  0.00    +0.000 C 
ATOM     15  C   UNL     1      36.993 -23.798 -14.866  0.00  0.00    +0.042 C 
ATOM     16  C   UNL     1      37.554 -21.881 -16.225  0.00  0.00    +0.001 C 
ATOM     17  C   UNL     1      37.944 -22.909 -15.367  0.00  0.00    +0.014 C 
BRANCH  15  18
ATOM     18  N   UNL     1      37.387 -24.837 -13.998  0.00  0.00    -0.357 N 
ATOM     19  H   UNL     1      38.300 -25.198 -14.046  0.00  0.00    +0.142 HD
ATOM     20  H   UNL     1      36.748 -25.201 -13.344  0.00  0.00    +0.142 HD
ENDBRANCH  15  18
ENDBRANCH   4  12
BRANCH   2  21
ATOM     21  S   UNL     1      35.287 -19.335 -20.751  0.00  0.00    +0.078 S 
ATOM     22  O   UNL     1      35.457 -18.902 -19.377  0.00  0.00    -0.150 OA
ATOM     23  O   UNL     1      36.399 -19.941 -21.457  0.00  0.00    -0.150 OA
BRANCH  21  26
ATOM     24 CL   UNL     1      34.604 -19.484 -23.909  0.00  0.00    -0.081 Cl
ATOM     25 CL   UNL     1      34.111 -14.072 -20.849  0.00  0.00    -0.082 Cl
ATOM     26  C   UNL     1      34.768 -17.918 -21.675  0.00  0.00    +0.137 C 
ATOM     27  C   UNL     1      34.480 -18.004 -23.028  0.00  0.00    +0.077 C 
ATOM     28  C   UNL     1      34.659 -16.716 -20.991  0.00  0.00    +0.032 C 
ATOM     29  C   UNL     1      34.253 -15.573 -21.680  0.00  0.00    +0.059 C 
ATOM     30  C   UNL     1      34.075 -16.861 -23.715  0.00  0.00    +0.014 C 
ATOM     31  C   UNL     1      33.961 -15.644 -23.042  0.00  0.00    +0.012 C 
ENDBRANCH  21  26
ENDBRANCH   2  21
BRANCH  10  32
ATOM     32  O   UNL     1      30.489 -23.193 -15.198  0.00  0.00    -0.475 OA
ATOM     33  C   UNL     1      29.166 -22.754 -15.493  0.00  0.00    +0.252 C 
ENDBRANCH  10  32
TORSDOF 5
ENDMDL
MODEL 4
REMARK VINA RESULT:      -9.7      2.485      4.559
REMARK  Name = 6102822
REMARK  5 active torsions:
REMARK  status: ('A' for Active; 'I' for Inactive)
REMARK    1  A    between atoms: N_2  and  S_21
REMARK    2  A    between atoms: C_4  and  C_12
REMARK    3  A    between atoms: C_10  and  O_32
REMARK    4  A    between atoms: C_15  and  N_18
REMARK    5  A    between atoms: S_21  and  C_26
REMARK                            x       y       z     vdW  Elec       q    Type
REMARK                         _______ _______ _______ _____ _____    ______ ____
ROOT
ATOM      1  O   UNL     1      33.972 -22.505 -17.639  0.00  0.00    -0.413 OA
ATOM      2  N   UNL     1      33.650 -21.541 -19.891  0.00  0.00    -0.158 N 
ATOM      3  N   UNL     1      31.896 -21.816 -18.234  0.00  0.00    -0.354 NA
ATOM      4  C   UNL     1      33.456 -23.299 -15.357  0.00  0.00    +0.040 C 
ATOM      5  C   UNL     1      33.133 -22.740 -16.587  0.00  0.00    +0.175 C 
ATOM      6  C   UNL     1      31.864 -22.317 -16.955  0.00  0.00    +0.156 C 
ATOM      7  C   UNL     1      32.396 -23.426 -14.454  0.00  0.00    +0.036 C 
ATOM      8  C   UNL     1      33.157 -21.954 -18.582  0.00  0.00    +0.364 C 
ATOM      9  C   UNL     1      30.812 -22.451 -16.037  0.00  0.00    +0.126 C 
ATOM     10  C   UNL     1      31.099 -23.011 -14.784  0.00  0.00    +0.123 C 
ATOM     11  H   UNL     1      33.098 -21.652 -20.699  0.00  0.00    +0.179 HD
ENDROOT
BRANCH   4  12
ATOM     12  C   UNL     1      34.799 -23.716 -15.049  0.00  0.00    +0.004 C 
ATOM     13  C   UNL     1      35.051 -25.025 -14.628  0.00  0.00    +0.014 C 
ATOM     14  C   UNL     1      35.860 -22.814 -15.167  0.00  0.00    +0.000 C 
ATOM     15  C   UNL     1      36.353 -25.429 -14.330  0.00  0.00    +0.042 C 
ATOM     16  C   UNL     1      37.162 -23.217 -14.869  0.00  0.00    +0.001 C 
ATOM     17  C   UNL     1      37.408 -24.525 -14.450  0.00  0.00    +0.014 C 
BRANCH  15  18
ATOM     18  N   UNL     1      36.602 -26.751 -13.907  0.00  0.00    -0.357 N 
ATOM     19  H   UNL     1      37.175 -27.340 -14.446  0.00  0.00    +0.142 HD
ATOM     20  H   UNL     1      36.202 -27.084 -13.071  0.00  0.00    +0.142 HD
ENDBRANCH  15  18
ENDBRANCH   4  12
BRANCH   2  21
ATOM     21  S   UNL     1      35.212 -20.856 -19.977  0.00  0.00    +0.078 S 
ATOM     22  O   UNL     1      35.502 -20.230 -18.701  0.00  0.00    -0.150 OA
ATOM     23  O   UNL     1      36.152 -21.805 -20.542  0.00  0.00    -0.150 OA
BRANCH  21  26
ATOM     24 CL   UNL     1      37.002 -18.163 -19.930  0.00  0.00    -0.081 Cl
ATOM     25 CL   UNL     1      32.579 -18.911 -24.263  0.00  0.00    -0.082 Cl
ATOM     26  C   UNL     1      34.990 -19.551 -21.151  0.00  0.00    +0.137 C 
ATOM     27  C   UNL     1      35.768 -18.406 -21.113  0.00  0.00    +0.077 C 
ATOM     28  C   UNL     1      34.005 -19.721 -22.114  0.00  0.00    +0.032 C 
ATOM     29  C   UNL     1      33.795 -18.718 -23.060  0.00  0.00    +0.059 C 
ATOM     30  C   UNL     1      35.557 -17.403 -22.059  0.00  0.00    +0.014 C 
ATOM     31  C   UNL     1      34.570 -17.559 -23.033  0.00  0.00    +0.012 C 
ENDBRANCH  21  26
ENDBRANCH   2  21
BRANCH  10  32
ATOM     32  O   UNL     1      30.096 -23.153 -13.870  0.00  0.00    -0.475 OA
ATOM     33  C   UNL     1      30.053 -24.376 -13.141  0.00  0.00    +0.252 C 
ENDBRANCH  10  32
TORSDOF 5
ENDMDL
MODEL 5
REMARK VINA RESULT:      -9.5      1.958      4.263
REMARK  Name = 6102822
REMARK  5 active torsions:
REMARK  status: ('A' for Active; 'I' for Inactive)
REMARK    1  A    between atoms: N_2  and  S_21
REMARK    2  A    between atoms: C_4  and  C_12
REMARK    3  A    between atoms: C_10  and  O_32
REMARK    4  A    between atoms: C_15  and  N_18
REMARK    5  A    between atoms: S_21  and  C_26
REMARK                            x       y       z     vdW  Elec       q    Type
REMARK                         _______ _______ _______ _____ _____    ______ ____
ROOT
ATOM      1  O   UNL     1      34.342 -23.032 -16.209  0.00  0.00    -0.413 OA
ATOM      2  N   UNL     1      33.967 -22.244 -18.520  0.00  0.00    -0.158 N 
ATOM      3  N   UNL     1      32.209 -22.742 -16.920  0.00  0.00    -0.354 NA
ATOM      4  C   UNL     1      33.861 -23.795 -13.908  0.00  0.00    +0.040 C 
ATOM      5  C   UNL     1      33.506 -23.359 -15.179  0.00  0.00    +0.175 C 
ATOM      6  C   UNL     1      32.202 -23.180 -15.618  0.00  0.00    +0.156 C 
ATOM      7  C   UNL     1      32.797 -24.061 -13.041  0.00  0.00    +0.036 C 
ATOM      8  C   UNL     1      33.490 -22.675 -17.210  0.00  0.00    +0.364 C 
ATOM      9  C   UNL     1      31.147 -23.451 -14.735  0.00  0.00    +0.126 C 
ATOM     10  C   UNL     1      31.466 -23.894 -13.443  0.00  0.00    +0.123 C 
ATOM     11  H   UNL     1      33.481 -22.488 -19.342  0.00  0.00    +0.179 HD
ENDROOT
BRANCH   4  12
ATOM     12  C   UNL     1      35.240 -23.958 -13.526  0.00  0.00    +0.004 C 
ATOM     13  C   UNL     1      35.958 -25.082 -13.944  0.00  0.00    +0.014 C 
ATOM     14  C   UNL     1      35.868 -22.994 -12.733  0.00  0.00    +0.000 C 
ATOM     15  C   UNL     1      37.294 -25.239 -13.575  0.00  0.00    +0.042 C 
ATOM     16  C   UNL     1      37.204 -23.151 -12.363  0.00  0.00    +0.001 C 
ATOM     17  C   UNL     1      37.917 -24.274 -12.784  0.00  0.00    +0.014 C 
BRANCH  15  18
ATOM     18  N   UNL     1      38.015 -26.374 -14.000  0.00  0.00    -0.357 N 
ATOM     19  H   UNL     1      38.983 -26.433 -13.833  0.00  0.00    +0.142 HD
ATOM     20  H   UNL     1      37.550 -27.107 -14.465  0.00  0.00    +0.142 HD
ENDBRANCH  15  18
ENDBRANCH   4  12
BRANCH   2  21
ATOM     21  S   UNL     1      35.391 -21.305 -18.583  0.00  0.00    +0.078 S 
ATOM     22  O   UNL     1      35.469 -20.522 -17.364  0.00  0.00    -0.150 OA
ATOM     23  O   UNL     1      36.520 -22.119 -18.987  0.00  0.00    -0.150 OA
BRANCH  21  26
ATOM     24 CL   UNL     1      32.378 -20.697 -19.588  0.00  0.00    -0.081 Cl
ATOM     25 CL   UNL     1      37.219 -17.846 -22.296  0.00  0.00    -0.082 Cl
ATOM     26  C   UNL     1      35.042 -20.174 -19.898  0.00  0.00    +0.137 C 
ATOM     27  C   UNL     1      33.743 -19.929 -20.314  0.00  0.00    +0.077 C 
ATOM     28  C   UNL     1      36.121 -19.541 -20.499  0.00  0.00    +0.032 C 
ATOM     29  C   UNL     1      35.893 -18.642 -21.540  0.00  0.00    +0.059 C 
ATOM     30  C   UNL     1      33.516 -19.029 -21.355  0.00  0.00    +0.014 C 
ATOM     31  C   UNL     1      34.591 -18.385 -21.968  0.00  0.00    +0.012 C 
ENDBRANCH  21  26
ENDBRANCH   2  21
BRANCH  10  32
ATOM     32  O   UNL     1      30.459 -24.164 -12.563  0.00  0.00    -0.475 OA
ATOM     33  C   UNL     1      29.216 -24.592 -13.114  0.00  0.00    +0.252 C 
ENDBRANCH  10  32
TORSDOF 5
ENDMDL
MODEL 6
REMARK VINA RESULT:      -9.4      3.542      6.805
REMARK  Name = 6102822
REMARK  5 active torsions:
REMARK  status: ('A' for Active; 'I' for Inactive)
REMARK    1  A    between atoms: N_2  and  S_21
REMARK    2  A    between atoms: C_4  and  C_12
REMARK    3  A    between atoms: C_10  and  O_32
REMARK    4  A    between atoms: C_15  and  N_18
REMARK    5  A    between atoms: S_21  and  C_26
REMARK                            x       y       z     vdW  Elec       q    Type
REMARK                         _______ _______ _______ _____ _____    ______ ____
ROOT
ATOM      1  O   UNL     1      33.400 -23.561 -15.007  0.00  0.00    -0.413 OA
ATOM      2  N   UNL     1      34.655 -24.709 -13.215  0.00  0.00    -0.158 N 
ATOM      3  N   UNL     1      32.304 -24.112 -13.101  0.00  0.00    -0.354 NA
ATOM      4  C   UNL     1      31.524 -22.503 -16.217  0.00  0.00    +0.040 C 
ATOM      5  C   UNL     1      32.104 -23.148 -15.132  0.00  0.00    +0.175 C 
ATOM      6  C   UNL     1      31.437 -23.487 -13.964  0.00  0.00    +0.156 C 
ATOM      7  C   UNL     1      30.167 -22.191 -16.080  0.00  0.00    +0.036 C 
ATOM      8  C   UNL     1      33.438 -24.125 -13.768  0.00  0.00    +0.364 C 
ATOM      9  C   UNL     1      30.077 -23.167 -13.843  0.00  0.00    +0.126 C 
ATOM     10  C   UNL     1      29.456 -22.515 -14.918  0.00  0.00    +0.123 C 
ATOM     11  H   UNL     1      34.868 -24.627 -12.257  0.00  0.00    +0.179 HD
ENDROOT
BRANCH   4  12
ATOM     12  C   UNL     1      32.284 -22.183 -17.397  0.00  0.00    +0.004 C 
ATOM     13  C   UNL     1      31.763 -21.306 -18.354  0.00  0.00    +0.014 C 
ATOM     14  C   UNL     1      33.547 -22.747 -17.595  0.00  0.00    +0.000 C 
ATOM     15  C   UNL     1      32.499 -20.996 -19.497  0.00  0.00    +0.042 C 
ATOM     16  C   UNL     1      34.284 -22.438 -18.738  0.00  0.00    +0.001 C 
ATOM     17  C   UNL     1      33.760 -21.561 -19.690  0.00  0.00    +0.014 C 
BRANCH  15  18
ATOM     18  N   UNL     1      31.970 -20.110 -20.459  0.00  0.00    -0.357 N 
ATOM     19  H   UNL     1      30.998 -19.979 -20.524  0.00  0.00    +0.142 HD
ATOM     20  H   UNL     1      32.574 -19.624 -21.065  0.00  0.00    +0.142 HD
ENDBRANCH  15  18
ENDBRANCH   4  12
BRANCH   2  21
ATOM     21  S   UNL     1      35.699 -25.539 -14.282  0.00  0.00    +0.078 S 
ATOM     22  O   UNL     1      36.476 -26.487 -13.507  0.00  0.00    -0.150 OA
ATOM     23  O   UNL     1      34.973 -25.992 -15.454  0.00  0.00    -0.150 OA
BRANCH  21  26
ATOM     24 CL   UNL     1      38.901 -25.767 -13.887  0.00  0.00    -0.081 Cl
ATOM     25 CL   UNL     1      36.425 -20.697 -16.544  0.00  0.00    -0.082 Cl
ATOM     26  C   UNL     1      36.810 -24.261 -14.796  0.00  0.00    +0.137 C 
ATOM     27  C   UNL     1      38.178 -24.379 -14.617  0.00  0.00    +0.077 C 
ATOM     28  C   UNL     1      36.256 -23.134 -15.387  0.00  0.00    +0.032 C 
ATOM     29  C   UNL     1      37.094 -22.102 -15.808  0.00  0.00    +0.059 C 
ATOM     30  C   UNL     1      39.016 -23.346 -15.038  0.00  0.00    +0.014 C 
ATOM     31  C   UNL     1      38.473 -22.207 -15.634  0.00  0.00    +0.012 C 
ENDBRANCH  21  26
ENDBRANCH   2  21
BRANCH  10  32
ATOM     32  O   UNL     1      28.133 -22.193 -14.829  0.00  0.00    -0.475 OA
ATOM     33  C   UNL     1      27.338 -22.397 -15.993  0.00  0.00    +0.252 C 
ENDBRANCH  10  32
TORSDOF 5
ENDMDL
MODEL 7
REMARK VINA RESULT:      -9.2     12.877     18.071
REMARK  Name = 6102822
REMARK  5 active torsions:
REMARK  status: ('A' for Active; 'I' for Inactive)
REMARK    1  A    between atoms: N_2  and  S_21
REMARK    2  A    between atoms: C_4  and  C_12
REMARK    3  A    between atoms: C_10  and  O_32
REMARK    4  A    between atoms: C_15  and  N_18
REMARK    5  A    between atoms: S_21  and  C_26
REMARK                            x       y       z     vdW  Elec       q    Type
REMARK                         _______ _______ _______ _____ _____    ______ ____
ROOT
ATOM      1  O   UNL     1      32.533  -7.077 -23.422  0.00  0.00    -0.413 OA
ATOM      2  N   UNL     1      32.355  -9.010 -21.894  0.00  0.00    -0.158 N 
ATOM      3  N   UNL     1      31.072  -6.958 -21.693  0.00  0.00    -0.354 NA
ATOM      4  C   UNL     1      32.116  -4.851 -24.410  0.00  0.00    +0.040 C 
ATOM      5  C   UNL     1      31.914  -5.861 -23.478  0.00  0.00    +0.175 C 
ATOM      6  C   UNL     1      31.021  -5.792 -22.418  0.00  0.00    +0.156 C 
ATOM      7  C   UNL     1      31.342  -3.700 -24.232  0.00  0.00    +0.036 C 
ATOM      8  C   UNL     1      31.976  -7.670 -22.330  0.00  0.00    +0.364 C 
ATOM      9  C   UNL     1      30.252  -4.630 -22.254  0.00  0.00    +0.126 C 
ATOM     10  C   UNL     1      30.428  -3.588 -23.177  0.00  0.00    +0.123 C 
ATOM     11  H   UNL     1      32.409  -9.236 -20.937  0.00  0.00    +0.179 HD
ENDROOT
BRANCH   4  12
ATOM     12  C   UNL     1      33.064  -4.997 -25.484  0.00  0.00    +0.004 C 
ATOM     13  C   UNL     1      32.632  -5.376 -26.758  0.00  0.00    +0.014 C 
ATOM     14  C   UNL     1      34.423  -4.762 -25.259  0.00  0.00    +0.000 C 
ATOM     15  C   UNL     1      33.550  -5.517 -27.799  0.00  0.00    +0.042 C 
ATOM     16  C   UNL     1      35.342  -4.903 -26.299  0.00  0.00    +0.001 C 
ATOM     17  C   UNL     1      34.905  -5.280 -27.569  0.00  0.00    +0.014 C 
BRANCH  15  18
ATOM     18  N   UNL     1      33.109  -5.898 -29.083  0.00  0.00    -0.357 N 
ATOM     19  H   UNL     1      32.893  -6.839 -29.269  0.00  0.00    +0.142 HD
ATOM     20  H   UNL     1      33.017  -5.222 -29.793  0.00  0.00    +0.142 HD
ENDBRANCH  15  18
ENDBRANCH   4  12
BRANCH   2  21
ATOM     21  S   UNL     1      32.700 -10.173 -23.096  0.00  0.00    +0.078 S 
ATOM     22  O   UNL     1      31.570 -10.234 -24.004  0.00  0.00    -0.150 OA
ATOM     23  O   UNL     1      34.037  -9.977 -23.624  0.00  0.00    -0.150 OA
BRANCH  21  26
ATOM     24 CL   UNL     1      30.859 -10.597 -20.471  0.00  0.00    -0.081 Cl
ATOM     25 CL   UNL     1      34.584 -15.186 -22.459  0.00  0.00    -0.082 Cl
ATOM     26  C   UNL     1      32.700 -11.683 -22.173  0.00  0.00    +0.137 C 
ATOM     27  C   UNL     1      31.903 -11.843 -21.052  0.00  0.00    +0.077 C 
ATOM     28  C   UNL     1      33.530 -12.702 -22.618  0.00  0.00    +0.032 C 
ATOM     29  C   UNL     1      33.562 -13.910 -21.922  0.00  0.00    +0.059 C 
ATOM     30  C   UNL     1      31.936 -13.052 -20.356  0.00  0.00    +0.014 C 
ATOM     31  C   UNL     1      32.766 -14.085 -20.791  0.00  0.00    +0.012 C 
ENDBRANCH  21  26
ENDBRANCH   2  21
BRANCH  10  32
ATOM     32  O   UNL     1      29.693  -2.447 -23.042  0.00  0.00    -0.475 OA
ATOM     33  C   UNL     1      29.752  -1.786 -21.781  0.00  0.00    +0.252 C 
ENDBRANCH  10  32
TORSDOF 5
ENDMDL
MODEL 8
REMARK VINA RESULT:      -9.2      3.858      7.537
REMARK  Name = 6102822
REMARK  5 active torsions:
REMARK  status: ('A' for Active; 'I' for Inactive)
REMARK    1  A    between atoms: N_2  and  S_21
REMARK    2  A    between atoms: C_4  and  C_12
REMARK    3  A    between atoms: C_10  and  O_32
REMARK    4  A    between atoms: C_15  and  N_18
REMARK    5  A    between atoms: S_21  and  C_26
REMARK                            x       y       z     vdW  Elec       q    Type
REMARK                         _______ _______ _______ _____ _____    ______ ____
ROOT
ATOM      1  O   UNL     1      33.715 -22.468 -14.778  0.00  0.00    -0.413 OA
ATOM      2  N   UNL     1      34.974 -22.591 -12.656  0.00  0.00    -0.158 N 
ATOM      3  N   UNL     1      32.701 -23.385 -12.970  0.00  0.00    -0.354 NA
ATOM      4  C   UNL     1      31.868 -22.717 -16.400  0.00  0.00    +0.040 C 
ATOM      5  C   UNL     1      32.457 -22.850 -15.149  0.00  0.00    +0.175 C 
ATOM      6  C   UNL     1      31.840 -23.410 -14.040  0.00  0.00    +0.156 C 
ATOM      7  C   UNL     1      30.559 -23.196 -16.507  0.00  0.00    +0.036 C 
ATOM      8  C   UNL     1      33.781 -22.821 -13.464  0.00  0.00    +0.364 C 
ATOM      9  C   UNL     1      30.527 -23.886 -14.164  0.00  0.00    +0.126 C 
ATOM     10  C   UNL     1      29.899 -23.770 -15.413  0.00  0.00    +0.123 C 
ATOM     11  H   UNL     1      34.903 -22.333 -11.708  0.00  0.00    +0.179 HD
ENDROOT
BRANCH   4  12
ATOM     12  C   UNL     1      32.575 -22.122 -17.505  0.00  0.00    +0.004 C 
ATOM     13  C   UNL     1      31.881 -21.384 -18.469  0.00  0.00    +0.014 C 
ATOM     14  C   UNL     1      33.958 -22.279 -17.622  0.00  0.00    +0.000 C 
ATOM     15  C   UNL     1      32.565 -20.807 -19.539  0.00  0.00    +0.042 C 
ATOM     16  C   UNL     1      34.643 -21.702 -18.692  0.00  0.00    +0.001 C 
ATOM     17  C   UNL     1      33.946 -20.966 -19.651  0.00  0.00    +0.014 C 
BRANCH  15  18
ATOM     18  N   UNL     1      31.860 -20.063 -20.508  0.00  0.00    -0.357 N 
ATOM     19  H   UNL     1      31.686 -19.106 -20.362  0.00  0.00    +0.142 HD
ATOM     20  H   UNL     1      31.543 -20.501 -21.330  0.00  0.00    +0.142 HD
ENDBRANCH  15  18
ENDBRANCH   4  12
BRANCH   2  21
ATOM     21  S   UNL     1      36.496 -22.786 -13.406  0.00  0.00    +0.078 S 
ATOM     22  O   UNL     1      36.413 -22.236 -14.745  0.00  0.00    -0.150 OA
ATOM     23  O   UNL     1      37.559 -22.356 -12.517  0.00  0.00    -0.150 OA
BRANCH  21  26
ATOM     24 CL   UNL     1      37.241 -24.721 -10.923  0.00  0.00    -0.081 Cl
ATOM     25 CL   UNL     1      36.150 -27.142 -16.566  0.00  0.00    -0.082 Cl
ATOM     26  C   UNL     1      36.613 -24.543 -13.577  0.00  0.00    +0.137 C 
ATOM     27  C   UNL     1      36.933 -25.354 -12.500  0.00  0.00    +0.077 C 
ATOM     28  C   UNL     1      36.369 -25.079 -14.834  0.00  0.00    +0.032 C 
ATOM     29  C   UNL     1      36.450 -26.459 -15.015  0.00  0.00    +0.059 C 
ATOM     30  C   UNL     1      37.014 -26.734 -12.683  0.00  0.00    +0.014 C 
ATOM     31  C   UNL     1      36.772 -27.287 -13.940  0.00  0.00    +0.012 C 
ENDBRANCH  21  26
ENDBRANCH   2  21
BRANCH  10  32
ATOM     32  O   UNL     1      28.622 -24.225 -15.562  0.00  0.00    -0.475 OA
ATOM     33  C   UNL     1      27.782 -23.511 -16.466  0.00  0.00    +0.252 C 
ENDBRANCH  10  32
TORSDOF 5
ENDMDL
MODEL 9
REMARK VINA RESULT:      -8.9      3.515      7.247
REMARK  Name = 6102822
REMARK  5 active torsions:
REMARK  status: ('A' for Active; 'I' for Inactive)
REMARK    1  A    between atoms: N_2  and  S_21
REMARK    2  A    between atoms: C_4  and  C_12
REMARK    3  A    between atoms: C_10  and  O_32
REMARK    4  A    between atoms: C_15  and  N_18
REMARK    5  A    between atoms: S_21  and  C_26
REMARK                            x       y       z     vdW  Elec       q    Type
REMARK                         _______ _______ _______ _____ _____    ______ ____
ROOT
ATOM      1  O   UNL     1      34.476 -22.401 -16.408  0.00  0.00    -0.413 OA
ATOM      2  N   UNL     1      36.820 -22.643 -15.667  0.00  0.00    -0.158 N 
ATOM      3  N   UNL     1      36.121 -21.585 -17.738  0.00  0.00    -0.354 NA
ATOM      4  C   UNL     1      32.534 -21.782 -17.805  0.00  0.00    +0.040 C 
ATOM      5  C   UNL     1      33.891 -21.850 -17.512  0.00  0.00    +0.175 C 
ATOM      6  C   UNL     1      34.901 -21.352 -18.323  0.00  0.00    +0.156 C 
ATOM      7  C   UNL     1      32.207 -21.159 -19.013  0.00  0.00    +0.036 C 
ATOM      8  C   UNL     1      35.807 -22.203 -16.619  0.00  0.00    +0.364 C 
ATOM      9  C   UNL     1      34.554 -20.729 -19.531  0.00  0.00    +0.126 C 
ATOM     10  C   UNL     1      33.194 -20.642 -19.861  0.00  0.00    +0.123 C 
ATOM     11  H   UNL     1      37.688 -22.995 -15.975  0.00  0.00    +0.179 HD
ENDROOT
BRANCH   4  12
ATOM     12  C   UNL     1      31.544 -22.325 -16.911  0.00  0.00    +0.004 C 
ATOM     13  C   UNL     1      31.929 -23.150 -15.851  0.00  0.00    +0.014 C 
ATOM     14  C   UNL     1      30.190 -22.030 -17.100  0.00  0.00    +0.000 C 
ATOM     15  C   UNL     1      30.969 -23.675 -14.985  0.00  0.00    +0.042 C 
ATOM     16  C   UNL     1      29.230 -22.555 -16.234  0.00  0.00    +0.001 C 
ATOM     17  C   UNL     1      29.620 -23.378 -15.176  0.00  0.00    +0.014 C 
BRANCH  15  18
ATOM     18  N   UNL     1      31.363 -24.506 -13.916  0.00  0.00    -0.357 N 
ATOM     19  H   UNL     1      32.093 -24.228 -13.319  0.00  0.00    +0.142 HD
ATOM     20  H   UNL     1      30.906 -25.366 -13.767  0.00  0.00    +0.142 HD
ENDBRANCH  15  18
ENDBRANCH   4  12
BRANCH   2  21
ATOM     21  S   UNL     1      36.455 -22.530 -14.002  0.00  0.00    +0.078 S 
ATOM     22  O   UNL     1      37.164 -21.385 -13.462  0.00  0.00    -0.150 OA
ATOM     23  O   UNL     1      35.027 -22.660 -13.785  0.00  0.00    -0.150 OA
BRANCH  21  26
ATOM     24 CL   UNL     1      35.264 -24.133 -11.459  0.00  0.00    -0.081 Cl
ATOM     25 CL   UNL     1      40.490 -26.102 -14.237  0.00  0.00    -0.082 Cl
ATOM     26  C   UNL     1      37.236 -23.975 -13.344  0.00  0.00    +0.137 C 
ATOM     27  C   UNL     1      36.709 -24.647 -12.253  0.00  0.00    +0.077 C 
ATOM     28  C   UNL     1      38.398 -24.411 -13.964  0.00  0.00    +0.032 C 
ATOM     29  C   UNL     1      39.047 -25.546 -13.480  0.00  0.00    +0.059 C 
ATOM     30  C   UNL     1      37.358 -25.782 -11.769  0.00  0.00    +0.014 C 
ATOM     31  C   UNL     1      38.528 -26.232 -12.382  0.00  0.00    +0.012 C 
ENDBRANCH  21  26
ENDBRANCH   2  21
BRANCH  10  32
ATOM     32  O   UNL     1      32.828 -20.040 -21.030  0.00  0.00    -0.475 OA
ATOM     33  C   UNL     1      33.821 -19.267 -21.697  0.00  0.00    +0.252 C 
ENDBRANCH  10  32
TORSDOF 5
ENDMDL
