MODEL 1
REMARK VINA RESULT:     -12.2      0.000      0.000
REMARK  Name = 11154925
REMARK  9 active torsions:
REMARK  status: ('A' for Active; 'I' for Inactive)
REMARK    1  A    between atoms: C_6  and  O_11
REMARK    2  A    between atoms: C_8  and  O_24
REMARK    3  A    between atoms: O_11  and  C_12
REMARK    4  A    between atoms: C_12  and  C_13
REMARK    5  A    between atoms: C_13  and  O_15
REMARK    6  A    between atoms: O_15  and  C_17
REMARK    7  A    between atoms: C_17  and  C_18
REMARK    8  A    between atoms: C_18  and  N_20
REMARK    9  A    between atoms: O_24  and  C_29
REMARK                            x       y       z     vdW  Elec       q    Type
REMARK                         _______ _______ _______ _____ _____    ______ ____
ROOT
ATOM      1  N   UNL     1      31.943 -23.000 -14.618  0.00  0.00    -0.180 N 
ATOM      2  N   UNL     1      30.685 -22.643 -15.000  0.00  0.00    -0.151 NA
ATOM      3  N   UNL     1      31.540 -22.502 -17.257  0.00  0.00    -0.187 NA
ATOM      4  C   UNL     1      32.996 -23.119 -15.489  0.00  0.00    +0.126 C 
ATOM      5  C   UNL     1      34.111 -23.492 -14.775  0.00  0.00    +0.034 C 
ATOM      6  C   UNL     1      33.712 -23.604 -13.418  0.00  0.00    +0.153 C 
ATOM      7  C   UNL     1      32.368 -23.295 -13.350  0.00  0.00    +0.126 C 
ATOM      8  C   UNL     1      32.721 -22.845 -16.856  0.00  0.00    +0.247 C 
ATOM      9  C   UNL     1      35.481 -23.743 -15.267  0.00  0.00    +0.036 C 
ATOM     10  C   UNL     1      30.558 -22.417 -16.281  0.00  0.00    +0.220 C 
ENDROOT
BRANCH   6  11
ATOM     11  O   UNL     1      34.463 -23.943 -12.360  0.00  0.00    -0.470 OA
BRANCH  11  12
ATOM     12  C   UNL     1      35.438 -22.993 -11.918  0.00  0.00    +0.249 C 
BRANCH  12  13
ATOM     13  C   UNL     1      36.165 -23.559 -10.704  0.00  0.00    +0.212 C 
ATOM     14  C   UNL     1      35.187 -23.990  -9.621  0.00  0.00    +0.051 C 
BRANCH  13  15
ATOM     15  O   UNL     1      36.920 -24.694 -11.123  0.00  0.00    -0.450 OA
BRANCH  15  17
ATOM     16  O   UNL     1      38.553 -23.426 -12.140  0.00  0.00    -0.252 OA
ATOM     17  C   UNL     1      37.889 -24.452 -12.059  0.00  0.00    +0.296 C 
BRANCH  17  18
ATOM     18  C   UNL     1      38.007 -25.650 -12.982  0.00  0.00    +0.036 C 
ATOM     19  C   UNL     1      38.573 -25.235 -14.333  0.00  0.00    -0.013 C 
BRANCH  18  20
ATOM     20  N   UNL     1      36.674 -26.221 -13.159  0.00  0.00    +0.389 N 
ATOM     21  H   UNL     1      35.974 -25.485 -13.066  0.00  0.00    -0.088 HD
ATOM     22  H   UNL     1      36.513 -26.935 -12.448  0.00  0.00    -0.088 HD
ATOM     23  H   UNL     1      36.604 -26.643 -14.085  0.00  0.00    -0.088 HD
ENDBRANCH  18  20
ENDBRANCH  17  18
ENDBRANCH  15  17
ENDBRANCH  13  15
ENDBRANCH  12  13
ENDBRANCH  11  12
ENDBRANCH   6  11
BRANCH   8  24
ATOM     24  O   UNL     1      33.744 -22.955 -17.736  0.00  0.00    -0.433 OA
BRANCH  24  29
ATOM     25  F   UNL     1      36.114 -21.765 -18.449  0.00  0.00    -0.201 F 
ATOM     26  N   UNL     1      34.019 -18.780 -21.280  0.00  0.00    -0.316 N 
ATOM     27  C   UNL     1      34.963 -20.253 -19.895  0.00  0.00    +0.045 C 
ATOM     28  C   UNL     1      33.743 -19.822 -20.422  0.00  0.00    +0.050 C 
ATOM     29  C   UNL     1      33.751 -21.920 -18.623  0.00  0.00    +0.175 C 
ATOM     30  C   UNL     1      35.366 -18.538 -21.312  0.00  0.00    +0.026 C 
ATOM     31  C   UNL     1      34.966 -21.322 -18.978  0.00  0.00    +0.176 C 
ATOM     32  C   UNL     1      35.977 -19.434 -20.465  0.00  0.00    +0.014 C 
ATOM     33  C   UNL     1      32.522 -20.410 -20.077  0.00  0.00    +0.018 C 
ATOM     34  C   UNL     1      32.549 -21.470 -19.166  0.00  0.00    +0.041 C 
ATOM     35  C   UNL     1      35.932 -17.469 -22.155  0.00  0.00    +0.047 C 
ATOM     36  H   UNL     1      33.343 -18.281 -21.795  0.00  0.00    +0.152 HD
ENDBRANCH  24  29
ENDBRANCH   8  24
TORSDOF 9
ENDMDL
MODEL 2
REMARK VINA RESULT:     -12.2      7.110     11.386
REMARK  Name = 11154925
REMARK  9 active torsions:
REMARK  status: ('A' for Active; 'I' for Inactive)
REMARK    1  A    between atoms: C_6  and  O_11
REMARK    2  A    between atoms: C_8  and  O_24
REMARK    3  A    between atoms: O_11  and  C_12
REMARK    4  A    between atoms: C_12  and  C_13
REMARK    5  A    between atoms: C_13  and  O_15
REMARK    6  A    between atoms: O_15  and  C_17
REMARK    7  A    between atoms: C_17  and  C_18
REMARK    8  A    between atoms: C_18  and  N_20
REMARK    9  A    between atoms: O_24  and  C_29
REMARK                            x       y       z     vdW  Elec       q    Type
REMARK                         _______ _______ _______ _____ _____    ______ ____
ROOT
ATOM      1  N   UNL     1      33.510 -15.236 -24.684  0.00  0.00    -0.180 N 
ATOM      2  N   UNL     1      33.067 -14.655 -25.835  0.00  0.00    -0.151 NA
ATOM      3  N   UNL     1      32.684 -12.653 -24.534  0.00  0.00    -0.187 NA
ATOM      4  C   UNL     1      33.559 -14.588 -23.476  0.00  0.00    +0.126 C 
ATOM      5  C   UNL     1      34.053 -15.460 -22.534  0.00  0.00    +0.034 C 
ATOM      6  C   UNL     1      34.313 -16.684 -23.203  0.00  0.00    +0.153 C 
ATOM      7  C   UNL     1      33.970 -16.517 -24.530  0.00  0.00    +0.126 C 
ATOM      8  C   UNL     1      33.113 -13.239 -23.464  0.00  0.00    +0.247 C 
ATOM      9  C   UNL     1      34.289 -15.227 -21.095  0.00  0.00    +0.036 C 
ATOM     10  C   UNL     1      32.684 -13.414 -25.695  0.00  0.00    +0.220 C 
ENDROOT
BRANCH   6  11
ATOM     11  O   UNL     1      34.803 -17.820 -22.688  0.00  0.00    -0.470 OA
BRANCH  11  12
ATOM     12  C   UNL     1      33.883 -18.899 -22.492  0.00  0.00    +0.249 C 
BRANCH  12  13
ATOM     13  C   UNL     1      33.860 -19.267 -21.013  0.00  0.00    +0.212 C 
ATOM     14  C   UNL     1      32.506 -19.820 -20.598  0.00  0.00    +0.051 C 
BRANCH  13  15
ATOM     15  O   UNL     1      34.856 -20.262 -20.783  0.00  0.00    -0.450 OA
BRANCH  15  17
ATOM     16  O   UNL     1      36.479 -18.906 -19.868  0.00  0.00    -0.252 OA
ATOM     17  C   UNL     1      35.820 -19.938 -19.866  0.00  0.00    +0.296 C 
BRANCH  17  18
ATOM     18  C   UNL     1      35.946 -21.060 -18.853  0.00  0.00    +0.036 C 
ATOM     19  C   UNL     1      34.586 -21.679 -18.564  0.00  0.00    -0.013 C 
BRANCH  18  20
ATOM     20  N   UNL     1      36.505 -20.501 -17.623  0.00  0.00    +0.389 N 
ATOM     21  H   UNL     1      35.770 -20.022 -17.103  0.00  0.00    -0.088 HD
ATOM     22  H   UNL     1      37.244 -19.838 -17.856  0.00  0.00    -0.088 HD
ATOM     23  H   UNL     1      36.892 -21.253 -17.052  0.00  0.00    -0.088 HD
ENDBRANCH  18  20
ENDBRANCH  17  18
ENDBRANCH  15  17
ENDBRANCH  13  15
ENDBRANCH  12  13
ENDBRANCH  11  12
ENDBRANCH   6  11
BRANCH   8  24
ATOM     24  O   UNL     1      33.149 -12.576 -22.283  0.00  0.00    -0.433 OA
BRANCH  24  29
ATOM     25  F   UNL     1      34.046 -10.328 -23.580  0.00  0.00    -0.201 F 
ATOM     26  N   UNL     1      30.227  -7.945 -22.551  0.00  0.00    -0.316 N 
ATOM     27  C   UNL     1      32.044  -9.157 -23.011  0.00  0.00    +0.045 C 
ATOM     28  C   UNL     1      30.800  -9.185 -22.374  0.00  0.00    +0.050 C 
ATOM     29  C   UNL     1      32.378 -11.454 -22.317  0.00  0.00    +0.175 C 
ATOM     30  C   UNL     1      31.062  -7.137 -23.275  0.00  0.00    +0.026 C 
ATOM     31  C   UNL     1      32.847 -10.313 -22.982  0.00  0.00    +0.176 C 
ATOM     32  C   UNL     1      32.195  -7.859 -23.575  0.00  0.00    +0.014 C 
ATOM     33  C   UNL     1      30.320 -10.316 -21.707  0.00  0.00    +0.018 C 
ATOM     34  C   UNL     1      31.133 -11.453 -21.691  0.00  0.00    +0.041 C 
ATOM     35  C   UNL     1      30.688  -5.750 -23.607  0.00  0.00    +0.047 C 
ATOM     36  H   UNL     1      29.344  -7.679 -22.206  0.00  0.00    +0.152 HD
ENDBRANCH  24  29
ENDBRANCH   8  24
TORSDOF 9
ENDMDL
MODEL 3
REMARK VINA RESULT:     -12.0      7.497     11.971
REMARK  Name = 11154925
REMARK  9 active torsions:
REMARK  status: ('A' for Active; 'I' for Inactive)
REMARK    1  A    between atoms: C_6  and  O_11
REMARK    2  A    between atoms: C_8  and  O_24
REMARK    3  A    between atoms: O_11  and  C_12
REMARK    4  A    between atoms: C_12  and  C_13
REMARK    5  A    between atoms: C_13  and  O_15
REMARK    6  A    between atoms: O_15  and  C_17
REMARK    7  A    between atoms: C_17  and  C_18
REMARK    8  A    between atoms: C_18  and  N_20
REMARK    9  A    between atoms: O_24  and  C_29
REMARK                            x       y       z     vdW  Elec       q    Type
REMARK                         _______ _______ _______ _____ _____    ______ ____
ROOT
ATOM      1  N   UNL     1      33.536 -14.742 -24.541  0.00  0.00    -0.180 N 
ATOM      2  N   UNL     1      33.159 -14.342 -25.788  0.00  0.00    -0.151 NA
ATOM      3  N   UNL     1      32.325 -12.322 -24.755  0.00  0.00    -0.187 NA
ATOM      4  C   UNL     1      33.337 -13.993 -23.410  0.00  0.00    +0.126 C 
ATOM      5  C   UNL     1      33.834 -14.689 -22.333  0.00  0.00    +0.034 C 
ATOM      6  C   UNL     1      34.354 -15.909 -22.837  0.00  0.00    +0.153 C 
ATOM      7  C   UNL     1      34.157 -15.916 -24.203  0.00  0.00    +0.126 C 
ATOM      8  C   UNL     1      32.698 -12.736 -23.588  0.00  0.00    +0.247 C 
ATOM      9  C   UNL     1      33.851 -14.298 -20.908  0.00  0.00    +0.036 C 
ATOM     10  C   UNL     1      32.582 -13.170 -25.822  0.00  0.00    +0.220 C 
ENDROOT
BRANCH   6  11
ATOM     11  O   UNL     1      34.939 -16.904 -22.153  0.00  0.00    -0.470 OA
BRANCH  11  12
ATOM     12  C   UNL     1      34.409 -18.222 -22.335  0.00  0.00    +0.249 C 
BRANCH  12  13
ATOM     13  C   UNL     1      35.120 -19.176 -21.384  0.00  0.00    +0.212 C 
ATOM     14  C   UNL     1      36.426 -18.584 -20.875  0.00  0.00    +0.051 C 
BRANCH  13  15
ATOM     15  O   UNL     1      34.261 -19.423 -20.272  0.00  0.00    -0.450 OA
BRANCH  15  17
ATOM     16  O   UNL     1      35.323 -21.411 -19.790  0.00  0.00    -0.252 OA
ATOM     17  C   UNL     1      34.348 -20.673 -19.720  0.00  0.00    +0.296 C 
BRANCH  17  18
ATOM     18  C   UNL     1      33.047 -21.001 -19.013  0.00  0.00    +0.036 C 
ATOM     19  C   UNL     1      33.139 -22.352 -18.315  0.00  0.00    -0.013 C 
BRANCH  18  20
ATOM     20  N   UNL     1      31.981 -21.034 -20.013  0.00  0.00    +0.389 N 
ATOM     21  H   UNL     1      31.326 -21.781 -19.786  0.00  0.00    -0.088 HD
ATOM     22  H   UNL     1      32.385 -21.204 -20.934  0.00  0.00    -0.088 HD
ATOM     23  H   UNL     1      31.490 -20.140 -20.017  0.00  0.00    -0.088 HD
ENDBRANCH  18  20
ENDBRANCH  17  18
ENDBRANCH  15  17
ENDBRANCH  13  15
ENDBRANCH  12  13
ENDBRANCH  11  12
ENDBRANCH   6  11
BRANCH   8  24
ATOM     24  O   UNL     1      32.489 -11.976 -22.487  0.00  0.00    -0.433 OA
BRANCH  24  29
ATOM     25  F   UNL     1      30.263 -10.413 -22.107  0.00  0.00    -0.201 F 
ATOM     26  N   UNL     1      32.406  -6.611 -23.613  0.00  0.00    -0.316 N 
ATOM     27  C   UNL     1      31.434  -8.488 -22.898  0.00  0.00    +0.045 C 
ATOM     28  C   UNL     1      32.625  -7.953 -23.395  0.00  0.00    +0.050 C 
ATOM     29  C   UNL     1      32.528 -10.647 -22.784  0.00  0.00    +0.175 C 
ATOM     30  C   UNL     1      31.122  -6.281 -23.272  0.00  0.00    +0.026 C 
ATOM     31  C   UNL     1      31.386  -9.861 -22.587  0.00  0.00    +0.176 C 
ATOM     32  C   UNL     1      30.496  -7.422 -22.825  0.00  0.00    +0.014 C 
ATOM     33  C   UNL     1      33.774  -8.726 -23.598  0.00  0.00    +0.018 C 
ATOM     34  C   UNL     1      33.702 -10.086 -23.281  0.00  0.00    +0.041 C 
ATOM     35  C   UNL     1      30.624  -4.899 -23.409  0.00  0.00    +0.047 C 
ATOM     36  H   UNL     1      33.076  -5.980 -23.965  0.00  0.00    +0.152 HD
ENDBRANCH  24  29
ENDBRANCH   8  24
TORSDOF 9
ENDMDL
MODEL 4
REMARK VINA RESULT:     -12.0      2.874      9.262
REMARK  Name = 11154925
REMARK  9 active torsions:
REMARK  status: ('A' for Active; 'I' for Inactive)
REMARK    1  A    between atoms: C_6  and  O_11
REMARK    2  A    between atoms: C_8  and  O_24
REMARK    3  A    between atoms: O_11  and  C_12
REMARK    4  A    between atoms: C_12  and  C_13
REMARK    5  A    between atoms: C_13  and  O_15
REMARK    6  A    between atoms: O_15  and  C_17
REMARK    7  A    between atoms: C_17  and  C_18
REMARK    8  A    between atoms: C_18  and  N_20
REMARK    9  A    between atoms: O_24  and  C_29
REMARK                            x       y       z     vdW  Elec       q    Type
REMARK                         _______ _______ _______ _____ _____    ______ ____
ROOT
ATOM      1  N   UNL     1      33.876 -22.365 -18.067  0.00  0.00    -0.180 N 
ATOM      2  N   UNL     1      32.894 -23.240 -17.709  0.00  0.00    -0.151 NA
ATOM      3  N   UNL     1      33.814 -23.168 -15.474  0.00  0.00    -0.187 NA
ATOM      4  C   UNL     1      34.816 -21.879 -17.195  0.00  0.00    +0.126 C 
ATOM      5  C   UNL     1      35.648 -21.027 -17.882  0.00  0.00    +0.034 C 
ATOM      6  C   UNL     1      35.189 -20.998 -19.225  0.00  0.00    +0.153 C 
ATOM      7  C   UNL     1      34.093 -21.833 -19.311  0.00  0.00    +0.126 C 
ATOM      8  C   UNL     1      34.730 -22.337 -15.853  0.00  0.00    +0.247 C 
ATOM      9  C   UNL     1      36.808 -20.263 -17.379  0.00  0.00    +0.036 C 
ATOM     10  C   UNL     1      32.920 -23.586 -16.449  0.00  0.00    +0.220 C 
ENDROOT
BRANCH   6  11
ATOM     11  O   UNL     1      35.692 -20.304 -20.256  0.00  0.00    -0.470 OA
BRANCH  11  12
ATOM     12  C   UNL     1      34.797 -19.433 -20.957  0.00  0.00    +0.249 C 
BRANCH  12  13
ATOM     13  C   UNL     1      35.468 -18.078 -21.141  0.00  0.00    +0.212 C 
ATOM     14  C   UNL     1      36.874 -18.225 -21.702  0.00  0.00    +0.051 C 
BRANCH  13  15
ATOM     15  O   UNL     1      34.685 -17.310 -22.052  0.00  0.00    -0.450 OA
BRANCH  15  17
ATOM     16  O   UNL     1      34.335 -15.572 -20.579  0.00  0.00    -0.252 OA
ATOM     17  C   UNL     1      34.501 -15.994 -21.717  0.00  0.00    +0.296 C 
BRANCH  17  18
ATOM     18  C   UNL     1      34.530 -15.147 -22.974  0.00  0.00    +0.036 C 
ATOM     19  C   UNL     1      33.394 -14.133 -22.965  0.00  0.00    -0.013 C 
BRANCH  18  20
ATOM     20  N   UNL     1      34.390 -16.036 -24.126  0.00  0.00    +0.389 N 
ATOM     21  H   UNL     1      33.432 -15.992 -24.474  0.00  0.00    -0.088 HD
ATOM     22  H   UNL     1      34.606 -16.992 -23.844  0.00  0.00    -0.088 HD
ATOM     23  H   UNL     1      35.033 -15.745 -24.861  0.00  0.00    -0.088 HD
ENDBRANCH  18  20
ENDBRANCH  17  18
ENDBRANCH  15  17
ENDBRANCH  13  15
ENDBRANCH  12  13
ENDBRANCH  11  12
ENDBRANCH   6  11
BRANCH   8  24
ATOM     24  O   UNL     1      35.647 -21.873 -14.971  0.00  0.00    -0.433 OA
BRANCH  24  29
ATOM     25  F   UNL     1      38.099 -22.490 -16.043  0.00  0.00    -0.201 F 
ATOM     26  N   UNL     1      38.805 -25.908 -13.021  0.00  0.00    -0.316 N 
ATOM     27  C   UNL     1      38.396 -24.243 -14.449  0.00  0.00    +0.045 C 
ATOM     28  C   UNL     1      37.877 -24.950 -13.361  0.00  0.00    +0.050 C 
ATOM     29  C   UNL     1      36.389 -22.887 -14.443  0.00  0.00    +0.175 C 
ATOM     30  C   UNL     1      39.889 -25.833 -13.853  0.00  0.00    +0.026 C 
ATOM     31  C   UNL     1      37.637 -23.192 -14.999  0.00  0.00    +0.176 C 
ATOM     32  C   UNL     1      39.666 -24.811 -14.748  0.00  0.00    +0.014 C 
ATOM     33  C   UNL     1      36.632 -24.656 -12.795  0.00  0.00    +0.018 C 
ATOM     34  C   UNL     1      35.896 -23.609 -13.358  0.00  0.00    +0.041 C 
ATOM     35  C   UNL     1      41.034 -26.751 -13.706  0.00  0.00    +0.047 C 
ATOM     36  H   UNL     1      38.703 -26.556 -12.285  0.00  0.00    +0.152 HD
ENDBRANCH  24  29
ENDBRANCH   8  24
TORSDOF 9
ENDMDL
MODEL 5
REMARK VINA RESULT:     -11.8      9.168     13.620
REMARK  Name = 11154925
REMARK  9 active torsions:
REMARK  status: ('A' for Active; 'I' for Inactive)
REMARK    1  A    between atoms: C_6  and  O_11
REMARK    2  A    between atoms: C_8  and  O_24
REMARK    3  A    between atoms: O_11  and  C_12
REMARK    4  A    between atoms: C_12  and  C_13
REMARK    5  A    between atoms: C_13  and  O_15
REMARK    6  A    between atoms: O_15  and  C_17
REMARK    7  A    between atoms: C_17  and  C_18
REMARK    8  A    between atoms: C_18  and  N_20
REMARK    9  A    between atoms: O_24  and  C_29
REMARK                            x       y       z     vdW  Elec       q    Type
REMARK                         _______ _______ _______ _____ _____    ______ ____
ROOT
ATOM      1  N   UNL     1      32.680 -12.621 -21.195  0.00  0.00    -0.180 N 
ATOM      2  N   UNL     1      32.122 -12.246 -20.010  0.00  0.00    -0.151 NA
ATOM      3  N   UNL     1      31.201 -10.344 -21.185  0.00  0.00    -0.187 NA
ATOM      4  C   UNL     1      32.532 -11.915 -22.362  0.00  0.00    +0.126 C 
ATOM      5  C   UNL     1      33.221 -12.569 -23.357  0.00  0.00    +0.034 C 
ATOM      6  C   UNL     1      33.809 -13.716 -22.764  0.00  0.00    +0.153 C 
ATOM      7  C   UNL     1      33.459 -13.724 -21.429  0.00  0.00    +0.126 C 
ATOM      8  C   UNL     1      31.746 -10.734 -22.291  0.00  0.00    +0.247 C 
ATOM      9  C   UNL     1      33.360 -12.199 -24.780  0.00  0.00    +0.036 C 
ATOM     10  C   UNL     1      31.423 -11.143 -20.073  0.00  0.00    +0.220 C 
ENDROOT
BRANCH   6  11
ATOM     11  O   UNL     1      34.572 -14.651 -23.349  0.00  0.00    -0.470 OA
BRANCH  11  12
ATOM     12  C   UNL     1      33.903 -15.642 -24.137  0.00  0.00    +0.249 C 
BRANCH  12  13
ATOM     13  C   UNL     1      33.853 -16.946 -23.352  0.00  0.00    +0.212 C 
ATOM     14  C   UNL     1      33.567 -18.132 -24.260  0.00  0.00    +0.051 C 
BRANCH  13  15
ATOM     15  O   UNL     1      35.118 -17.140 -22.723  0.00  0.00    -0.450 OA
BRANCH  15  17
ATOM     16  O   UNL     1      34.857 -16.603 -20.497  0.00  0.00    -0.252 OA
ATOM     17  C   UNL     1      35.081 -17.419 -21.383  0.00  0.00    +0.296 C 
BRANCH  17  18
ATOM     18  C   UNL     1      35.365 -18.893 -21.168  0.00  0.00    +0.036 C 
ATOM     19  C   UNL     1      34.124 -19.610 -20.652  0.00  0.00    -0.013 C 
BRANCH  18  20
ATOM     20  N   UNL     1      36.445 -19.011 -20.190  0.00  0.00    +0.389 N 
ATOM     21  H   UNL     1      37.271 -19.400 -20.642  0.00  0.00    -0.088 HD
ATOM     22  H   UNL     1      36.150 -19.627 -19.431  0.00  0.00    -0.088 HD
ATOM     23  H   UNL     1      36.665 -18.089 -19.812  0.00  0.00    -0.088 HD
ENDBRANCH  18  20
ENDBRANCH  17  18
ENDBRANCH  15  17
ENDBRANCH  13  15
ENDBRANCH  12  13
ENDBRANCH  11  12
ENDBRANCH   6  11
BRANCH   8  24
ATOM     24  O   UNL     1      31.584 -10.018 -23.429  0.00  0.00    -0.433 OA
BRANCH  24  29
ATOM     25  F   UNL     1      29.587  -8.138 -23.285  0.00  0.00    -0.201 F 
ATOM     26  N   UNL     1      32.585  -4.680 -22.678  0.00  0.00    -0.316 N 
ATOM     27  C   UNL     1      31.195  -6.400 -22.975  0.00  0.00    +0.045 C 
ATOM     28  C   UNL     1      32.541  -6.044 -22.859  0.00  0.00    +0.050 C 
ATOM     29  C   UNL     1      31.893  -8.705 -23.240  0.00  0.00    +0.175 C 
ATOM     30  C   UNL     1      31.318  -4.163 -22.676  0.00  0.00    +0.026 C 
ATOM     31  C   UNL     1      30.866  -7.756 -23.169  0.00  0.00    +0.176 C 
ATOM     32  C   UNL     1      30.435  -5.203 -22.857  0.00  0.00    +0.014 C 
ATOM     33  C   UNL     1      33.578  -6.981 -22.929  0.00  0.00    +0.018 C 
ATOM     34  C   UNL     1      33.228  -8.321 -23.121  0.00  0.00    +0.041 C 
ATOM     35  C   UNL     1      31.080  -2.718 -22.499  0.00  0.00    +0.047 C 
ATOM     36  H   UNL     1      33.410  -4.153 -22.567  0.00  0.00    +0.152 HD
ENDBRANCH  24  29
ENDBRANCH   8  24
TORSDOF 9
ENDMDL
MODEL 6
REMARK VINA RESULT:     -11.8      2.694      4.456
REMARK  Name = 11154925
REMARK  9 active torsions:
REMARK  status: ('A' for Active; 'I' for Inactive)
REMARK    1  A    between atoms: C_6  and  O_11
REMARK    2  A    between atoms: C_8  and  O_24
REMARK    3  A    between atoms: O_11  and  C_12
REMARK    4  A    between atoms: C_12  and  C_13
REMARK    5  A    between atoms: C_13  and  O_15
REMARK    6  A    between atoms: O_15  and  C_17
REMARK    7  A    between atoms: C_17  and  C_18
REMARK    8  A    between atoms: C_18  and  N_20
REMARK    9  A    between atoms: O_24  and  C_29
REMARK                            x       y       z     vdW  Elec       q    Type
REMARK                         _______ _______ _______ _____ _____    ______ ____
ROOT
ATOM      1  N   UNL     1      33.150 -21.555 -18.649  0.00  0.00    -0.180 N 
ATOM      2  N   UNL     1      31.912 -21.473 -19.213  0.00  0.00    -0.151 NA
ATOM      3  N   UNL     1      32.859 -19.877 -20.763  0.00  0.00    -0.187 NA
ATOM      4  C   UNL     1      34.236 -20.844 -19.091  0.00  0.00    +0.126 C 
ATOM      5  C   UNL     1      35.316 -21.163 -18.302  0.00  0.00    +0.034 C 
ATOM      6  C   UNL     1      34.862 -22.107 -17.345  0.00  0.00    +0.153 C 
ATOM      7  C   UNL     1      33.521 -22.331 -17.582  0.00  0.00    +0.126 C 
ATOM      8  C   UNL     1      34.018 -19.983 -20.201  0.00  0.00    +0.247 C 
ATOM      9  C   UNL     1      36.702 -20.657 -18.385  0.00  0.00    +0.036 C 
ATOM     10  C   UNL     1      31.839 -20.649 -20.224  0.00  0.00    +0.220 C 
ENDROOT
BRANCH   6  11
ATOM     11  O   UNL     1      35.566 -22.701 -16.371  0.00  0.00    -0.470 OA
BRANCH  11  12
ATOM     12  C   UNL     1      35.088 -22.544 -15.030  0.00  0.00    +0.249 C 
BRANCH  12  13
ATOM     13  C   UNL     1      34.892 -23.922 -14.411  0.00  0.00    +0.212 C 
ATOM     14  C   UNL     1      33.476 -24.102 -13.888  0.00  0.00    +0.051 C 
BRANCH  13  15
ATOM     15  O   UNL     1      35.142 -24.904 -15.415  0.00  0.00    -0.450 OA
BRANCH  15  17
ATOM     16  O   UNL     1      36.247 -26.905 -15.708  0.00  0.00    -0.252 OA
ATOM     17  C   UNL     1      36.072 -25.858 -15.098  0.00  0.00    +0.296 C 
BRANCH  17  18
ATOM     18  C   UNL     1      36.845 -25.416 -13.870  0.00  0.00    +0.036 C 
ATOM     19  C   UNL     1      38.300 -25.139 -14.222  0.00  0.00    -0.013 C 
BRANCH  18  20
ATOM     20  N   UNL     1      36.773 -26.487 -12.877  0.00  0.00    +0.389 N 
ATOM     21  H   UNL     1      35.857 -26.933 -12.924  0.00  0.00    -0.088 HD
ATOM     22  H   UNL     1      36.914 -26.096 -11.945  0.00  0.00    -0.088 HD
ATOM     23  H   UNL     1      37.498 -27.178 -13.068  0.00  0.00    -0.088 HD
ENDBRANCH  18  20
ENDBRANCH  17  18
ENDBRANCH  15  17
ENDBRANCH  13  15
ENDBRANCH  12  13
ENDBRANCH  11  12
ENDBRANCH   6  11
BRANCH   8  24
ATOM     24  O   UNL     1      35.074 -19.268 -20.657  0.00  0.00    -0.433 OA
BRANCH  24  29
ATOM     25  F   UNL     1      34.872 -16.565 -20.218  0.00  0.00    -0.201 F 
ATOM     26  N   UNL     1      33.628 -15.726 -24.584  0.00  0.00    -0.316 N 
ATOM     27  C   UNL     1      34.233 -16.206 -22.490  0.00  0.00    +0.045 C 
ATOM     28  C   UNL     1      33.970 -16.763 -23.744  0.00  0.00    +0.050 C 
ATOM     29  C   UNL     1      34.711 -18.436 -21.672  0.00  0.00    +0.175 C 
ATOM     30  C   UNL     1      33.665 -14.538 -23.906  0.00  0.00    +0.026 C 
ATOM     31  C   UNL     1      34.611 -17.059 -21.435  0.00  0.00    +0.176 C 
ATOM     32  C   UNL     1      34.037 -14.802 -22.608  0.00  0.00    +0.014 C 
ATOM     33  C   UNL     1      34.066 -18.136 -23.996  0.00  0.00    +0.018 C 
ATOM     34  C   UNL     1      34.443 -18.963 -22.934  0.00  0.00    +0.041 C 
ATOM     35  C   UNL     1      33.339 -13.264 -24.574  0.00  0.00    +0.047 C 
ATOM     36  H   UNL     1      33.389 -15.826 -25.534  0.00  0.00    +0.152 HD
ENDBRANCH  24  29
ENDBRANCH   8  24
TORSDOF 9
ENDMDL
MODEL 7
REMARK VINA RESULT:     -11.3      5.309      9.428
REMARK  Name = 11154925
REMARK  9 active torsions:
REMARK  status: ('A' for Active; 'I' for Inactive)
REMARK    1  A    between atoms: C_6  and  O_11
REMARK    2  A    between atoms: C_8  and  O_24
REMARK    3  A    between atoms: O_11  and  C_12
REMARK    4  A    between atoms: C_12  and  C_13
REMARK    5  A    between atoms: C_13  and  O_15
REMARK    6  A    between atoms: O_15  and  C_17
REMARK    7  A    between atoms: C_17  and  C_18
REMARK    8  A    between atoms: C_18  and  N_20
REMARK    9  A    between atoms: O_24  and  C_29
REMARK                            x       y       z     vdW  Elec       q    Type
REMARK                         _______ _______ _______ _____ _____    ______ ____
ROOT
ATOM      1  N   UNL     1      33.532 -17.726 -23.940  0.00  0.00    -0.180 N 
ATOM      2  N   UNL     1      32.961 -17.350 -25.119  0.00  0.00    -0.151 NA
ATOM      3  N   UNL     1      33.489 -15.072 -24.508  0.00  0.00    -0.187 NA
ATOM      4  C   UNL     1      34.077 -16.843 -23.044  0.00  0.00    +0.126 C 
ATOM      5  C   UNL     1      34.561 -17.553 -21.971  0.00  0.00    +0.034 C 
ATOM      6  C   UNL     1      34.297 -18.923 -22.232  0.00  0.00    +0.153 C 
ATOM      7  C   UNL     1      33.661 -19.001 -23.454  0.00  0.00    +0.126 C 
ATOM      8  C   UNL     1      34.023 -15.468 -23.399  0.00  0.00    +0.247 C 
ATOM      9  C   UNL     1      35.233 -17.049 -20.756  0.00  0.00    +0.036 C 
ATOM     10  C   UNL     1      32.972 -16.061 -25.332  0.00  0.00    +0.220 C 
ENDROOT
BRANCH   6  11
ATOM     11  O   UNL     1      34.591 -19.983 -21.465  0.00  0.00    -0.470 OA
BRANCH  11  12
ATOM     12  C   UNL     1      33.834 -20.150 -20.261  0.00  0.00    +0.249 C 
BRANCH  12  13
ATOM     13  C   UNL     1      34.438 -21.291 -19.452  0.00  0.00    +0.212 C 
ATOM     14  C   UNL     1      35.804 -20.918 -18.898  0.00  0.00    +0.051 C 
BRANCH  13  15
ATOM     15  O   UNL     1      33.562 -21.582 -18.365  0.00  0.00    -0.450 OA
BRANCH  15  17
ATOM     16  O   UNL     1      33.298 -23.753 -19.089  0.00  0.00    -0.252 OA
ATOM     17  C   UNL     1      33.213 -22.898 -18.218  0.00  0.00    +0.296 C 
BRANCH  17  18
ATOM     18  C   UNL     1      32.699 -23.127 -16.809  0.00  0.00    +0.036 C 
ATOM     19  C   UNL     1      31.382 -22.393 -16.591  0.00  0.00    -0.013 C 
BRANCH  18  20
ATOM     20  N   UNL     1      33.703 -22.628 -15.872  0.00  0.00    +0.389 N 
ATOM     21  H   UNL     1      33.582 -21.623 -15.747  0.00  0.00    -0.088 HD
ATOM     22  H   UNL     1      34.635 -22.814 -16.241  0.00  0.00    -0.088 HD
ATOM     23  H   UNL     1      33.594 -23.098 -14.973  0.00  0.00    -0.088 HD
ENDBRANCH  18  20
ENDBRANCH  17  18
ENDBRANCH  15  17
ENDBRANCH  13  15
ENDBRANCH  12  13
ENDBRANCH  11  12
ENDBRANCH   6  11
BRANCH   8  24
ATOM     24  O   UNL     1      34.554 -14.574 -22.531  0.00  0.00    -0.433 OA
BRANCH  24  29
ATOM     25  F   UNL     1      34.168 -12.293 -24.012  0.00  0.00    -0.201 F 
ATOM     26  N   UNL     1      30.903 -10.724 -21.150  0.00  0.00    -0.316 N 
ATOM     27  C   UNL     1      32.489 -11.544 -22.489  0.00  0.00    +0.045 C 
ATOM     28  C   UNL     1      31.756 -11.791 -21.325  0.00  0.00    +0.050 C 
ATOM     29  C   UNL     1      33.631 -13.652 -22.139  0.00  0.00    +0.175 C 
ATOM     30  C   UNL     1      31.073  -9.813 -22.158  0.00  0.00    +0.026 C 
ATOM     31  C   UNL     1      33.444 -12.493 -22.902  0.00  0.00    +0.176 C 
ATOM     32  C   UNL     1      32.047 -10.293 -23.003  0.00  0.00    +0.014 C 
ATOM     33  C   UNL     1      31.932 -12.944 -20.553  0.00  0.00    +0.018 C 
ATOM     34  C   UNL     1      32.885 -13.872 -20.983  0.00  0.00    +0.041 C 
ATOM     35  C   UNL     1      30.280  -8.571 -22.209  0.00  0.00    +0.047 C 
ATOM     36  H   UNL     1      30.265 -10.629 -20.405  0.00  0.00    +0.152 HD
ENDBRANCH  24  29
ENDBRANCH   8  24
TORSDOF 9
ENDMDL
MODEL 8
REMARK VINA RESULT:     -11.2      7.358     11.607
REMARK  Name = 11154925
REMARK  9 active torsions:
REMARK  status: ('A' for Active; 'I' for Inactive)
REMARK    1  A    between atoms: C_6  and  O_11
REMARK    2  A    between atoms: C_8  and  O_24
REMARK    3  A    between atoms: O_11  and  C_12
REMARK    4  A    between atoms: C_12  and  C_13
REMARK    5  A    between atoms: C_13  and  O_15
REMARK    6  A    between atoms: O_15  and  C_17
REMARK    7  A    between atoms: C_17  and  C_18
REMARK    8  A    between atoms: C_18  and  N_20
REMARK    9  A    between atoms: O_24  and  C_29
REMARK                            x       y       z     vdW  Elec       q    Type
REMARK                         _______ _______ _______ _____ _____    ______ ____
ROOT
ATOM      1  N   UNL     1      33.774 -14.572 -23.500  0.00  0.00    -0.180 N 
ATOM      2  N   UNL     1      33.723 -14.236 -24.820  0.00  0.00    -0.151 NA
ATOM      3  N   UNL     1      32.156 -12.505 -24.195  0.00  0.00    -0.187 NA
ATOM      4  C   UNL     1      33.060 -13.925 -22.524  0.00  0.00    +0.126 C 
ATOM      5  C   UNL     1      33.343 -14.514 -21.314  0.00  0.00    +0.034 C 
ATOM      6  C   UNL     1      34.268 -15.559 -21.573  0.00  0.00    +0.153 C 
ATOM      7  C   UNL     1      34.516 -15.572 -22.930  0.00  0.00    +0.126 C 
ATOM      8  C   UNL     1      32.232 -12.852 -22.952  0.00  0.00    +0.247 C 
ATOM      9  C   UNL     1      32.821 -14.172 -19.975  0.00  0.00    +0.036 C 
ATOM     10  C   UNL     1      32.927 -13.236 -25.088  0.00  0.00    +0.220 C 
ENDROOT
BRANCH   6  11
ATOM     11  O   UNL     1      34.826 -16.406 -20.695  0.00  0.00    -0.470 OA
BRANCH  11  12
ATOM     12  C   UNL     1      35.460 -17.575 -21.226  0.00  0.00    +0.249 C 
BRANCH  12  13
ATOM     13  C   UNL     1      34.421 -18.681 -21.361  0.00  0.00    +0.212 C 
ATOM     14  C   UNL     1      34.265 -19.124 -22.808  0.00  0.00    +0.051 C 
BRANCH  13  15
ATOM     15  O   UNL     1      34.848 -19.795 -20.580  0.00  0.00    -0.450 OA
BRANCH  15  17
ATOM     16  O   UNL     1      32.687 -20.115 -19.848  0.00  0.00    -0.252 OA
ATOM     17  C   UNL     1      33.864 -20.450 -19.889  0.00  0.00    +0.296 C 
BRANCH  17  18
ATOM     18  C   UNL     1      34.463 -21.649 -19.178  0.00  0.00    +0.036 C 
ATOM     19  C   UNL     1      33.507 -22.178 -18.117  0.00  0.00    -0.013 C 
BRANCH  18  20
ATOM     20  N   UNL     1      35.714 -21.229 -18.550  0.00  0.00    +0.389 N 
ATOM     21  H   UNL     1      36.381 -21.999 -18.573  0.00  0.00    -0.088 HD
ATOM     22  H   UNL     1      35.535 -20.963 -17.581  0.00  0.00    -0.088 HD
ATOM     23  H   UNL     1      36.097 -20.430 -19.055  0.00  0.00    -0.088 HD
ENDBRANCH  18  20
ENDBRANCH  17  18
ENDBRANCH  15  17
ENDBRANCH  13  15
ENDBRANCH  12  13
ENDBRANCH  11  12
ENDBRANCH   6  11
BRANCH   8  24
ATOM     24  O   UNL     1      31.515 -12.197 -22.008  0.00  0.00    -0.433 OA
BRANCH  24  29
ATOM     25  F   UNL     1      30.808 -10.602 -19.887  0.00  0.00    -0.201 F 
ATOM     26  N   UNL     1      32.294  -6.770 -21.989  0.00  0.00    -0.316 N 
ATOM     27  C   UNL     1      31.596  -8.663 -21.034  0.00  0.00    +0.045 C 
ATOM     28  C   UNL     1      32.183  -8.129 -22.185  0.00  0.00    +0.050 C 
ATOM     29  C   UNL     1      31.734 -10.853 -22.059  0.00  0.00    +0.175 C 
ATOM     30  C   UNL     1      31.799  -6.428 -20.759  0.00  0.00    +0.026 C 
ATOM     31  C   UNL     1      31.368 -10.051 -20.972  0.00  0.00    +0.176 C 
ATOM     32  C   UNL     1      31.360  -7.578 -20.145  0.00  0.00    +0.014 C 
ATOM     33  C   UNL     1      32.554  -8.918 -23.279  0.00  0.00    +0.018 C 
ATOM     34  C   UNL     1      32.318 -10.293 -23.194  0.00  0.00    +0.041 C 
ATOM     35  C   UNL     1      31.797  -5.027 -20.297  0.00  0.00    +0.047 C 
ATOM     36  H   UNL     1      32.674  -6.137 -22.641  0.00  0.00    +0.152 HD
ENDBRANCH  24  29
ENDBRANCH   8  24
TORSDOF 9
ENDMDL
MODEL 9
REMARK VINA RESULT:     -11.2      3.001      9.454
REMARK  Name = 11154925
REMARK  9 active torsions:
REMARK  status: ('A' for Active; 'I' for Inactive)
REMARK    1  A    between atoms: C_6  and  O_11
REMARK    2  A    between atoms: C_8  and  O_24
REMARK    3  A    between atoms: O_11  and  C_12
REMARK    4  A    between atoms: C_12  and  C_13
REMARK    5  A    between atoms: C_13  and  O_15
REMARK    6  A    between atoms: O_15  and  C_17
REMARK    7  A    between atoms: C_17  and  C_18
REMARK    8  A    between atoms: C_18  and  N_20
REMARK    9  A    between atoms: O_24  and  C_29
REMARK                            x       y       z     vdW  Elec       q    Type
REMARK                         _______ _______ _______ _____ _____    ______ ____
ROOT
ATOM      1  N   UNL     1      32.633 -21.359 -18.674  0.00  0.00    -0.180 N 
ATOM      2  N   UNL     1      31.549 -21.821 -17.989  0.00  0.00    -0.151 NA
ATOM      3  N   UNL     1      33.109 -22.888 -16.481  0.00  0.00    -0.187 NA
ATOM      4  C   UNL     1      33.929 -21.624 -18.313  0.00  0.00    +0.126 C 
ATOM      5  C   UNL     1      34.766 -21.008 -19.214  0.00  0.00    +0.034 C 
ATOM      6  C   UNL     1      33.939 -20.344 -20.157  0.00  0.00    +0.153 C 
ATOM      7  C   UNL     1      32.626 -20.577 -19.799  0.00  0.00    +0.126 C 
ATOM      8  C   UNL     1      34.112 -22.429 -17.157  0.00  0.00    +0.247 C 
ATOM      9  C   UNL     1      36.243 -21.003 -19.248  0.00  0.00    +0.036 C 
ATOM     10  C   UNL     1      31.846 -22.550 -16.946  0.00  0.00    +0.220 C 
ENDROOT
BRANCH   6  11
ATOM     11  O   UNL     1      34.314 -19.613 -21.216  0.00  0.00    -0.470 OA
BRANCH  11  12
ATOM     12  C   UNL     1      33.926 -18.235 -21.230  0.00  0.00    +0.249 C 
BRANCH  12  13
ATOM     13  C   UNL     1      35.179 -17.368 -21.214  0.00  0.00    +0.212 C 
ATOM     14  C   UNL     1      36.406 -18.156 -21.645  0.00  0.00    +0.051 C 
BRANCH  13  15
ATOM     15  O   UNL     1      34.985 -16.284 -22.120  0.00  0.00    -0.450 OA
BRANCH  15  17
ATOM     16  O   UNL     1      34.142 -14.921 -20.465  0.00  0.00    -0.252 OA
ATOM     17  C   UNL     1      34.245 -15.235 -21.644  0.00  0.00    +0.296 C 
BRANCH  17  18
ATOM     18  C   UNL     1      33.571 -14.527 -22.803  0.00  0.00    +0.036 C 
ATOM     19  C   UNL     1      33.995 -15.144 -24.129  0.00  0.00    -0.013 C 
BRANCH  18  20
ATOM     20  N   UNL     1      33.961 -13.119 -22.767  0.00  0.00    +0.389 N 
ATOM     21  H   UNL     1      33.305 -12.570 -23.322  0.00  0.00    -0.088 HD
ATOM     22  H   UNL     1      34.900 -13.017 -23.152  0.00  0.00    -0.088 HD
ATOM     23  H   UNL     1      33.952 -12.788 -21.803  0.00  0.00    -0.088 HD
ENDBRANCH  18  20
ENDBRANCH  17  18
ENDBRANCH  15  17
ENDBRANCH  13  15
ENDBRANCH  12  13
ENDBRANCH  11  12
ENDBRANCH   6  11
BRANCH   8  24
ATOM     24  O   UNL     1      35.382 -22.707 -16.779  0.00  0.00    -0.433 OA
BRANCH  24  29
ATOM     25  F   UNL     1      35.550 -21.182 -14.501  0.00  0.00    -0.201 F 
ATOM     26  N   UNL     1      35.546 -24.893 -11.754  0.00  0.00    -0.316 N 
ATOM     27  C   UNL     1      35.544 -23.146 -13.142  0.00  0.00    +0.045 C 
ATOM     28  C   UNL     1      35.495 -24.541 -13.084  0.00  0.00    +0.050 C 
ATOM     29  C   UNL     1      35.419 -23.306 -15.556  0.00  0.00    +0.175 C 
ATOM     30  C   UNL     1      35.627 -23.772 -10.972  0.00  0.00    +0.026 C 
ATOM     31  C   UNL     1      35.505 -22.518 -14.402  0.00  0.00    +0.176 C 
ATOM     32  C   UNL     1      35.627 -22.675 -11.803  0.00  0.00    +0.014 C 
ATOM     33  C   UNL     1      35.408 -25.341 -14.229  0.00  0.00    +0.018 C 
ATOM     34  C   UNL     1      35.370 -24.696 -15.468  0.00  0.00    +0.041 C 
ATOM     35  C   UNL     1      35.696 -23.868  -9.502  0.00  0.00    +0.047 C 
ATOM     36  H   UNL     1      35.529 -25.818 -11.415  0.00  0.00    +0.152 HD
ENDBRANCH  24  29
ENDBRANCH   8  24
TORSDOF 9
ENDMDL
