MODEL 1
REMARK VINA RESULT:     -12.1      0.000      0.000
REMARK  Name = 60698
REMARK  5 active torsions:
REMARK  status: ('A' for Active; 'I' for Inactive)
REMARK    1  A    between atoms: N_1  and  C_22
REMARK    2  A    between atoms: C_2  and  N_9
REMARK    3  A    between atoms: C_13  and  C_18
REMARK    4  A    between atoms: C_22  and  C_23
REMARK    5  A    between atoms: C_23  and  C_24
REMARK                            x       y       z     vdW  Elec       q    Type
REMARK                         _______ _______ _______ _____ _____    ______ ____
ROOT
ATOM      1  N   UNL     1      34.708 -22.111 -17.878  0.00  0.00    +0.387 N 
ATOM      2  C   UNL     1      34.561 -22.688 -15.015  0.00  0.00    +0.077 C 
ATOM      3  C   UNL     1      35.834 -22.161 -15.677  0.00  0.00    -0.003 C 
ATOM      4  C   UNL     1      33.696 -23.421 -16.040  0.00  0.00    -0.003 C 
ATOM      5  C   UNL     1      35.511 -21.335 -16.923  0.00  0.00    -0.076 C 
ATOM      6  C   UNL     1      33.444 -22.553 -17.275  0.00  0.00    -0.076 C 
ATOM      7  H   UNL     1      35.241 -22.942 -18.136  0.00  0.00    -0.080 HD
ENDROOT
BRANCH   2   9
ATOM      8  O   UNL     1      34.305 -23.979 -11.657  0.00  0.00    -0.266 OA
ATOM      9  N   UNL     1      34.878 -23.542 -13.897  0.00  0.00    -0.238 N 
ATOM     10  N   UNL     1      37.180 -23.622 -14.463  0.00  0.00    -0.226 NA
ATOM     11  N   UNL     1      37.357 -26.100 -13.161  0.00  0.00    -0.238 NA
ATOM     12  C   UNL     1      36.171 -24.223 -13.867  0.00  0.00    +0.157 C 
ATOM     13  C   UNL     1      33.959 -23.742 -12.815  0.00  0.00    +0.288 C 
ATOM     14  C   UNL     1      36.201 -25.410 -13.229  0.00  0.00    +0.133 C 
ATOM     15  C   UNL     1      38.336 -24.312 -14.395  0.00  0.00    +0.121 C 
ATOM     16  C   UNL     1      38.424 -25.528 -13.756  0.00  0.00    +0.120 C 
BRANCH  13  18
ATOM     17  O   UNL     1      31.958 -24.842 -13.500  0.00  0.00    -0.446 OA
ATOM     18  C   UNL     1      32.532 -23.683 -13.152  0.00  0.00    +0.199 C 
ATOM     19  C   UNL     1      31.686 -22.635 -13.168  0.00  0.00    +0.045 C 
ATOM     20  C   UNL     1      30.444 -23.181 -13.568  0.00  0.00    +0.044 C 
ATOM     21  C   UNL     1      30.661 -24.526 -13.758  0.00  0.00    +0.180 C 
ENDBRANCH  13  18
ENDBRANCH   2   9
BRANCH   1  22
ATOM     22  C   UNL     1      34.452 -21.325 -19.086  0.00  0.00    -0.073 C 
BRANCH  22  23
ATOM     23  C   UNL     1      35.694 -20.535 -19.500  0.00  0.00    +0.004 C 
BRANCH  23  24
ATOM     24  C   UNL     1      35.392 -19.579 -20.626  0.00  0.00    -0.024 C 
ATOM     25  C   UNL     1      34.156 -19.632 -21.252  0.00  0.00    -0.004 C 
ATOM     26  C   UNL     1      36.355 -18.660 -21.016  0.00  0.00    -0.004 C 
ATOM     27  C   UNL     1      33.876 -18.747 -22.293  0.00  0.00    -0.000 C 
ATOM     28  C   UNL     1      36.075 -17.775 -22.056  0.00  0.00    -0.000 C 
ATOM     29  C   UNL     1      34.836 -17.817 -22.695  0.00  0.00    -0.000 C 
ENDBRANCH  23  24
ENDBRANCH  22  23
ENDBRANCH   1  22
TORSDOF 5
ENDMDL
MODEL 2
REMARK VINA RESULT:     -10.7      1.867      4.504
REMARK  Name = 60698
REMARK  5 active torsions:
REMARK  status: ('A' for Active; 'I' for Inactive)
REMARK    1  A    between atoms: N_1  and  C_22
REMARK    2  A    between atoms: C_2  and  N_9
REMARK    3  A    between atoms: C_13  and  C_18
REMARK    4  A    between atoms: C_22  and  C_23
REMARK    5  A    between atoms: C_23  and  C_24
REMARK                            x       y       z     vdW  Elec       q    Type
REMARK                         _______ _______ _______ _____ _____    ______ ____
ROOT
ATOM      1  N   UNL     1      34.594 -21.267 -18.894  0.00  0.00    +0.387 N 
ATOM      2  C   UNL     1      33.926 -23.062 -16.684  0.00  0.00    +0.077 C 
ATOM      3  C   UNL     1      32.965 -22.802 -17.843  0.00  0.00    -0.003 C 
ATOM      4  C   UNL     1      34.882 -21.881 -16.515  0.00  0.00    -0.003 C 
ATOM      5  C   UNL     1      33.721 -22.427 -19.119  0.00  0.00    -0.076 C 
ATOM      6  C   UNL     1      35.575 -21.536 -17.834  0.00  0.00    -0.076 C 
ATOM      7  H   UNL     1      34.010 -20.487 -18.590  0.00  0.00    -0.080 HD
ENDROOT
BRANCH   2   9
ATOM      8  O   UNL     1      33.179 -24.711 -13.564  0.00  0.00    -0.266 OA
ATOM      9  N   UNL     1      33.202 -23.322 -15.464  0.00  0.00    -0.238 N 
ATOM     10  N   UNL     1      31.110 -22.816 -16.462  0.00  0.00    -0.226 NA
ATOM     11  N   UNL     1      30.129 -22.134 -13.924  0.00  0.00    -0.238 NA
ATOM     12  C   UNL     1      31.815 -22.874 -15.350  0.00  0.00    +0.157 C 
ATOM     13  C   UNL     1      33.805 -24.009 -14.360  0.00  0.00    +0.288 C 
ATOM     14  C   UNL     1      31.394 -22.559 -14.109  0.00  0.00    +0.133 C 
ATOM     15  C   UNL     1      29.844 -22.390 -16.276  0.00  0.00    +0.121 C 
ATOM     16  C   UNL     1      29.362 -22.056 -15.030  0.00  0.00    +0.120 C 
BRANCH  13  18
ATOM     17  O   UNL     1      35.620 -22.753 -13.461  0.00  0.00    -0.446 OA
ATOM     18  C   UNL     1      35.249 -23.817 -14.182  0.00  0.00    +0.199 C 
ATOM     19  C   UNL     1      36.284 -24.551 -14.634  0.00  0.00    +0.045 C 
ATOM     20  C   UNL     1      37.435 -23.885 -14.151  0.00  0.00    +0.044 C 
ATOM     21  C   UNL     1      36.978 -22.798 -13.443  0.00  0.00    +0.180 C 
ENDBRANCH  13  18
ENDBRANCH   2   9
BRANCH   1  22
ATOM     22  C   UNL     1      35.271 -20.888 -20.134  0.00  0.00    -0.073 C 
BRANCH  22  23
ATOM     23  C   UNL     1      35.713 -19.425 -20.094  0.00  0.00    +0.004 C 
BRANCH  23  24
ATOM     24  C   UNL     1      35.148 -18.644 -21.253  0.00  0.00    -0.024 C 
ATOM     25  C   UNL     1      35.308 -17.267 -21.290  0.00  0.00    -0.004 C 
ATOM     26  C   UNL     1      34.477 -19.316 -22.264  0.00  0.00    -0.004 C 
ATOM     27  C   UNL     1      34.785 -16.544 -22.362  0.00  0.00    -0.000 C 
ATOM     28  C   UNL     1      33.955 -18.593 -23.337  0.00  0.00    -0.000 C 
ATOM     29  C   UNL     1      34.109 -17.208 -23.387  0.00  0.00    -0.000 C 
ENDBRANCH  23  24
ENDBRANCH  22  23
ENDBRANCH   1  22
TORSDOF 5
ENDMDL
MODEL 3
REMARK VINA RESULT:     -10.6      1.598      2.344
REMARK  Name = 60698
REMARK  5 active torsions:
REMARK  status: ('A' for Active; 'I' for Inactive)
REMARK    1  A    between atoms: N_1  and  C_22
REMARK    2  A    between atoms: C_2  and  N_9
REMARK    3  A    between atoms: C_13  and  C_18
REMARK    4  A    between atoms: C_22  and  C_23
REMARK    5  A    between atoms: C_23  and  C_24
REMARK                            x       y       z     vdW  Elec       q    Type
REMARK                         _______ _______ _______ _____ _____    ______ ____
ROOT
ATOM      1  N   UNL     1      33.685 -21.677 -17.803  0.00  0.00    +0.387 N 
ATOM      2  C   UNL     1      33.284 -23.234 -15.360  0.00  0.00    +0.077 C 
ATOM      3  C   UNL     1      32.137 -22.509 -16.063  0.00  0.00    -0.003 C 
ATOM      4  C   UNL     1      34.616 -22.559 -15.687  0.00  0.00    -0.003 C 
ATOM      5  C   UNL     1      32.408 -22.362 -17.561  0.00  0.00    -0.076 C 
ATOM      6  C   UNL     1      34.805 -22.410 -17.198  0.00  0.00    -0.076 C 
ATOM      7  H   UNL     1      33.637 -20.757 -17.363  0.00  0.00    -0.080 HD
ENDROOT
BRANCH   2   9
ATOM      8  O   UNL     1      31.514 -22.706 -12.262  0.00  0.00    -0.266 OA
ATOM      9  N   UNL     1      33.064 -23.284 -13.936  0.00  0.00    -0.238 N 
ATOM     10  N   UNL     1      35.360 -22.937 -13.452  0.00  0.00    -0.226 NA
ATOM     11  N   UNL     1      34.989 -24.263 -11.009  0.00  0.00    -0.238 NA
ATOM     12  C   UNL     1      34.212 -23.436 -13.043  0.00  0.00    +0.157 C 
ATOM     13  C   UNL     1      31.750 -23.189 -13.370  0.00  0.00    +0.288 C 
ATOM     14  C   UNL     1      33.979 -24.081 -11.883  0.00  0.00    +0.133 C 
ATOM     15  C   UNL     1      36.371 -23.119 -12.578  0.00  0.00    +0.121 C 
ATOM     16  C   UNL     1      36.189 -23.770 -11.378  0.00  0.00    +0.120 C 
BRANCH  13  18
ATOM     17  O   UNL     1      30.620 -25.067 -14.306  0.00  0.00    -0.446 OA
ATOM     18  C   UNL     1      30.652 -23.736 -14.177  0.00  0.00    +0.199 C 
ATOM     19  C   UNL     1      29.650 -23.106 -14.819  0.00  0.00    +0.045 C 
ATOM     20  C   UNL     1      28.901 -24.143 -15.423  0.00  0.00    +0.044 C 
ATOM     21  C   UNL     1      29.531 -25.317 -15.081  0.00  0.00    +0.180 C 
ENDBRANCH  13  18
ENDBRANCH   2   9
BRANCH   1  22
ATOM     22  C   UNL     1      33.906 -21.498 -19.238  0.00  0.00    -0.073 C 
BRANCH  22  23
ATOM     23  C   UNL     1      35.299 -20.930 -19.512  0.00  0.00    +0.004 C 
BRANCH  23  24
ATOM     24  C   UNL     1      35.254 -19.826 -20.537  0.00  0.00    -0.024 C 
ATOM     25  C   UNL     1      36.357 -19.000 -20.698  0.00  0.00    -0.004 C 
ATOM     26  C   UNL     1      34.111 -19.654 -21.304  0.00  0.00    -0.004 C 
ATOM     27  C   UNL     1      36.316 -17.978 -21.647  0.00  0.00    -0.000 C 
ATOM     28  C   UNL     1      34.070 -18.632 -22.253  0.00  0.00    -0.000 C 
ATOM     29  C   UNL     1      35.172 -17.795 -22.425  0.00  0.00    -0.000 C 
ENDBRANCH  23  24
ENDBRANCH  22  23
ENDBRANCH   1  22
TORSDOF 5
ENDMDL
MODEL 4
REMARK VINA RESULT:      -9.7     12.697     17.660
REMARK  Name = 60698
REMARK  5 active torsions:
REMARK  status: ('A' for Active; 'I' for Inactive)
REMARK    1  A    between atoms: N_1  and  C_22
REMARK    2  A    between atoms: C_2  and  N_9
REMARK    3  A    between atoms: C_13  and  C_18
REMARK    4  A    between atoms: C_22  and  C_23
REMARK    5  A    between atoms: C_23  and  C_24
REMARK                            x       y       z     vdW  Elec       q    Type
REMARK                         _______ _______ _______ _____ _____    ______ ____
ROOT
ATOM      1  N   UNL     1      31.954  -9.615 -22.362  0.00  0.00    +0.387 N 
ATOM      2  C   UNL     1      31.988  -7.165 -23.959  0.00  0.00    +0.077 C 
ATOM      3  C   UNL     1      33.266  -7.801 -23.413  0.00  0.00    -0.003 C 
ATOM      4  C   UNL     1      30.791  -7.559 -23.094  0.00  0.00    -0.003 C 
ATOM      5  C   UNL     1      33.101  -9.311 -23.229  0.00  0.00    -0.076 C 
ATOM      6  C   UNL     1      30.707  -9.076 -22.921  0.00  0.00    -0.076 C 
ATOM      7  H   UNL     1      32.114  -9.166 -21.460  0.00  0.00    -0.080 HD
ENDROOT
BRANCH   2   9
ATOM      8  O   UNL     1      31.277  -3.723 -23.151  0.00  0.00    -0.266 OA
ATOM      9  N   UNL     1      32.121  -5.732 -24.041  0.00  0.00    -0.238 N 
ATOM     10  N   UNL     1      32.552  -5.788 -26.373  0.00  0.00    -0.226 NA
ATOM     11  N   UNL     1      33.954  -3.372 -26.115  0.00  0.00    -0.238 NA
ATOM     12  C   UNL     1      32.714  -5.139 -25.238  0.00  0.00    +0.157 C 
ATOM     13  C   UNL     1      31.687  -4.872 -22.979  0.00  0.00    +0.288 C 
ATOM     14  C   UNL     1      33.377  -3.978 -25.058  0.00  0.00    +0.133 C 
ATOM     15  C   UNL     1      33.129  -5.181 -27.429  0.00  0.00    +0.121 C 
ATOM     16  C   UNL     1      33.818  -3.995 -27.303  0.00  0.00    +0.120 C 
BRANCH  13  18
ATOM     17  O   UNL     1      32.972  -5.905 -21.257  0.00  0.00    -0.446 OA
ATOM     18  C   UNL     1      31.779  -5.417 -21.619  0.00  0.00    +0.199 C 
ATOM     19  C   UNL     1      30.843  -5.507 -20.655  0.00  0.00    +0.045 C 
ATOM     20  C   UNL     1      31.507  -6.117 -19.565  0.00  0.00    +0.044 C 
ATOM     21  C   UNL     1      32.799  -6.339 -19.981  0.00  0.00    +0.180 C 
ENDBRANCH  13  18
ENDBRANCH   2   9
BRANCH   1  22
ATOM     22  C   UNL     1      31.840 -11.059 -22.154  0.00  0.00    -0.073 C 
BRANCH  22  23
ATOM     23  C   UNL     1      32.748 -11.825 -23.118  0.00  0.00    +0.004 C 
BRANCH  23  24
ATOM     24  C   UNL     1      33.277 -13.090 -22.492  0.00  0.00    -0.024 C 
ATOM     25  C   UNL     1      33.839 -14.067 -23.300  0.00  0.00    -0.004 C 
ATOM     26  C   UNL     1      33.193 -13.257 -21.118  0.00  0.00    -0.004 C 
ATOM     27  C   UNL     1      34.329 -15.237 -22.722  0.00  0.00    -0.000 C 
ATOM     28  C   UNL     1      33.684 -14.427 -20.539  0.00  0.00    -0.000 C 
ATOM     29  C   UNL     1      34.252 -15.417 -21.340  0.00  0.00    -0.000 C 
ENDBRANCH  23  24
ENDBRANCH  22  23
ENDBRANCH   1  22
TORSDOF 5
ENDMDL
MODEL 5
REMARK VINA RESULT:      -9.4     12.019     17.122
REMARK  Name = 60698
REMARK  5 active torsions:
REMARK  status: ('A' for Active; 'I' for Inactive)
REMARK    1  A    between atoms: N_1  and  C_22
REMARK    2  A    between atoms: C_2  and  N_9
REMARK    3  A    between atoms: C_13  and  C_18
REMARK    4  A    between atoms: C_22  and  C_23
REMARK    5  A    between atoms: C_23  and  C_24
REMARK                            x       y       z     vdW  Elec       q    Type
REMARK                         _______ _______ _______ _____ _____    ______ ____
ROOT
ATOM      1  N   UNL     1      33.378 -10.702 -23.145  0.00  0.00    +0.387 N 
ATOM      2  C   UNL     1      32.973  -7.875 -23.778  0.00  0.00    +0.077 C 
ATOM      3  C   UNL     1      34.365  -8.493 -23.660  0.00  0.00    -0.003 C 
ATOM      4  C   UNL     1      31.966  -8.679 -22.956  0.00  0.00    -0.003 C 
ATOM      5  C   UNL     1      34.341  -9.986 -23.994  0.00  0.00    -0.076 C 
ATOM      6  C   UNL     1      32.020 -10.166 -23.312  0.00  0.00    -0.076 C 
ATOM      7  H   UNL     1      33.653 -10.564 -22.172  0.00  0.00    -0.080 HD
ENDROOT
BRANCH   2   9
ATOM      8  O   UNL     1      33.950  -4.405 -23.878  0.00  0.00    -0.266 OA
ATOM      9  N   UNL     1      32.988  -6.492 -23.371  0.00  0.00    -0.238 N 
ATOM     10  N   UNL     1      32.744  -7.044 -21.077  0.00  0.00    -0.226 NA
ATOM     11  N   UNL     1      31.569  -4.532 -20.655  0.00  0.00    -0.238 NA
ATOM     12  C   UNL     1      32.555  -6.143 -22.019  0.00  0.00    +0.157 C 
ATOM     13  C   UNL     1      33.417  -5.449 -24.256  0.00  0.00    +0.288 C 
ATOM     14  C   UNL     1      31.997  -4.925 -21.871  0.00  0.00    +0.133 C 
ATOM     15  C   UNL     1      32.316  -6.652 -19.860  0.00  0.00    +0.121 C 
ATOM     16  C   UNL     1      31.740  -5.418 -19.652  0.00  0.00    +0.120 C 
BRANCH  13  18
ATOM     17  O   UNL     1      34.209  -5.496 -26.504  0.00  0.00    -0.446 OA
ATOM     18  C   UNL     1      33.162  -5.661 -25.686  0.00  0.00    +0.199 C 
ATOM     19  C   UNL     1      32.026  -6.003 -26.323  0.00  0.00    +0.045 C 
ATOM     20  C   UNL     1      32.385  -6.061 -27.691  0.00  0.00    +0.044 C 
ATOM     21  C   UNL     1      33.722  -5.745 -27.748  0.00  0.00    +0.180 C 
ENDBRANCH  13  18
ENDBRANCH   2   9
BRANCH   1  22
ATOM     22  C   UNL     1      33.403 -12.134 -23.440  0.00  0.00    -0.073 C 
BRANCH  22  23
ATOM     23  C   UNL     1      33.444 -12.959 -22.153  0.00  0.00    +0.004 C 
BRANCH  23  24
ATOM     24  C   UNL     1      33.855 -14.384 -22.421  0.00  0.00    -0.024 C 
ATOM     25  C   UNL     1      33.862 -14.858 -23.724  0.00  0.00    -0.004 C 
ATOM     26  C   UNL     1      34.220 -15.199 -21.359  0.00  0.00    -0.004 C 
ATOM     27  C   UNL     1      34.242 -16.177 -23.973  0.00  0.00    -0.000 C 
ATOM     28  C   UNL     1      34.601 -16.518 -21.608  0.00  0.00    -0.000 C 
ATOM     29  C   UNL     1      34.612 -17.007 -22.914  0.00  0.00    -0.000 C 
ENDBRANCH  23  24
ENDBRANCH  22  23
ENDBRANCH   1  22
TORSDOF 5
ENDMDL
MODEL 6
REMARK VINA RESULT:      -9.4     13.084     18.021
REMARK  Name = 60698
REMARK  5 active torsions:
REMARK  status: ('A' for Active; 'I' for Inactive)
REMARK    1  A    between atoms: N_1  and  C_22
REMARK    2  A    between atoms: C_2  and  N_9
REMARK    3  A    between atoms: C_13  and  C_18
REMARK    4  A    between atoms: C_22  and  C_23
REMARK    5  A    between atoms: C_23  and  C_24
REMARK                            x       y       z     vdW  Elec       q    Type
REMARK                         _______ _______ _______ _____ _____    ______ ____
ROOT
ATOM      1  N   UNL     1      32.835  -9.146 -23.048  0.00  0.00    +0.387 N 
ATOM      2  C   UNL     1      32.074  -6.464 -23.930  0.00  0.00    +0.077 C 
ATOM      3  C   UNL     1      33.378  -6.737 -23.181  0.00  0.00    -0.003 C 
ATOM      4  C   UNL     1      31.038  -7.537 -23.598  0.00  0.00    -0.003 C 
ATOM      5  C   UNL     1      33.865  -8.167 -23.419  0.00  0.00    -0.076 C 
ATOM      6  C   UNL     1      31.603  -8.941 -23.822  0.00  0.00    -0.076 C 
ATOM      7  H   UNL     1      32.612  -9.011 -22.062  0.00  0.00    -0.080 HD
ENDROOT
BRANCH   2   9
ATOM      8  O   UNL     1      30.041  -4.000 -22.253  0.00  0.00    -0.266 OA
ATOM      9  N   UNL     1      31.572  -5.146 -23.625  0.00  0.00    -0.238 N 
ATOM     10  N   UNL     1      31.756  -4.428 -25.879  0.00  0.00    -0.226 NA
ATOM     11  N   UNL     1      32.009  -1.791 -24.959  0.00  0.00    -0.238 NA
ATOM     12  C   UNL     1      31.735  -4.078 -24.609  0.00  0.00    +0.157 C 
ATOM     13  C   UNL     1      30.918  -4.856 -22.383  0.00  0.00    +0.288 C 
ATOM     14  C   UNL     1      31.852  -2.829 -24.114  0.00  0.00    +0.133 C 
ATOM     15  C   UNL     1      31.913  -3.390 -26.724  0.00  0.00    +0.121 C 
ATOM     16  C   UNL     1      32.036  -2.094 -26.273  0.00  0.00    +0.120 C 
BRANCH  13  18
ATOM     17  O   UNL     1      30.786  -6.816 -21.033  0.00  0.00    -0.446 OA
ATOM     18  C   UNL     1      31.366  -5.624 -21.215  0.00  0.00    +0.199 C 
ATOM     19  C   UNL     1      32.285  -5.321 -20.278  0.00  0.00    +0.045 C 
ATOM     20  C   UNL     1      32.291  -6.436 -19.407  0.00  0.00    +0.044 C 
ATOM     21  C   UNL     1      31.363  -7.318 -19.909  0.00  0.00    +0.180 C 
ENDBRANCH  13  18
ENDBRANCH   2   9
BRANCH   1  22
ATOM     22  C   UNL     1      33.334 -10.509 -23.233  0.00  0.00    -0.073 C 
BRANCH  22  23
ATOM     23  C   UNL     1      32.326 -11.537 -22.718  0.00  0.00    +0.004 C 
BRANCH  23  24
ATOM     24  C   UNL     1      32.999 -12.831 -22.338  0.00  0.00    -0.024 C 
ATOM     25  C   UNL     1      33.557 -13.626 -23.328  0.00  0.00    -0.004 C 
ATOM     26  C   UNL     1      33.051 -13.205 -21.003  0.00  0.00    -0.004 C 
ATOM     27  C   UNL     1      34.180 -14.823 -22.976  0.00  0.00    -0.000 C 
ATOM     28  C   UNL     1      33.675 -14.402 -20.651  0.00  0.00    -0.000 C 
ATOM     29  C   UNL     1      34.240 -15.211 -21.636  0.00  0.00    -0.000 C 
ENDBRANCH  23  24
ENDBRANCH  22  23
ENDBRANCH   1  22
TORSDOF 5
ENDMDL
