MODEL 1
REMARK VINA RESULT:     -12.1      0.000      0.000
REMARK  Name = 23647659
REMARK  4 active torsions:
REMARK  status: ('A' for Active; 'I' for Inactive)
REMARK    1  A    between atoms: C_2  and  C_17
REMARK    2  A    between atoms: C_3  and  C_10
REMARK    3  A    between atoms: C_18  and  S_23
REMARK    4  A    between atoms: S_23  and  N_26
REMARK                            x       y       z     vdW  Elec       q    Type
REMARK                         _______ _______ _______ _____ _____    ______ ____
ROOT
ATOM      1  O   UNL     1      34.279 -19.248 -21.366  0.00  0.00    -0.454 OA
ATOM      2  C   UNL     1      35.244 -19.646 -20.497  0.00  0.00    +0.145 C 
ATOM      3  C   UNL     1      34.887 -18.452 -22.285  0.00  0.00    +0.143 C 
ATOM      4  C   UNL     1      36.462 -19.111 -20.848  0.00  0.00    +0.041 C 
ATOM      5  C   UNL     1      36.229 -18.336 -22.010  0.00  0.00    +0.040 C 
ENDROOT
BRANCH   3  10
ATOM      6  S   UNL     1      34.505 -15.429 -22.113  0.00  0.00    -0.027 S 
ATOM      7  O   UNL     1      32.761 -16.305 -25.378  0.00  0.00    -0.209 OA
ATOM      8  N   UNL     1      33.192 -14.416 -24.107  0.00  0.00    -0.311 NA
ATOM      9  N   UNL     1      33.901 -12.852 -22.448  0.00  0.00    -0.327 N 
ATOM     10  C   UNL     1      34.176 -17.856 -23.351  0.00  0.00    +0.031 C 
ATOM     11  C   UNL     1      33.974 -16.511 -23.331  0.00  0.00    +0.126 C 
ATOM     12  C   UNL     1      33.602 -18.631 -24.535  0.00  0.00    +0.036 C 
ATOM     13  C   UNL     1      33.244 -15.767 -24.391  0.00  0.00    +0.212 C 
ATOM     14  C   UNL     1      33.782 -14.093 -22.996  0.00  0.00    +0.222 C 
ATOM     15  H   UNL     1      34.375 -12.734 -21.593  0.00  0.00    +0.145 HD
ATOM     16  H   UNL     1      33.512 -12.072 -22.906  0.00  0.00    +0.145 HD
ENDBRANCH   3  10
BRANCH   2  17
ATOM     17  C   UNL     1      34.800 -20.510 -19.431  0.00  0.00    +0.035 C 
ATOM     18  C   UNL     1      33.936 -22.176 -17.366  0.00  0.00    +0.122 C 
ATOM     19  C   UNL     1      35.702 -20.943 -18.461  0.00  0.00    +0.004 C 
ATOM     20  C   UNL     1      33.465 -20.910 -19.369  0.00  0.00    +0.004 C 
ATOM     21  C   UNL     1      35.271 -21.776 -17.429  0.00  0.00    +0.020 C 
ATOM     22  C   UNL     1      33.032 -21.743 -18.337  0.00  0.00    +0.020 C 
BRANCH  18  23
ATOM     23  S   UNL     1      33.396 -23.222 -16.077  0.00  0.00    +0.057 S 
ATOM     24  O   UNL     1      31.969 -23.459 -16.245  0.00  0.00    -0.153 OA
ATOM     25  O   UNL     1      34.310 -24.351 -15.985  0.00  0.00    -0.153 OA
BRANCH  23  26
ATOM     26  N   UNL     1      33.632 -22.213 -14.719  0.00  0.00    -0.203 NA
ATOM     27  H   UNL     1      34.237 -21.433 -14.976  0.00  0.00    +0.144 HD
ATOM     28  H   UNL     1      34.070 -22.750 -13.969  0.00  0.00    +0.144 HD
ENDBRANCH  23  26
ENDBRANCH  18  23
ENDBRANCH   2  17
TORSDOF 4
ENDMDL
MODEL 2
REMARK VINA RESULT:     -11.5      1.425      1.946
REMARK  Name = 23647659
REMARK  4 active torsions:
REMARK  status: ('A' for Active; 'I' for Inactive)
REMARK    1  A    between atoms: C_2  and  C_17
REMARK    2  A    between atoms: C_3  and  C_10
REMARK    3  A    between atoms: C_18  and  S_23
REMARK    4  A    between atoms: S_23  and  N_26
REMARK                            x       y       z     vdW  Elec       q    Type
REMARK                         _______ _______ _______ _____ _____    ______ ____
ROOT
ATOM      1  O   UNL     1      34.190 -18.000 -21.780  0.00  0.00    -0.454 OA
ATOM      2  C   UNL     1      35.124 -18.744 -21.133  0.00  0.00    +0.145 C 
ATOM      3  C   UNL     1      34.867 -17.099 -22.539  0.00  0.00    +0.143 C 
ATOM      4  C   UNL     1      36.391 -18.327 -21.467  0.00  0.00    +0.041 C 
ATOM      5  C   UNL     1      36.224 -17.259 -22.381  0.00  0.00    +0.040 C 
ENDROOT
BRANCH   3  10
ATOM      6  S   UNL     1      33.779 -14.630 -21.112  0.00  0.00    -0.027 S 
ATOM      7  O   UNL     1      32.788 -14.006 -24.731  0.00  0.00    -0.209 OA
ATOM      8  N   UNL     1      32.579 -12.948 -22.680  0.00  0.00    -0.311 NA
ATOM      9  N   UNL     1      32.655 -12.325 -20.376  0.00  0.00    -0.327 N 
ATOM     10  C   UNL     1      34.205 -16.154 -23.355  0.00  0.00    +0.031 C 
ATOM     11  C   UNL     1      33.698 -15.032 -22.776  0.00  0.00    +0.126 C 
ATOM     12  C   UNL     1      34.007 -16.314 -24.860  0.00  0.00    +0.036 C 
ATOM     13  C   UNL     1      32.982 -13.966 -23.524  0.00  0.00    +0.212 C 
ATOM     14  C   UNL     1      32.907 -13.140 -21.438  0.00  0.00    +0.222 C 
ATOM     15  H   UNL     1      32.957 -12.582 -19.475  0.00  0.00    +0.145 HD
ATOM     16  H   UNL     1      32.169 -11.479 -20.509  0.00  0.00    +0.145 HD
ENDBRANCH   3  10
BRANCH   2  17
ATOM     17  C   UNL     1      34.604 -19.771 -20.264  0.00  0.00    +0.035 C 
ATOM     18  C   UNL     1      33.601 -21.762 -18.586  0.00  0.00    +0.122 C 
ATOM     19  C   UNL     1      33.227 -19.958 -20.149  0.00  0.00    +0.004 C 
ATOM     20  C   UNL     1      35.480 -20.580 -19.538  0.00  0.00    +0.004 C 
ATOM     21  C   UNL     1      32.725 -20.953 -19.311  0.00  0.00    +0.020 C 
ATOM     22  C   UNL     1      34.979 -21.575 -18.699  0.00  0.00    +0.020 C 
BRANCH  18  23
ATOM     23  S   UNL     1      32.973 -23.005 -17.533  0.00  0.00    +0.057 S 
ATOM     24  O   UNL     1      31.716 -22.535 -16.967  0.00  0.00    -0.153 OA
ATOM     25  O   UNL     1      33.015 -24.276 -18.242  0.00  0.00    -0.153 OA
BRANCH  23  26
ATOM     26  N   UNL     1      34.160 -23.023 -16.305  0.00  0.00    -0.203 NA
ATOM     27  H   UNL     1      35.088 -23.002 -16.728  0.00  0.00    +0.144 HD
ATOM     28  H   UNL     1      34.059 -23.871 -15.747  0.00  0.00    +0.144 HD
ENDBRANCH  23  26
ENDBRANCH  18  23
ENDBRANCH   2  17
TORSDOF 4
ENDMDL
MODEL 3
REMARK VINA RESULT:     -11.2      3.640     10.149
REMARK  Name = 23647659
REMARK  4 active torsions:
REMARK  status: ('A' for Active; 'I' for Inactive)
REMARK    1  A    between atoms: C_2  and  C_17
REMARK    2  A    between atoms: C_3  and  C_10
REMARK    3  A    between atoms: C_18  and  S_23
REMARK    4  A    between atoms: S_23  and  N_26
REMARK                            x       y       z     vdW  Elec       q    Type
REMARK                         _______ _______ _______ _____ _____    ______ ____
ROOT
ATOM      1  O   UNL     1      35.129 -23.259 -16.363  0.00  0.00    -0.454 OA
ATOM      2  C   UNL     1      34.071 -22.555 -16.842  0.00  0.00    +0.145 C 
ATOM      3  C   UNL     1      34.662 -24.008 -15.329  0.00  0.00    +0.143 C 
ATOM      4  C   UNL     1      32.933 -22.845 -16.126  0.00  0.00    +0.041 C 
ATOM      5  C   UNL     1      33.318 -23.789 -15.144  0.00  0.00    +0.040 C 
ENDROOT
BRANCH   3  10
ATOM      6  S   UNL     1      35.333 -23.113 -12.489  0.00  0.00    -0.027 S 
ATOM      7  O   UNL     1      37.197 -26.415 -12.784  0.00  0.00    -0.209 OA
ATOM      8  N   UNL     1      36.872 -24.754 -11.201  0.00  0.00    -0.311 NA
ATOM      9  N   UNL     1      36.213 -22.805  -9.990  0.00  0.00    -0.327 N 
ATOM     10  C   UNL     1      35.500 -24.873 -14.589  0.00  0.00    +0.031 C 
ATOM     11  C   UNL     1      35.834 -24.528 -13.317  0.00  0.00    +0.126 C 
ATOM     12  C   UNL     1      36.072 -26.180 -15.131  0.00  0.00    +0.036 C 
ATOM     13  C   UNL     1      36.705 -25.351 -12.437  0.00  0.00    +0.212 C 
ATOM     14  C   UNL     1      36.244 -23.625 -11.077  0.00  0.00    +0.222 C 
ATOM     15  H   UNL     1      35.696 -21.968 -10.018  0.00  0.00    +0.145 HD
ATOM     16  H   UNL     1      36.708 -23.050  -9.174  0.00  0.00    +0.145 HD
ENDBRANCH   3  10
BRANCH   2  17
ATOM     17  C   UNL     1      34.359 -21.686 -17.957  0.00  0.00    +0.035 C 
ATOM     18  C   UNL     1      34.915 -20.010 -20.117  0.00  0.00    +0.122 C 
ATOM     19  C   UNL     1      35.674 -21.308 -18.226  0.00  0.00    +0.004 C 
ATOM     20  C   UNL     1      33.322 -21.225 -18.768  0.00  0.00    +0.004 C 
ATOM     21  C   UNL     1      35.952 -20.470 -19.305  0.00  0.00    +0.020 C 
ATOM     22  C   UNL     1      33.599 -20.387 -19.848  0.00  0.00    +0.020 C 
BRANCH  18  23
ATOM     23  S   UNL     1      35.262 -18.957 -21.466  0.00  0.00    +0.057 S 
ATOM     24  O   UNL     1      36.708 -18.870 -21.619  0.00  0.00    -0.153 OA
ATOM     25  O   UNL     1      34.439 -19.366 -22.595  0.00  0.00    -0.153 OA
BRANCH  23  26
ATOM     26  N   UNL     1      34.679 -17.465 -20.874  0.00  0.00    -0.203 NA
ATOM     27  H   UNL     1      35.350 -16.727 -21.089  0.00  0.00    +0.144 HD
ATOM     28  H   UNL     1      34.554 -17.526 -19.863  0.00  0.00    +0.144 HD
ENDBRANCH  23  26
ENDBRANCH  18  23
ENDBRANCH   2  17
TORSDOF 4
ENDMDL
MODEL 4
REMARK VINA RESULT:     -11.2      2.215      8.688
REMARK  Name = 23647659
REMARK  4 active torsions:
REMARK  status: ('A' for Active; 'I' for Inactive)
REMARK    1  A    between atoms: C_2  and  C_17
REMARK    2  A    between atoms: C_3  and  C_10
REMARK    3  A    between atoms: C_18  and  S_23
REMARK    4  A    between atoms: S_23  and  N_26
REMARK                            x       y       z     vdW  Elec       q    Type
REMARK                         _______ _______ _______ _____ _____    ______ ____
ROOT
ATOM      1  O   UNL     1      34.188 -18.655 -20.579  0.00  0.00    -0.454 OA
ATOM      2  C   UNL     1      35.100 -17.877 -21.216  0.00  0.00    +0.145 C 
ATOM      3  C   UNL     1      34.854 -19.756 -20.141  0.00  0.00    +0.143 C 
ATOM      4  C   UNL     1      36.342 -18.469 -21.194  0.00  0.00    +0.041 C 
ATOM      5  C   UNL     1      36.181 -19.689 -20.495  0.00  0.00    +0.040 C 
ENDROOT
BRANCH   3  10
ATOM      6  S   UNL     1      36.356 -20.848 -17.719  0.00  0.00    -0.027 S 
ATOM      7  O   UNL     1      33.169 -22.924 -17.728  0.00  0.00    -0.209 OA
ATOM      8  N   UNL     1      35.104 -22.742 -16.466  0.00  0.00    -0.311 NA
ATOM      9  N   UNL     1      37.225 -22.138 -15.551  0.00  0.00    -0.327 N 
ATOM     10  C   UNL     1      34.208 -20.791 -19.427  0.00  0.00    +0.031 C 
ATOM     11  C   UNL     1      34.828 -21.318 -18.337  0.00  0.00    +0.126 C 
ATOM     12  C   UNL     1      32.849 -21.373 -19.807  0.00  0.00    +0.036 C 
ATOM     13  C   UNL     1      34.255 -22.408 -17.504  0.00  0.00    +0.212 C 
ATOM     14  C   UNL     1      36.199 -22.045 -16.443  0.00  0.00    +0.222 C 
ATOM     15  H   UNL     1      38.009 -21.550 -15.639  0.00  0.00    +0.145 HD
ATOM     16  H   UNL     1      37.182 -22.795 -14.818  0.00  0.00    +0.145 HD
ENDBRANCH   3  10
BRANCH   2  17
ATOM     17  C   UNL     1      34.588 -16.643 -21.762  0.00  0.00    +0.035 C 
ATOM     18  C   UNL     1      33.593 -14.259 -22.816  0.00  0.00    +0.122 C 
ATOM     19  C   UNL     1      34.454 -16.493 -23.142  0.00  0.00    +0.004 C 
ATOM     20  C   UNL     1      34.225 -15.601 -20.909  0.00  0.00    +0.004 C 
ATOM     21  C   UNL     1      33.957 -15.302 -23.669  0.00  0.00    +0.020 C 
ATOM     22  C   UNL     1      33.727 -14.409 -21.436  0.00  0.00    +0.020 C 
BRANCH  18  23
ATOM     23  S   UNL     1      32.974 -12.766 -23.475  0.00  0.00    +0.057 S 
ATOM     24  O   UNL     1      33.901 -11.695 -23.135  0.00  0.00    -0.153 OA
ATOM     25  O   UNL     1      32.610 -12.991 -24.867  0.00  0.00    -0.153 OA
BRANCH  23  26
ATOM     26  N   UNL     1      31.546 -12.572 -22.559  0.00  0.00    -0.203 NA
ATOM     27  H   UNL     1      31.368 -11.579 -22.412  0.00  0.00    +0.144 HD
ATOM     28  H   UNL     1      31.656 -13.035 -21.657  0.00  0.00    +0.144 HD
ENDBRANCH  23  26
ENDBRANCH  18  23
ENDBRANCH   2  17
TORSDOF 4
ENDMDL
MODEL 5
REMARK VINA RESULT:     -10.7      6.287     11.820
REMARK  Name = 23647659
REMARK  4 active torsions:
REMARK  status: ('A' for Active; 'I' for Inactive)
REMARK    1  A    between atoms: C_2  and  C_17
REMARK    2  A    between atoms: C_3  and  C_10
REMARK    3  A    between atoms: C_18  and  S_23
REMARK    4  A    between atoms: S_23  and  N_26
REMARK                            x       y       z     vdW  Elec       q    Type
REMARK                         _______ _______ _______ _____ _____    ______ ____
ROOT
ATOM      1  O   UNL     1      32.183 -11.181 -22.914  0.00  0.00    -0.454 OA
ATOM      2  C   UNL     1      31.671 -10.575 -21.811  0.00  0.00    +0.145 C 
ATOM      3  C   UNL     1      32.347 -12.492 -22.596  0.00  0.00    +0.143 C 
ATOM      4  C   UNL     1      31.507 -11.484 -20.792  0.00  0.00    +0.041 C 
ATOM      5  C   UNL     1      31.946 -12.729 -21.303  0.00  0.00    +0.040 C 
ENDROOT
BRANCH   3  10
ATOM      6  S   UNL     1      33.786 -14.899 -21.392  0.00  0.00    -0.027 S 
ATOM      7  O   UNL     1      34.050 -15.555 -25.130  0.00  0.00    -0.209 OA
ATOM      8  N   UNL     1      34.704 -16.569 -23.151  0.00  0.00    -0.311 NA
ATOM      9  N   UNL     1      35.115 -17.153 -20.873  0.00  0.00    -0.327 N 
ATOM     10  C   UNL     1      32.865 -13.430 -23.519  0.00  0.00    +0.031 C 
ATOM     11  C   UNL     1      33.516 -14.524 -23.043  0.00  0.00    +0.126 C 
ATOM     12  C   UNL     1      32.750 -13.290 -25.035  0.00  0.00    +0.036 C 
ATOM     13  C   UNL     1      34.104 -15.580 -23.908  0.00  0.00    +0.212 C 
ATOM     14  C   UNL     1      34.626 -16.366 -21.871  0.00  0.00    +0.222 C 
ATOM     15  H   UNL     1      34.992 -16.890 -19.932  0.00  0.00    +0.145 HD
ATOM     16  H   UNL     1      35.594 -17.986 -21.092  0.00  0.00    +0.145 HD
ENDBRANCH   3  10
BRANCH   2  17
ATOM     17  C   UNL     1      31.421  -9.160 -21.941  0.00  0.00    +0.035 C 
ATOM     18  C   UNL     1      30.942  -6.424 -22.196  0.00  0.00    +0.122 C 
ATOM     19  C   UNL     1      31.513  -8.329 -20.825  0.00  0.00    +0.004 C 
ATOM     20  C   UNL     1      31.089  -8.623 -23.184  0.00  0.00    +0.004 C 
ATOM     21  C   UNL     1      31.273  -6.961 -20.952  0.00  0.00    +0.020 C 
ATOM     22  C   UNL     1      30.849  -7.255 -23.313  0.00  0.00    +0.020 C 
BRANCH  18  23
ATOM     23  S   UNL     1      30.638  -4.712 -22.355  0.00  0.00    +0.057 S 
ATOM     24  O   UNL     1      30.999  -4.305 -23.706  0.00  0.00    -0.153 OA
ATOM     25  O   UNL     1      29.302  -4.431 -21.849  0.00  0.00    -0.153 OA
BRANCH  23  26
ATOM     26  N   UNL     1      31.784  -4.075 -21.261  0.00  0.00    -0.203 NA
ATOM     27  H   UNL     1      31.532  -4.341 -20.309  0.00  0.00    +0.144 HD
ATOM     28  H   UNL     1      31.798  -3.057 -21.337  0.00  0.00    +0.144 HD
ENDBRANCH  23  26
ENDBRANCH  18  23
ENDBRANCH   2  17
TORSDOF 4
ENDMDL
MODEL 6
REMARK VINA RESULT:     -10.7      1.900      8.804
REMARK  Name = 23647659
REMARK  4 active torsions:
REMARK  status: ('A' for Active; 'I' for Inactive)
REMARK    1  A    between atoms: C_2  and  C_17
REMARK    2  A    between atoms: C_3  and  C_10
REMARK    3  A    between atoms: C_18  and  S_23
REMARK    4  A    between atoms: S_23  and  N_26
REMARK                            x       y       z     vdW  Elec       q    Type
REMARK                         _______ _______ _______ _____ _____    ______ ____
ROOT
ATOM      1  O   UNL     1      34.116 -20.289 -19.541  0.00  0.00    -0.454 OA
ATOM      2  C   UNL     1      35.144 -19.812 -20.290  0.00  0.00    +0.145 C 
ATOM      3  C   UNL     1      34.651 -21.194 -18.679  0.00  0.00    +0.143 C 
ATOM      4  C   UNL     1      36.329 -20.403 -19.919  0.00  0.00    +0.041 C 
ATOM      5  C   UNL     1      36.008 -21.301 -18.873  0.00  0.00    +0.040 C 
ENDROOT
BRANCH   3  10
ATOM      6  S   UNL     1      36.055 -22.010 -16.095  0.00  0.00    -0.027 S 
ATOM      7  O   UNL     1      32.531 -23.350 -15.587  0.00  0.00    -0.209 OA
ATOM      8  N   UNL     1      34.537 -23.291 -14.427  0.00  0.00    -0.311 NA
ATOM      9  N   UNL     1      36.785 -22.942 -13.704  0.00  0.00    -0.327 N 
ATOM     10  C   UNL     1      33.861 -21.896 -17.740  0.00  0.00    +0.031 C 
ATOM     11  C   UNL     1      34.431 -22.286 -16.568  0.00  0.00    +0.126 C 
ATOM     12  C   UNL     1      32.395 -22.259 -17.958  0.00  0.00    +0.036 C 
ATOM     13  C   UNL     1      33.708 -23.027 -15.502  0.00  0.00    +0.212 C 
ATOM     14  C   UNL     1      35.746 -22.842 -14.579  0.00  0.00    +0.222 C 
ATOM     15  H   UNL     1      37.662 -22.558 -13.935  0.00  0.00    +0.145 HD
ATOM     16  H   UNL     1      36.660 -23.400 -12.841  0.00  0.00    +0.145 HD
ENDBRANCH   3  10
BRANCH   2  17
ATOM     17  C   UNL     1      34.783 -18.825 -21.279  0.00  0.00    +0.035 C 
ATOM     18  C   UNL     1      34.089 -16.920 -23.194  0.00  0.00    +0.122 C 
ATOM     19  C   UNL     1      35.051 -17.476 -21.049  0.00  0.00    +0.004 C 
ATOM     20  C   UNL     1      34.167 -19.221 -22.466  0.00  0.00    +0.004 C 
ATOM     21  C   UNL     1      34.705 -16.523 -22.007  0.00  0.00    +0.020 C 
ATOM     22  C   UNL     1      33.820 -18.269 -23.424  0.00  0.00    +0.020 C 
BRANCH  18  23
ATOM     23  S   UNL     1      33.652 -15.726 -24.392  0.00  0.00    +0.057 S 
ATOM     24  O   UNL     1      33.089 -14.572 -23.704  0.00  0.00    -0.153 OA
ATOM     25  O   UNL     1      34.775 -15.549 -25.300  0.00  0.00    -0.153 OA
BRANCH  23  26
ATOM     26  N   UNL     1      32.400 -16.540 -25.220  0.00  0.00    -0.203 NA
ATOM     27  H   UNL     1      32.405 -17.527 -24.961  0.00  0.00    +0.144 HD
ATOM     28  H   UNL     1      32.544 -16.452 -26.226  0.00  0.00    +0.144 HD
ENDBRANCH  23  26
ENDBRANCH  18  23
ENDBRANCH   2  17
TORSDOF 4
ENDMDL
MODEL 7
REMARK VINA RESULT:     -10.5      3.301      9.564
REMARK  Name = 23647659
REMARK  4 active torsions:
REMARK  status: ('A' for Active; 'I' for Inactive)
REMARK    1  A    between atoms: C_2  and  C_17
REMARK    2  A    between atoms: C_3  and  C_10
REMARK    3  A    between atoms: C_18  and  S_23
REMARK    4  A    between atoms: S_23  and  N_26
REMARK                            x       y       z     vdW  Elec       q    Type
REMARK                         _______ _______ _______ _____ _____    ______ ____
ROOT
ATOM      1  O   UNL     1      33.970 -22.015 -16.690  0.00  0.00    -0.454 OA
ATOM      2  C   UNL     1      33.699 -22.248 -18.001  0.00  0.00    +0.145 C 
ATOM      3  C   UNL     1      33.478 -23.075 -15.997  0.00  0.00    +0.143 C 
ATOM      4  C   UNL     1      33.038 -23.445 -18.153  0.00  0.00    +0.041 C 
ATOM      5  C   UNL     1      32.896 -23.982 -16.851  0.00  0.00    +0.040 C 
ENDROOT
BRANCH   3  10
ATOM      6  S   UNL     1      36.235 -23.805 -14.910  0.00  0.00    -0.027 S 
ATOM      7  O   UNL     1      34.161 -23.444 -11.742  0.00  0.00    -0.209 OA
ATOM      8  N   UNL     1      36.345 -23.956 -12.324  0.00  0.00    -0.311 NA
ATOM      9  N   UNL     1      38.394 -24.406 -13.463  0.00  0.00    -0.327 N 
ATOM     10  C   UNL     1      33.585 -23.169 -14.590  0.00  0.00    +0.031 C 
ATOM     11  C   UNL     1      34.789 -23.490 -14.046  0.00  0.00    +0.126 C 
ATOM     12  C   UNL     1      32.422 -22.941 -13.628  0.00  0.00    +0.036 C 
ATOM     13  C   UNL     1      35.030 -23.619 -12.585  0.00  0.00    +0.212 C 
ATOM     14  C   UNL     1      37.073 -24.084 -13.391  0.00  0.00    +0.222 C 
ATOM     15  H   UNL     1      38.838 -24.474 -14.339  0.00  0.00    +0.145 HD
ATOM     16  H   UNL     1      38.906 -24.571 -12.637  0.00  0.00    +0.145 HD
ENDBRANCH   3  10
BRANCH   2  17
ATOM     17  C   UNL     1      34.145 -21.227 -18.917  0.00  0.00    +0.035 C 
ATOM     18  C   UNL     1      35.004 -19.254 -20.692  0.00  0.00    +0.122 C 
ATOM     19  C   UNL     1      35.503 -20.931 -19.025  0.00  0.00    +0.004 C 
ATOM     20  C   UNL     1      33.216 -20.536 -19.695  0.00  0.00    +0.004 C 
ATOM     21  C   UNL     1      35.933 -19.944 -19.912  0.00  0.00    +0.020 C 
ATOM     22  C   UNL     1      33.646 -19.549 -20.584  0.00  0.00    +0.020 C 
BRANCH  18  23
ATOM     23  S   UNL     1      35.542 -18.017 -21.800  0.00  0.00    +0.057 S 
ATOM     24  O   UNL     1      35.169 -18.416 -23.150  0.00  0.00    -0.153 OA
ATOM     25  O   UNL     1      35.120 -16.721 -21.287  0.00  0.00    -0.153 OA
BRANCH  23  26
ATOM     26  N   UNL     1      37.237 -18.145 -21.635  0.00  0.00    -0.203 NA
ATOM     27  H   UNL     1      37.493 -18.036 -20.653  0.00  0.00    +0.144 HD
ATOM     28  H   UNL     1      37.689 -17.416 -22.187  0.00  0.00    +0.144 HD
ENDBRANCH  23  26
ENDBRANCH  18  23
ENDBRANCH   2  17
TORSDOF 4
ENDMDL
MODEL 8
REMARK VINA RESULT:     -10.4      3.611      8.820
REMARK  Name = 23647659
REMARK  4 active torsions:
REMARK  status: ('A' for Active; 'I' for Inactive)
REMARK    1  A    between atoms: C_2  and  C_17
REMARK    2  A    between atoms: C_3  and  C_10
REMARK    3  A    between atoms: C_18  and  S_23
REMARK    4  A    between atoms: S_23  and  N_26
REMARK                            x       y       z     vdW  Elec       q    Type
REMARK                         _______ _______ _______ _____ _____    ______ ____
ROOT
ATOM      1  O   UNL     1      34.340 -16.040 -21.848  0.00  0.00    -0.454 OA
ATOM      2  C   UNL     1      33.778 -15.355 -22.878  0.00  0.00    +0.145 C 
ATOM      3  C   UNL     1      34.835 -17.193 -22.372  0.00  0.00    +0.143 C 
ATOM      4  C   UNL     1      33.907 -16.057 -24.054  0.00  0.00    +0.041 C 
ATOM      5  C   UNL     1      34.594 -17.250 -23.724  0.00  0.00    +0.040 C 
ENDROOT
BRANCH   3  10
ATOM      6  S   UNL     1      33.040 -19.201 -20.936  0.00  0.00    -0.027 S 
ATOM      7  O   UNL     1      36.524 -20.279 -19.858  0.00  0.00    -0.209 OA
ATOM      8  N   UNL     1      34.330 -20.932 -19.501  0.00  0.00    -0.311 NA
ATOM      9  N   UNL     1      31.953 -21.160 -19.488  0.00  0.00    -0.327 N 
ATOM     10  C   UNL     1      35.496 -18.157 -21.576  0.00  0.00    +0.031 C 
ATOM     11  C   UNL     1      34.749 -19.079 -20.912  0.00  0.00    +0.126 C 
ATOM     12  C   UNL     1      37.010 -18.227 -21.401  0.00  0.00    +0.036 C 
ATOM     13  C   UNL     1      35.324 -20.142 -20.046  0.00  0.00    +0.212 C 
ATOM     14  C   UNL     1      33.131 -20.583 -19.855  0.00  0.00    +0.222 C 
ATOM     15  H   UNL     1      31.101 -20.801 -19.826  0.00  0.00    +0.145 HD
ATOM     16  H   UNL     1      31.954 -21.938 -18.884  0.00  0.00    +0.145 HD
ENDBRANCH   3  10
BRANCH   2  17
ATOM     17  C   UNL     1      33.187 -14.087 -22.529  0.00  0.00    +0.035 C 
ATOM     18  C   UNL     1      32.049 -11.630 -21.854  0.00  0.00    +0.122 C 
ATOM     19  C   UNL     1      32.781 -13.843 -21.217  0.00  0.00    +0.004 C 
ATOM     20  C   UNL     1      33.024 -13.102 -23.503  0.00  0.00    +0.004 C 
ATOM     21  C   UNL     1      32.212 -12.616 -20.879  0.00  0.00    +0.020 C 
ATOM     22  C   UNL     1      32.455 -11.873 -23.166  0.00  0.00    +0.020 C 
BRANCH  18  23
ATOM     23  S   UNL     1      31.333 -10.095 -21.433  0.00  0.00    +0.057 S 
ATOM     24  O   UNL     1      32.206  -9.033 -21.916  0.00  0.00    -0.153 OA
ATOM     25  O   UNL     1      29.932 -10.114 -21.828  0.00  0.00    -0.153 OA
BRANCH  23  26
ATOM     26  N   UNL     1      31.423 -10.150 -19.728  0.00  0.00    -0.203 NA
ATOM     27  H   UNL     1      30.792 -10.871 -19.377  0.00  0.00    +0.144 HD
ATOM     28  H   UNL     1      31.152  -9.245 -19.344  0.00  0.00    +0.144 HD
ENDBRANCH  23  26
ENDBRANCH  18  23
ENDBRANCH   2  17
TORSDOF 4
ENDMDL
MODEL 9
REMARK VINA RESULT:     -10.4      5.023      8.113
REMARK  Name = 23647659
REMARK  4 active torsions:
REMARK  status: ('A' for Active; 'I' for Inactive)
REMARK    1  A    between atoms: C_2  and  C_17
REMARK    2  A    between atoms: C_3  and  C_10
REMARK    3  A    between atoms: C_18  and  S_23
REMARK    4  A    between atoms: S_23  and  N_26
REMARK                            x       y       z     vdW  Elec       q    Type
REMARK                         _______ _______ _______ _____ _____    ______ ____
ROOT
ATOM      1  O   UNL     1      32.719 -12.119 -22.030  0.00  0.00    -0.454 OA
ATOM      2  C   UNL     1      33.117 -12.860 -23.096  0.00  0.00    +0.145 C 
ATOM      3  C   UNL     1      32.277 -10.932 -22.524  0.00  0.00    +0.143 C 
ATOM      4  C   UNL     1      32.937 -12.160 -24.266  0.00  0.00    +0.041 C 
ATOM      5  C   UNL     1      32.391 -10.908 -23.894  0.00  0.00    +0.040 C 
ENDROOT
BRANCH   3  10
ATOM      6  S   UNL     1      33.254  -8.109 -23.147  0.00  0.00    -0.027 S 
ATOM      7  O   UNL     1      30.961  -7.556 -20.163  0.00  0.00    -0.209 OA
ATOM      8  N   UNL     1      32.300  -6.288 -21.566  0.00  0.00    -0.311 NA
ATOM      9  N   UNL     1      33.787  -5.497 -23.259  0.00  0.00    -0.327 N 
ATOM     10  C   UNL     1      31.783  -9.906 -21.687  0.00  0.00    +0.031 C 
ATOM     11  C   UNL     1      32.182  -8.627 -21.915  0.00  0.00    +0.126 C 
ATOM     12  C   UNL     1      30.826 -10.142 -20.521  0.00  0.00    +0.036 C 
ATOM     13  C   UNL     1      31.734  -7.462 -21.107  0.00  0.00    +0.212 C 
ATOM     14  C   UNL     1      33.087  -6.452 -22.586  0.00  0.00    +0.222 C 
ATOM     15  H   UNL     1      34.355  -5.748 -24.023  0.00  0.00    +0.145 HD
ATOM     16  H   UNL     1      33.725  -4.554 -22.981  0.00  0.00    +0.145 HD
ENDBRANCH   3  10
BRANCH   2  17
ATOM     17  C   UNL     1      33.627 -14.172 -22.782  0.00  0.00    +0.035 C 
ATOM     18  C   UNL     1      34.618 -16.708 -22.173  0.00  0.00    +0.122 C 
ATOM     19  C   UNL     1      33.876 -15.088 -23.804  0.00  0.00    +0.004 C 
ATOM     20  C   UNL     1      33.873 -14.525 -21.455  0.00  0.00    +0.004 C 
ATOM     21  C   UNL     1      34.371 -16.355 -23.500  0.00  0.00    +0.020 C 
ATOM     22  C   UNL     1      34.369 -15.793 -21.150  0.00  0.00    +0.020 C 
BRANCH  18  23
ATOM     23  S   UNL     1      35.235 -18.296 -21.792  0.00  0.00    +0.057 S 
ATOM     24  O   UNL     1      34.785 -18.654 -20.453  0.00  0.00    -0.153 OA
ATOM     25  O   UNL     1      34.950 -19.184 -22.910  0.00  0.00    -0.153 OA
BRANCH  23  26
ATOM     26  N   UNL     1      36.914 -17.992 -21.746  0.00  0.00    -0.203 NA
ATOM     27  H   UNL     1      37.210 -17.581 -22.632  0.00  0.00    +0.144 HD
ATOM     28  H   UNL     1      37.415 -18.868 -21.594  0.00  0.00    +0.144 HD
ENDBRANCH  23  26
ENDBRANCH  18  23
ENDBRANCH   2  17
TORSDOF 4
ENDMDL
