MODEL 1
REMARK VINA RESULT:     -14.6      0.000      0.000
REMARK  Name = 10200813
REMARK  4 active torsions:
REMARK  status: ('A' for Active; 'I' for Inactive)
REMARK    1  A    between atoms: C_3  and  C_24
REMARK    2  A    between atoms: C_8  and  C_11
REMARK    3  A    between atoms: N_10  and  C_16
REMARK    4  A    between atoms: C_24  and  C_26
REMARK                            x       y       z     vdW  Elec       q    Type
REMARK                         _______ _______ _______ _____ _____    ______ ____
ROOT
ATOM      1  O   UNL     1      34.515 -16.983 -23.571  0.00  0.00    -0.265 OA
ATOM      2  N   UNL     1      34.134 -15.067 -22.264  0.00  0.00    -0.272 N 
ATOM      3  C   UNL     1      32.527 -12.678 -21.949  0.00  0.00    +0.008 C 
ATOM      4  C   UNL     1      32.676 -13.380 -23.307  0.00  0.00    +0.022 C 
ATOM      5  C   UNL     1      32.702 -13.690 -20.806  0.00  0.00    +0.022 C 
ATOM      6  C   UNL     1      33.994 -14.148 -23.391  0.00  0.00    +0.094 C 
ATOM      7  C   UNL     1      34.018 -14.453 -20.937  0.00  0.00    +0.094 C 
ATOM      8  C   UNL     1      34.405 -16.407 -22.496  0.00  0.00    +0.303 C 
ENDROOT
BRANCH   8  11
ATOM      9  O   UNL     1      35.126 -16.738 -20.329  0.00  0.00    -0.265 OA
ATOM     10  N   UNL     1      34.090 -18.534 -21.470  0.00  0.00    -0.277 N 
ATOM     11  C   UNL     1      34.583 -17.257 -21.296  0.00  0.00    +0.303 C 
ATOM     12  H   UNL     1      33.687 -18.732 -22.347  0.00  0.00    +0.155 HD
BRANCH  10  16
ATOM     13  O   UNL     1      31.888 -21.591 -18.379  0.00  0.00    -0.407 OA
ATOM     14  O   UNL     1      31.879 -23.319 -16.842  0.00  0.00    -0.223 OA
ATOM     15  N   UNL     1      33.873 -22.602 -17.813  0.00  0.00    -0.287 N 
ATOM     16  C   UNL     1      34.099 -19.591 -20.530  0.00  0.00    +0.054 C 
ATOM     17  C   UNL     1      32.896 -19.998 -19.965  0.00  0.00    +0.054 C 
ATOM     18  C   UNL     1      35.321 -20.192 -20.201  0.00  0.00    +0.016 C 
ATOM     19  C   UNL     1      32.960 -21.032 -19.056  0.00  0.00    +0.167 A 
ATOM     20  C   UNL     1      34.159 -21.626 -18.729  0.00  0.00    +0.096 A 
ATOM     21  C   UNL     1      35.362 -21.239 -19.277  0.00  0.00    +0.022 C 
ATOM     22  C   UNL     1      32.504 -22.586 -17.597  0.00  0.00    +0.419 A 
ATOM     23  H   UNL     1      34.521 -23.208 -17.384  0.00  0.00    +0.172 HD
ENDBRANCH  10  16
ENDBRANCH   8  11
BRANCH   3  24
ATOM     24  C   UNL     1      31.177 -11.972 -21.848  0.00  0.00    +0.026 C 
BRANCH  24  26
ATOM     25  F   UNL     1      31.675  -6.881 -19.517  0.00  0.00    -0.204 F 
ATOM     26  C   UNL     1      31.309 -10.609 -21.224  0.00  0.00    -0.022 C 
ATOM     27  C   UNL     1      31.444  -9.494 -22.040  0.00  0.00    -0.002 C 
ATOM     28  C   UNL     1      31.297 -10.486 -19.841  0.00  0.00    -0.002 C 
ATOM     29  C   UNL     1      31.567  -8.231 -21.461  0.00  0.00    +0.029 C 
ATOM     30  C   UNL     1      31.420  -9.222 -19.262  0.00  0.00    +0.029 C 
ATOM     31  C   UNL     1      31.555  -8.095 -20.073  0.00  0.00    +0.140 C 
ENDBRANCH  24  26
ENDBRANCH   3  24
TORSDOF 4
ENDMDL
MODEL 2
REMARK VINA RESULT:     -14.1      4.392      7.162
REMARK  Name = 10200813
REMARK  4 active torsions:
REMARK  status: ('A' for Active; 'I' for Inactive)
REMARK    1  A    between atoms: C_3  and  C_24
REMARK    2  A    between atoms: C_8  and  C_11
REMARK    3  A    between atoms: N_10  and  C_16
REMARK    4  A    between atoms: C_24  and  C_26
REMARK                            x       y       z     vdW  Elec       q    Type
REMARK                         _______ _______ _______ _____ _____    ______ ____
ROOT
ATOM      1  O   UNL     1      31.496 -21.609 -17.987  0.00  0.00    -0.265 OA
ATOM      2  N   UNL     1      33.299 -21.270 -19.457  0.00  0.00    -0.272 N 
ATOM      3  C   UNL     1      34.777 -19.317 -21.005  0.00  0.00    +0.008 C 
ATOM      4  C   UNL     1      33.324 -19.072 -20.567  0.00  0.00    +0.022 C 
ATOM      5  C   UNL     1      35.477 -20.262 -20.016  0.00  0.00    +0.022 C 
ATOM      6  C   UNL     1      32.576 -20.389 -20.372  0.00  0.00    +0.094 C 
ATOM      7  C   UNL     1      34.688 -21.556 -19.830  0.00  0.00    +0.094 C 
ATOM      8  C   UNL     1      32.648 -21.804 -18.355  0.00  0.00    +0.303 C 
ENDROOT
BRANCH   8  11
ATOM      9  O   UNL     1      33.230 -23.924 -17.656  0.00  0.00    -0.265 OA
ATOM     10  N   UNL     1      34.314 -22.065 -16.673  0.00  0.00    -0.277 N 
ATOM     11  C   UNL     1      33.440 -22.727 -17.510  0.00  0.00    +0.303 C 
ATOM     12  H   UNL     1      34.313 -21.081 -16.729  0.00  0.00    +0.155 HD
BRANCH  10  16
ATOM     13  O   UNL     1      35.326 -24.745 -12.731  0.00  0.00    -0.407 OA
ATOM     14  O   UNL     1      36.775 -25.698 -11.201  0.00  0.00    -0.223 OA
ATOM     15  N   UNL     1      37.587 -24.397 -12.955  0.00  0.00    -0.287 N 
ATOM     16  C   UNL     1      35.211 -22.640 -15.743  0.00  0.00    +0.054 C 
ATOM     17  C   UNL     1      34.701 -23.411 -14.706  0.00  0.00    +0.054 C 
ATOM     18  C   UNL     1      36.585 -22.414 -15.901  0.00  0.00    +0.016 C 
ATOM     19  C   UNL     1      35.617 -23.950 -13.829  0.00  0.00    +0.167 A 
ATOM     20  C   UNL     1      36.969 -23.730 -13.979  0.00  0.00    +0.096 A 
ATOM     21  C   UNL     1      37.496 -22.970 -14.999  0.00  0.00    +0.022 C 
ATOM     22  C   UNL     1      36.601 -25.011 -12.200  0.00  0.00    +0.419 A 
ATOM     23  H   UNL     1      38.557 -24.434 -12.786  0.00  0.00    +0.172 HD
ENDBRANCH  10  16
ENDBRANCH   8  11
BRANCH   3  24
ATOM     24  C   UNL     1      35.537 -17.999 -21.128  0.00  0.00    +0.026 C 
BRANCH  24  26
ATOM     25  F   UNL     1      33.046 -14.508 -24.762  0.00  0.00    -0.204 F 
ATOM     26  C   UNL     1      34.871 -17.064 -22.100  0.00  0.00    -0.022 C 
ATOM     27  C   UNL     1      34.580 -15.764 -21.710  0.00  0.00    -0.002 C 
ATOM     28  C   UNL     1      34.555 -17.515 -23.375  0.00  0.00    -0.002 C 
ATOM     29  C   UNL     1      33.962 -14.898 -22.613  0.00  0.00    +0.029 C 
ATOM     30  C   UNL     1      33.937 -16.649 -24.278  0.00  0.00    +0.029 C 
ATOM     31  C   UNL     1      33.641 -15.340 -23.896  0.00  0.00    +0.140 C 
ENDBRANCH  24  26
ENDBRANCH   3  24
TORSDOF 4
ENDMDL
MODEL 3
REMARK VINA RESULT:     -13.5      1.634      2.319
REMARK  Name = 10200813
REMARK  4 active torsions:
REMARK  status: ('A' for Active; 'I' for Inactive)
REMARK    1  A    between atoms: C_3  and  C_24
REMARK    2  A    between atoms: C_8  and  C_11
REMARK    3  A    between atoms: N_10  and  C_16
REMARK    4  A    between atoms: C_24  and  C_26
REMARK                            x       y       z     vdW  Elec       q    Type
REMARK                         _______ _______ _______ _____ _____    ______ ____
ROOT
ATOM      1  O   UNL     1      33.511 -15.172 -25.593  0.00  0.00    -0.265 OA
ATOM      2  N   UNL     1      33.587 -14.226 -23.442  0.00  0.00    -0.272 N 
ATOM      3  C   UNL     1      32.362 -12.328 -21.629  0.00  0.00    +0.008 C 
ATOM      4  C   UNL     1      32.202 -12.211 -23.153  0.00  0.00    +0.022 C 
ATOM      5  C   UNL     1      32.591 -13.794 -21.230  0.00  0.00    +0.022 C 
ATOM      6  C   UNL     1      33.383 -12.848 -23.882  0.00  0.00    +0.094 C 
ATOM      7  C   UNL     1      33.762 -14.403 -21.997  0.00  0.00    +0.094 C 
ATOM      8  C   UNL     1      33.647 -15.248 -24.378  0.00  0.00    +0.303 C 
ENDROOT
BRANCH   8  11
ATOM      9  O   UNL     1      33.587 -17.547 -24.563  0.00  0.00    -0.265 OA
ATOM     10  N   UNL     1      34.492 -16.588 -22.599  0.00  0.00    -0.277 N 
ATOM     11  C   UNL     1      33.908 -16.607 -23.849  0.00  0.00    +0.303 C 
ATOM     12  H   UNL     1      34.665 -15.699 -22.210  0.00  0.00    +0.155 HD
BRANCH  10  16
ATOM     13  O   UNL     1      33.491 -20.595 -20.013  0.00  0.00    -0.407 OA
ATOM     14  O   UNL     1      34.087 -22.424 -18.730  0.00  0.00    -0.223 OA
ATOM     15  N   UNL     1      35.711 -20.965 -19.545  0.00  0.00    -0.287 N 
ATOM     16  C   UNL     1      34.870 -17.702 -21.814  0.00  0.00    +0.054 C 
ATOM     17  C   UNL     1      33.882 -18.556 -21.339  0.00  0.00    +0.054 C 
ATOM     18  C   UNL     1      36.230 -17.907 -21.542  0.00  0.00    +0.016 C 
ATOM     19  C   UNL     1      34.304 -19.626 -20.581  0.00  0.00    +0.167 A 
ATOM     20  C   UNL     1      35.639 -19.832 -20.310  0.00  0.00    +0.096 A 
ATOM     21  C   UNL     1      36.634 -18.999 -20.770  0.00  0.00    +0.022 C 
ATOM     22  C   UNL     1      34.418 -21.429 -19.362  0.00  0.00    +0.419 A 
ATOM     23  H   UNL     1      36.532 -21.376 -19.188  0.00  0.00    +0.172 HD
ENDBRANCH  10  16
ENDBRANCH   8  11
BRANCH   3  24
ATOM     24  C   UNL     1      31.145 -11.752 -20.909  0.00  0.00    +0.026 C 
BRANCH  24  26
ATOM     25  F   UNL     1      31.613  -6.201 -20.163  0.00  0.00    -0.204 F 
ATOM     26  C   UNL     1      31.271 -10.267 -20.709  0.00  0.00    -0.022 C 
ATOM     27  C   UNL     1      31.379  -9.757 -19.423  0.00  0.00    -0.002 C 
ATOM     28  C   UNL     1      31.275  -9.426 -21.814  0.00  0.00    -0.002 C 
ATOM     29  C   UNL     1      31.496  -8.379 -19.238  0.00  0.00    +0.029 C 
ATOM     30  C   UNL     1      31.392  -8.048 -21.630  0.00  0.00    +0.029 C 
ATOM     31  C   UNL     1      31.502  -7.525 -20.341  0.00  0.00    +0.140 C 
ENDBRANCH  24  26
ENDBRANCH   3  24
TORSDOF 4
ENDMDL
MODEL 4
REMARK VINA RESULT:     -13.4      5.202     10.422
REMARK  Name = 10200813
REMARK  4 active torsions:
REMARK  status: ('A' for Active; 'I' for Inactive)
REMARK    1  A    between atoms: C_3  and  C_24
REMARK    2  A    between atoms: C_8  and  C_11
REMARK    3  A    between atoms: N_10  and  C_16
REMARK    4  A    between atoms: C_24  and  C_26
REMARK                            x       y       z     vdW  Elec       q    Type
REMARK                         _______ _______ _______ _____ _____    ______ ____
ROOT
ATOM      1  O   UNL     1      32.806 -12.884 -25.630  0.00  0.00    -0.265 OA
ATOM      2  N   UNL     1      33.053 -14.219 -23.711  0.00  0.00    -0.272 N 
ATOM      3  C   UNL     1      34.319 -16.572 -22.592  0.00  0.00    +0.008 C 
ATOM      4  C   UNL     1      34.116 -16.405 -24.106  0.00  0.00    +0.022 C 
ATOM      5  C   UNL     1      34.430 -15.197 -21.916  0.00  0.00    +0.022 C 
ATOM      6  C   UNL     1      32.925 -15.498 -24.406  0.00  0.00    +0.094 C 
ATOM      7  C   UNL     1      33.234 -14.311 -22.259  0.00  0.00    +0.094 C 
ATOM      8  C   UNL     1      32.956 -13.033 -24.424  0.00  0.00    +0.303 C 
ENDROOT
BRANCH   8  11
ATOM      9  O   UNL     1      34.038 -11.089 -23.813  0.00  0.00    -0.265 OA
ATOM     10  N   UNL     1      31.962 -11.603 -22.799  0.00  0.00    -0.277 N 
ATOM     11  C   UNL     1      33.047 -11.784 -23.633  0.00  0.00    +0.303 C 
ATOM     12  H   UNL     1      31.271 -12.304 -22.822  0.00  0.00    +0.155 HD
BRANCH  10  16
ATOM     13  O   UNL     1      31.718  -6.851 -21.748  0.00  0.00    -0.407 OA
ATOM     14  O   UNL     1      31.347  -5.071 -20.319  0.00  0.00    -0.223 OA
ATOM     15  N   UNL     1      31.128  -7.265 -19.565  0.00  0.00    -0.287 N 
ATOM     16  C   UNL     1      31.734 -10.524 -21.914  0.00  0.00    +0.054 C 
ATOM     17  C   UNL     1      31.872  -9.225 -22.388  0.00  0.00    +0.054 C 
ATOM     18  C   UNL     1      31.375 -10.801 -20.588  0.00  0.00    +0.016 C 
ATOM     19  C   UNL     1      31.637  -8.210 -21.486  0.00  0.00    +0.167 A 
ATOM     20  C   UNL     1      31.284  -8.477 -20.182  0.00  0.00    +0.096 A 
ATOM     21  C   UNL     1      31.142  -9.756 -19.691  0.00  0.00    +0.022 C 
ATOM     22  C   UNL     1      31.388  -6.281 -20.504  0.00  0.00    +0.419 A 
ATOM     23  H   UNL     1      30.875  -7.118 -18.624  0.00  0.00    +0.172 HD
ENDBRANCH  10  16
ENDBRANCH   8  11
BRANCH   3  24
ATOM     24  C   UNL     1      35.554 -17.422 -22.300  0.00  0.00    +0.026 C 
BRANCH  24  26
ATOM     25  F   UNL     1      34.364 -21.679 -18.829  0.00  0.00    -0.204 F 
ATOM     26  C   UNL     1      35.235 -18.562 -21.372  0.00  0.00    -0.022 C 
ATOM     27  C   UNL     1      33.926 -19.011 -21.264  0.00  0.00    -0.002 C 
ATOM     28  C   UNL     1      36.255 -19.149 -20.634  0.00  0.00    -0.002 C 
ATOM     29  C   UNL     1      33.631 -20.068 -20.402  0.00  0.00    +0.029 C 
ATOM     30  C   UNL     1      35.960 -20.206 -19.773  0.00  0.00    +0.029 C 
ATOM     31  C   UNL     1      34.648 -20.665 -19.657  0.00  0.00    +0.140 C 
ENDBRANCH  24  26
ENDBRANCH   3  24
TORSDOF 4
ENDMDL
MODEL 5
REMARK VINA RESULT:     -13.0      4.014      6.881
REMARK  Name = 10200813
REMARK  4 active torsions:
REMARK  status: ('A' for Active; 'I' for Inactive)
REMARK    1  A    between atoms: C_3  and  C_24
REMARK    2  A    between atoms: C_8  and  C_11
REMARK    3  A    between atoms: N_10  and  C_16
REMARK    4  A    between atoms: C_24  and  C_26
REMARK                            x       y       z     vdW  Elec       q    Type
REMARK                         _______ _______ _______ _____ _____    ______ ____
ROOT
ATOM      1  O   UNL     1      31.264 -10.553 -19.500  0.00  0.00    -0.265 OA
ATOM      2  N   UNL     1      31.570  -9.319 -21.477  0.00  0.00    -0.272 N 
ATOM      3  C   UNL     1      32.752  -6.948 -22.647  0.00  0.00    +0.008 C 
ATOM      4  C   UNL     1      32.440  -7.040 -21.146  0.00  0.00    +0.022 C 
ATOM      5  C   UNL     1      33.014  -8.348 -23.222  0.00  0.00    +0.022 C 
ATOM      6  C   UNL     1      31.295  -8.015 -20.878  0.00  0.00    +0.094 C 
ATOM      7  C   UNL     1      31.860  -9.300 -22.914  0.00  0.00    +0.094 C 
ATOM      8  C   UNL     1      31.500 -10.465 -20.698  0.00  0.00    +0.303 C 
ENDROOT
BRANCH   8  11
ATOM      9  O   UNL     1      30.847 -12.156 -22.126  0.00  0.00    -0.265 OA
ATOM     10  N   UNL     1      32.978 -12.288 -21.106  0.00  0.00    -0.277 N 
ATOM     11  C   UNL     1      31.742 -11.748 -21.398  0.00  0.00    +0.303 C 
ATOM     12  H   UNL     1      33.543 -11.776 -20.483  0.00  0.00    +0.155 HD
BRANCH  10  16
ATOM     13  O   UNL     1      34.785 -16.776 -20.520  0.00  0.00    -0.407 OA
ATOM     14  O   UNL     1      35.674 -18.761 -21.307  0.00  0.00    -0.223 OA
ATOM     15  N   UNL     1      35.096 -17.051 -22.781  0.00  0.00    -0.287 N 
ATOM     16  C   UNL     1      33.522 -13.496 -21.600  0.00  0.00    +0.054 C 
ATOM     17  C   UNL     1      33.859 -14.500 -20.700  0.00  0.00    +0.054 C 
ATOM     18  C   UNL     1      33.703 -13.641 -22.982  0.00  0.00    +0.016 C 
ATOM     19  C   UNL     1      34.384 -15.657 -21.233  0.00  0.00    +0.167 A 
ATOM     20  C   UNL     1      34.564 -15.804 -22.591  0.00  0.00    +0.096 A 
ATOM     21  C   UNL     1      34.237 -14.822 -23.501  0.00  0.00    +0.022 C 
ATOM     22  C   UNL     1      35.232 -17.642 -21.535  0.00  0.00    +0.419 A 
ATOM     23  H   UNL     1      35.339 -17.455 -23.646  0.00  0.00    +0.172 HD
ENDBRANCH  10  16
ENDBRANCH   8  11
BRANCH   3  24
ATOM     24  C   UNL     1      33.943  -6.026 -22.899  0.00  0.00    +0.026 C 
BRANCH  24  26
ATOM     25  F   UNL     1      32.681  -1.969 -26.578  0.00  0.00    -0.204 F 
ATOM     26  C   UNL     1      33.605  -4.941 -23.884  0.00  0.00    -0.022 C 
ATOM     27  C   UNL     1      34.455  -4.700 -24.955  0.00  0.00    -0.002 C 
ATOM     28  C   UNL     1      32.449  -4.193 -23.707  0.00  0.00    -0.002 C 
ATOM     29  C   UNL     1      34.141  -3.693 -25.868  0.00  0.00    +0.029 C 
ATOM     30  C   UNL     1      32.135  -3.186 -24.621  0.00  0.00    +0.029 C 
ATOM     31  C   UNL     1      32.981  -2.937 -25.701  0.00  0.00    +0.140 C 
ENDBRANCH  24  26
ENDBRANCH   3  24
TORSDOF 4
ENDMDL
MODEL 6
REMARK VINA RESULT:     -12.8      4.785     10.484
REMARK  Name = 10200813
REMARK  4 active torsions:
REMARK  status: ('A' for Active; 'I' for Inactive)
REMARK    1  A    between atoms: C_3  and  C_24
REMARK    2  A    between atoms: C_8  and  C_11
REMARK    3  A    between atoms: N_10  and  C_16
REMARK    4  A    between atoms: C_24  and  C_26
REMARK                            x       y       z     vdW  Elec       q    Type
REMARK                         _______ _______ _______ _____ _____    ______ ____
ROOT
ATOM      1  O   UNL     1      36.735 -18.818 -19.822  0.00  0.00    -0.265 OA
ATOM      2  N   UNL     1      34.977 -20.376 -19.914  0.00  0.00    -0.272 N 
ATOM      3  C   UNL     1      33.175 -22.030 -18.362  0.00  0.00    +0.008 C 
ATOM      4  C   UNL     1      34.511 -21.531 -17.790  0.00  0.00    +0.022 C 
ATOM      5  C   UNL     1      32.658 -21.055 -19.431  0.00  0.00    +0.022 C 
ATOM      6  C   UNL     1      35.527 -21.275 -18.902  0.00  0.00    +0.094 C 
ATOM      7  C   UNL     1      33.709 -20.806 -20.511  0.00  0.00    +0.094 C 
ATOM      8  C   UNL     1      35.677 -19.234 -20.276  0.00  0.00    +0.303 C 
ENDROOT
BRANCH   8  11
ATOM      9  O   UNL     1      34.761 -18.985 -22.379  0.00  0.00    -0.265 OA
ATOM     10  N   UNL     1      34.953 -17.079 -20.989  0.00  0.00    -0.277 N 
ATOM     11  C   UNL     1      35.072 -18.407 -21.346  0.00  0.00    +0.303 C 
ATOM     12  H   UNL     1      35.274 -16.837 -20.090  0.00  0.00    +0.155 HD
BRANCH  10  16
ATOM     13  O   UNL     1      33.628 -15.092 -25.237  0.00  0.00    -0.407 OA
ATOM     14  O   UNL     1      32.760 -13.386 -26.535  0.00  0.00    -0.223 OA
ATOM     15  N   UNL     1      32.930 -13.152 -24.222  0.00  0.00    -0.287 N 
ATOM     16  C   UNL     1      34.422 -16.028 -21.771  0.00  0.00    +0.054 C 
ATOM     17  C   UNL     1      34.332 -16.193 -23.148  0.00  0.00    +0.054 C 
ATOM     18  C   UNL     1      34.002 -14.854 -21.130  0.00  0.00    +0.016 C 
ATOM     19  C   UNL     1      33.806 -15.138 -23.863  0.00  0.00    +0.167 A 
ATOM     20  C   UNL     1      33.393 -13.983 -23.238  0.00  0.00    +0.096 A 
ATOM     21  C   UNL     1      33.472 -13.798 -21.875  0.00  0.00    +0.022 C 
ATOM     22  C   UNL     1      33.069 -13.816 -25.430  0.00  0.00    +0.419 A 
ATOM     23  H   UNL     1      32.563 -12.246 -24.096  0.00  0.00    +0.172 HD
ENDBRANCH  10  16
ENDBRANCH   8  11
BRANCH   3  24
ATOM     24  C   UNL     1      32.144 -22.216 -17.252  0.00  0.00    +0.026 C 
BRANCH  24  26
ATOM     25  F   UNL     1      34.465 -24.378 -12.612  0.00  0.00    -0.204 F 
ATOM     26  C   UNL     1      32.766 -22.794 -16.010  0.00  0.00    -0.022 C 
ATOM     27  C   UNL     1      33.997 -23.429 -16.093  0.00  0.00    -0.002 C 
ATOM     28  C   UNL     1      32.098 -22.686 -14.797  0.00  0.00    -0.002 C 
ATOM     29  C   UNL     1      34.573 -23.965 -14.941  0.00  0.00    +0.029 C 
ATOM     30  C   UNL     1      32.674 -23.222 -13.645  0.00  0.00    +0.029 C 
ATOM     31  C   UNL     1      33.912 -23.862 -13.717  0.00  0.00    +0.140 C 
ENDBRANCH  24  26
ENDBRANCH   3  24
TORSDOF 4
ENDMDL
MODEL 7
REMARK VINA RESULT:     -12.7      4.346     10.350
REMARK  Name = 10200813
REMARK  4 active torsions:
REMARK  status: ('A' for Active; 'I' for Inactive)
REMARK    1  A    between atoms: C_3  and  C_24
REMARK    2  A    between atoms: C_8  and  C_11
REMARK    3  A    between atoms: N_10  and  C_16
REMARK    4  A    between atoms: C_24  and  C_26
REMARK                            x       y       z     vdW  Elec       q    Type
REMARK                         _______ _______ _______ _____ _____    ______ ____
ROOT
ATOM      1  O   UNL     1      36.829 -18.303 -20.841  0.00  0.00    -0.265 OA
ATOM      2  N   UNL     1      35.037 -19.807 -20.606  0.00  0.00    -0.272 N 
ATOM      3  C   UNL     1      33.701 -21.662 -18.826  0.00  0.00    +0.008 C 
ATOM      4  C   UNL     1      35.175 -21.274 -18.633  0.00  0.00    +0.022 C 
ATOM      5  C   UNL     1      32.941 -20.525 -19.528  0.00  0.00    +0.022 C 
ATOM      6  C   UNL     1      35.815 -20.859 -19.956  0.00  0.00    +0.094 C 
ATOM      7  C   UNL     1      33.624 -20.123 -20.833  0.00  0.00    +0.094 C 
ATOM      8  C   UNL     1      35.660 -18.631 -20.998  0.00  0.00    +0.303 C 
ENDROOT
BRANCH   8  11
ATOM      9  O   UNL     1      34.218 -18.027 -22.695  0.00  0.00    -0.265 OA
ATOM     10  N   UNL     1      34.817 -16.404 -21.080  0.00  0.00    -0.277 N 
ATOM     11  C   UNL     1      34.807 -17.640 -21.695  0.00  0.00    +0.303 C 
ATOM     12  H   UNL     1      35.373 -16.322 -20.272  0.00  0.00    +0.155 HD
BRANCH  10  16
ATOM     13  O   UNL     1      31.876 -12.614 -20.227  0.00  0.00    -0.407 OA
ATOM     14  O   UNL     1      30.726 -10.710 -20.863  0.00  0.00    -0.223 OA
ATOM     15  N   UNL     1      32.024 -11.884 -22.401  0.00  0.00    -0.287 N 
ATOM     16  C   UNL     1      34.117 -15.243 -21.483  0.00  0.00    +0.054 C 
ATOM     17  C   UNL     1      33.350 -14.562 -20.546  0.00  0.00    +0.054 C 
ATOM     18  C   UNL     1      34.224 -14.817 -22.814  0.00  0.00    +0.016 C 
ATOM     19  C   UNL     1      32.690 -13.436 -20.990  0.00  0.00    +0.167 A 
ATOM     20  C   UNL     1      32.791 -13.014 -22.297  0.00  0.00    +0.096 A 
ATOM     21  C   UNL     1      33.546 -13.673 -23.242  0.00  0.00    +0.022 C 
ATOM     22  C   UNL     1      31.470 -11.638 -21.156  0.00  0.00    +0.419 A 
ATOM     23  H   UNL     1      31.891 -11.344 -23.214  0.00  0.00    +0.172 HD
ENDBRANCH  10  16
ENDBRANCH   8  11
BRANCH   3  24
ATOM     24  C   UNL     1      33.050 -22.006 -17.489  0.00  0.00    +0.026 C 
BRANCH  24  26
ATOM     25  F   UNL     1      36.765 -24.187 -13.879  0.00  0.00    -0.204 F 
ATOM     26  C   UNL     1      34.044 -22.590 -16.523  0.00  0.00    -0.022 C 
ATOM     27  C   UNL     1      33.706 -23.722 -15.794  0.00  0.00    -0.002 C 
ATOM     28  C   UNL     1      35.287 -21.989 -16.374  0.00  0.00    -0.002 C 
ATOM     29  C   UNL     1      34.629 -24.263 -14.898  0.00  0.00    +0.029 C 
ATOM     30  C   UNL     1      36.210 -22.530 -15.478  0.00  0.00    +0.029 C 
ATOM     31  C   UNL     1      35.880 -23.667 -14.740  0.00  0.00    +0.140 C 
ENDBRANCH  24  26
ENDBRANCH   3  24
TORSDOF 4
ENDMDL
MODEL 8
REMARK VINA RESULT:     -12.3      5.449     11.411
REMARK  Name = 10200813
REMARK  4 active torsions:
REMARK  status: ('A' for Active; 'I' for Inactive)
REMARK    1  A    between atoms: C_3  and  C_24
REMARK    2  A    between atoms: C_8  and  C_11
REMARK    3  A    between atoms: N_10  and  C_16
REMARK    4  A    between atoms: C_24  and  C_26
REMARK                            x       y       z     vdW  Elec       q    Type
REMARK                         _______ _______ _______ _____ _____    ______ ____
ROOT
ATOM      1  O   UNL     1      31.680 -12.238 -19.717  0.00  0.00    -0.265 OA
ATOM      2  N   UNL     1      33.224 -12.993 -21.321  0.00  0.00    -0.272 N 
ATOM      3  C   UNL     1      34.478 -15.317 -22.513  0.00  0.00    +0.008 C 
ATOM      4  C   UNL     1      33.853 -15.365 -21.110  0.00  0.00    +0.022 C 
ATOM      5  C   UNL     1      33.781 -14.247 -23.368  0.00  0.00    +0.022 C 
ATOM      6  C   UNL     1      33.860 -13.984 -20.455  0.00  0.00    +0.094 C 
ATOM      7  C   UNL     1      33.787 -12.888 -22.671  0.00  0.00    +0.094 C 
ATOM      8  C   UNL     1      32.195 -12.204 -20.827  0.00  0.00    +0.303 C 
ENDROOT
BRANCH   8  11
ATOM      9  O   UNL     1      31.019 -11.611 -22.721  0.00  0.00    -0.265 OA
ATOM     10  N   UNL     1      31.932  -9.899 -21.366  0.00  0.00    -0.277 N 
ATOM     11  C   UNL     1      31.644 -11.191 -21.756  0.00  0.00    +0.303 C 
ATOM     12  H   UNL     1      32.458  -9.798 -20.539  0.00  0.00    +0.155 HD
BRANCH  10  16
ATOM     13  O   UNL     1      30.504  -5.240 -21.383  0.00  0.00    -0.407 OA
ATOM     14  O   UNL     1      29.893  -3.273 -22.436  0.00  0.00    -0.223 OA
ATOM     15  N   UNL     1      30.458  -5.161 -23.680  0.00  0.00    -0.287 N 
ATOM     16  C   UNL     1      31.558  -8.703 -22.023  0.00  0.00    +0.054 C 
ATOM     17  C   UNL     1      31.226  -7.592 -21.258  0.00  0.00    +0.054 C 
ATOM     18  C   UNL     1      31.538  -8.679 -23.424  0.00  0.00    +0.016 C 
ATOM     19  C   UNL     1      30.870  -6.452 -21.946  0.00  0.00    +0.167 A 
ATOM     20  C   UNL     1      30.848  -6.424 -23.323  0.00  0.00    +0.096 A 
ATOM     21  C   UNL     1      31.174  -7.513 -24.101  0.00  0.00    +0.022 C 
ATOM     22  C   UNL     1      30.249  -4.442 -22.514  0.00  0.00    +0.419 A 
ATOM     23  H   UNL     1      30.346  -4.824 -24.599  0.00  0.00    +0.172 HD
ENDBRANCH  10  16
ENDBRANCH   8  11
BRANCH   3  24
ATOM     24  C   UNL     1      34.403 -16.685 -23.187  0.00  0.00    +0.026 C 
BRANCH  24  26
ATOM     25  F   UNL     1      35.881 -20.808 -19.665  0.00  0.00    -0.204 F 
ATOM     26  C   UNL     1      34.799 -17.789 -22.245  0.00  0.00    -0.022 C 
ATOM     27  C   UNL     1      33.888 -18.793 -21.947  0.00  0.00    -0.002 C 
ATOM     28  C   UNL     1      36.069 -17.788 -21.685  0.00  0.00    -0.002 C 
ATOM     29  C   UNL     1      34.255 -19.817 -21.073  0.00  0.00    +0.029 C 
ATOM     30  C   UNL     1      36.437 -18.811 -20.811  0.00  0.00    +0.029 C 
ATOM     31  C   UNL     1      35.530 -19.826 -20.505  0.00  0.00    +0.140 C 
ENDBRANCH  24  26
ENDBRANCH   3  24
TORSDOF 4
ENDMDL
MODEL 9
REMARK VINA RESULT:     -12.2      4.010      6.243
REMARK  Name = 10200813
REMARK  4 active torsions:
REMARK  status: ('A' for Active; 'I' for Inactive)
REMARK    1  A    between atoms: C_3  and  C_24
REMARK    2  A    between atoms: C_8  and  C_11
REMARK    3  A    between atoms: N_10  and  C_16
REMARK    4  A    between atoms: C_24  and  C_26
REMARK                            x       y       z     vdW  Elec       q    Type
REMARK                         _______ _______ _______ _____ _____    ______ ____
ROOT
ATOM      1  O   UNL     1      36.201 -22.032 -18.667  0.00  0.00    -0.265 OA
ATOM      2  N   UNL     1      34.956 -20.261 -19.583  0.00  0.00    -0.272 N 
ATOM      3  C   UNL     1      34.742 -18.383 -21.779  0.00  0.00    +0.008 C 
ATOM      4  C   UNL     1      36.078 -19.048 -21.409  0.00  0.00    +0.022 C 
ATOM      5  C   UNL     1      33.569 -19.288 -21.373  0.00  0.00    +0.022 C 
ATOM      6  C   UNL     1      36.110 -19.436 -19.932  0.00  0.00    +0.094 C 
ATOM      7  C   UNL     1      33.649 -19.674 -19.898  0.00  0.00    +0.094 C 
ATOM      8  C   UNL     1      35.145 -21.485 -18.958  0.00  0.00    +0.303 C 
ENDROOT
BRANCH   8  11
ATOM      9  O   UNL     1      33.512 -23.051 -19.405  0.00  0.00    -0.265 OA
ATOM     10  N   UNL     1      33.422 -21.868 -17.358  0.00  0.00    -0.277 N 
ATOM     11  C   UNL     1      33.918 -22.231 -18.594  0.00  0.00    +0.303 C 
ATOM     12  H   UNL     1      33.923 -21.174 -16.872  0.00  0.00    +0.155 HD
BRANCH  10  16
ATOM     13  O   UNL     1      28.602 -22.177 -16.710  0.00  0.00    -0.407 OA
ATOM     14  O   UNL     1      26.709 -23.005 -15.672  0.00  0.00    -0.223 OA
ATOM     15  N   UNL     1      28.830 -23.713 -15.016  0.00  0.00    -0.287 N 
ATOM     16  C   UNL     1      32.273 -22.381 -16.713  0.00  0.00    +0.054 C 
ATOM     17  C   UNL     1      31.019 -21.942 -17.123  0.00  0.00    +0.054 C 
ATOM     18  C   UNL     1      32.437 -23.317 -15.683  0.00  0.00    +0.016 C 
ATOM     19  C   UNL     1      29.933 -22.474 -16.463  0.00  0.00    +0.167 A 
ATOM     20  C   UNL     1      30.089 -23.394 -15.449  0.00  0.00    +0.096 A 
ATOM     21  C   UNL     1      31.321 -23.843 -15.028  0.00  0.00    +0.022 C 
ATOM     22  C   UNL     1      27.929 -22.982 -15.773  0.00  0.00    +0.419 A 
ATOM     23  H   UNL     1      28.605 -24.348 -14.297  0.00  0.00    +0.172 HD
ENDBRANCH  10  16
ENDBRANCH   8  11
BRANCH   3  24
ATOM     24  C   UNL     1      34.691 -18.063 -23.271  0.00  0.00    +0.026 C 
BRANCH  24  26
ATOM     25  F   UNL     1      33.027 -12.774 -24.195  0.00  0.00    -0.204 F 
ATOM     26  C   UNL     1      34.246 -16.647 -23.518  0.00  0.00    -0.022 C 
ATOM     27  C   UNL     1      34.462 -15.682 -22.544  0.00  0.00    -0.002 C 
ATOM     28  C   UNL     1      33.625 -16.325 -24.717  0.00  0.00    -0.002 C 
ATOM     29  C   UNL     1      34.049 -14.369 -22.774  0.00  0.00    +0.029 C 
ATOM     30  C   UNL     1      33.212 -15.013 -24.948  0.00  0.00    +0.029 C 
ATOM     31  C   UNL     1      33.425 -14.035 -23.976  0.00  0.00    +0.140 C 
ENDBRANCH  24  26
ENDBRANCH   3  24
TORSDOF 4
ENDMDL
