MODEL 1
REMARK VINA RESULT:     -12.3      0.000      0.000
REMARK  Name = 42627769
REMARK  10 active torsions:
REMARK  status: ('A' for Active; 'I' for Inactive)
REMARK    1  A    between atoms: C_1  and  C_3
REMARK    2  A    between atoms: C_1  and  N_6
REMARK    3  A    between atoms: C_1  and  C_22
REMARK    4  A    between atoms: C_3  and  O_4
REMARK    5  A    between atoms: N_6  and  S_8
REMARK    6  A    between atoms: S_8  and  C_11
REMARK    7  A    between atoms: C_16  and  O_17
REMARK    8  A    between atoms: O_17  and  C_18
REMARK    9  A    between atoms: C_18  and  C_19
REMARK   10  A    between atoms: C_22  and  C_24
REMARK                            x       y       z     vdW  Elec       q    Type
REMARK                         _______ _______ _______ _____ _____    ______ ____
ROOT
ATOM      1  C   UNL     1      34.199 -23.095 -16.033  0.00  0.00    +0.178 C 
ENDROOT
BRANCH   1   3
ATOM      2  O   UNL     1      36.245 -22.497 -14.855  0.00  0.00    -0.249 OA
ATOM      3  C   UNL     1      35.529 -23.352 -15.361  0.00  0.00    +0.330 C 
BRANCH   3   4
ATOM      4  O   UNL     1      35.856 -24.671 -15.373  0.00  0.00    -0.479 OA
ATOM      5  H   UNL     1      36.330 -25.030 -16.097  0.00  0.00    +0.295 HD
ENDBRANCH   3   4
ENDBRANCH   1   3
BRANCH   1   6
ATOM      6  N   UNL     1      34.460 -22.193 -17.179  0.00  0.00    -0.170 NA
ATOM      7  H   UNL     1      34.457 -21.242 -16.813  0.00  0.00    +0.149 HD
BRANCH   6   8
ATOM      8  S   UNL     1      33.418 -22.207 -18.520  0.00  0.00    +0.061 S 
ATOM      9  O   UNL     1      32.094 -21.782 -18.107  0.00  0.00    -0.153 OA
ATOM     10  O   UNL     1      33.593 -23.458 -19.235  0.00  0.00    -0.153 OA
BRANCH   8  11
ATOM     11  C   UNL     1      34.109 -20.934 -19.532  0.00  0.00    +0.122 C 
ATOM     12  C   UNL     1      35.477 -20.671 -19.483  0.00  0.00    +0.023 C 
ATOM     13  C   UNL     1      33.285 -20.190 -20.377  0.00  0.00    +0.023 C 
ATOM     14  C   UNL     1      36.023 -19.664 -20.280  0.00  0.00    +0.038 C 
ATOM     15  C   UNL     1      33.831 -19.183 -21.173  0.00  0.00    +0.038 C 
ATOM     16  C   UNL     1      35.199 -18.921 -21.126  0.00  0.00    +0.140 C 
BRANCH  16  17
ATOM     17  O   UNL     1      35.732 -17.938 -21.902  0.00  0.00    -0.461 OA
BRANCH  17  18
ATOM     18  C   UNL     1      34.832 -17.209 -22.736  0.00  0.00    +0.281 C 
BRANCH  18  19
ATOM     19  C   UNL     1      34.444 -15.966 -22.073  0.00  0.00    -0.044 C 
ATOM     20  C   UNL     1      34.126 -14.944 -21.526  0.00  0.00    -0.086 C 
ATOM     21  C   UNL     1      33.740 -13.700 -20.862  0.00  0.00    +0.090 C 
ENDBRANCH  18  19
ENDBRANCH  17  18
ENDBRANCH  16  17
ENDBRANCH   8  11
ENDBRANCH   6   8
ENDBRANCH   1   6
BRANCH   1  22
ATOM     22  C   UNL     1      33.188 -22.430 -15.075  0.00  0.00    +0.056 C 
BRANCH  22  24
ATOM     23  N   UNL     1      31.418 -24.954 -13.117  0.00  0.00    -0.312 N 
ATOM     24  C   UNL     1      32.250 -23.379 -14.443  0.00  0.00    -0.004 C 
ATOM     25  C   UNL     1      30.877 -23.560 -14.773  0.00  0.00    +0.010 C 
ATOM     26  C   UNL     1      30.380 -24.554 -13.927  0.00  0.00    +0.048 C 
ATOM     27  C   UNL     1      32.553 -24.249 -13.421  0.00  0.00    +0.058 C 
ATOM     28  C   UNL     1      30.009 -22.974 -15.715  0.00  0.00    -0.003 C 
ATOM     29  C   UNL     1      29.052 -24.992 -13.976  0.00  0.00    +0.014 C 
ATOM     30  C   UNL     1      28.678 -23.402 -15.775  0.00  0.00    -0.022 C 
ATOM     31  C   UNL     1      28.209 -24.395 -14.917  0.00  0.00    -0.003 C 
ATOM     32  C   UNL     1      27.751 -22.784 -16.769  0.00  0.00    +0.031 C 
ATOM     33  H   UNL     1      31.356 -25.646 -12.419  0.00  0.00    +0.152 HD
ENDBRANCH  22  24
ENDBRANCH   1  22
TORSDOF 10
ENDMDL
MODEL 2
REMARK VINA RESULT:     -11.2      2.706      4.669
REMARK  Name = 42627769
REMARK  10 active torsions:
REMARK  status: ('A' for Active; 'I' for Inactive)
REMARK    1  A    between atoms: C_1  and  C_3
REMARK    2  A    between atoms: C_1  and  N_6
REMARK    3  A    between atoms: C_1  and  C_22
REMARK    4  A    between atoms: C_3  and  O_4
REMARK    5  A    between atoms: N_6  and  S_8
REMARK    6  A    between atoms: S_8  and  C_11
REMARK    7  A    between atoms: C_16  and  O_17
REMARK    8  A    between atoms: O_17  and  C_18
REMARK    9  A    between atoms: C_18  and  C_19
REMARK   10  A    between atoms: C_22  and  C_24
REMARK                            x       y       z     vdW  Elec       q    Type
REMARK                         _______ _______ _______ _____ _____    ______ ____
ROOT
ATOM      1  C   UNL     1      34.175 -22.241 -15.965  0.00  0.00    +0.178 C 
ENDROOT
BRANCH   1   3
ATOM      2  O   UNL     1      32.992 -23.616 -14.339  0.00  0.00    -0.249 OA
ATOM      3  C   UNL     1      33.797 -23.523 -15.257  0.00  0.00    +0.330 C 
BRANCH   3   4
ATOM      4  O   UNL     1      34.461 -24.595 -15.764  0.00  0.00    -0.479 OA
ATOM      5  H   UNL     1      35.272 -24.868 -15.382  0.00  0.00    +0.295 HD
ENDBRANCH   3   4
ENDBRANCH   1   3
BRANCH   1   6
ATOM      6  N   UNL     1      34.527 -22.604 -17.358  0.00  0.00    -0.170 NA
ATOM      7  H   UNL     1      35.348 -22.054 -17.608  0.00  0.00    +0.149 HD
BRANCH   6   8
ATOM      8  S   UNL     1      33.392 -22.384 -18.602  0.00  0.00    +0.061 S 
ATOM      9  O   UNL     1      32.131 -21.945 -18.034  0.00  0.00    -0.153 OA
ATOM     10  O   UNL     1      33.433 -23.537 -19.481  0.00  0.00    -0.153 OA
BRANCH   8  11
ATOM     11  C   UNL     1      34.088 -21.028 -19.496  0.00  0.00    +0.122 C 
ATOM     12  C   UNL     1      33.260 -20.173 -20.220  0.00  0.00    +0.023 C 
ATOM     13  C   UNL     1      35.467 -20.816 -19.479  0.00  0.00    +0.023 C 
ATOM     14  C   UNL     1      33.809 -19.103 -20.928  0.00  0.00    +0.038 C 
ATOM     15  C   UNL     1      36.016 -19.747 -20.187  0.00  0.00    +0.038 C 
ATOM     16  C   UNL     1      35.187 -18.890 -20.911  0.00  0.00    +0.140 C 
BRANCH  16  17
ATOM     17  O   UNL     1      35.723 -17.848 -21.603  0.00  0.00    -0.461 OA
BRANCH  17  18
ATOM     18  C   UNL     1      34.887 -17.211 -22.568  0.00  0.00    +0.281 C 
BRANCH  18  19
ATOM     19  C   UNL     1      34.458 -15.907 -22.065  0.00  0.00    -0.044 C 
ATOM     20  C   UNL     1      34.104 -14.837 -21.648  0.00  0.00    -0.086 C 
ATOM     21  C   UNL     1      33.675 -13.534 -21.142  0.00  0.00    +0.090 C 
ENDBRANCH  18  19
ENDBRANCH  17  18
ENDBRANCH  16  17
ENDBRANCH   8  11
ENDBRANCH   6   8
ENDBRANCH   1   6
BRANCH   1  22
ATOM     22  C   UNL     1      35.378 -21.545 -15.295  0.00  0.00    +0.056 C 
BRANCH  22  24
ATOM     23  N   UNL     1      38.274 -23.741 -14.942  0.00  0.00    -0.312 N 
ATOM     24  C   UNL     1      36.455 -22.471 -14.888  0.00  0.00    -0.004 C 
ATOM     25  C   UNL     1      36.607 -23.084 -13.613  0.00  0.00    +0.010 C 
ATOM     26  C   UNL     1      37.756 -23.875 -13.674  0.00  0.00    +0.048 C 
ATOM     27  C   UNL     1      37.494 -22.894 -15.683  0.00  0.00    +0.058 C 
ATOM     28  C   UNL     1      35.876 -23.042 -12.410  0.00  0.00    -0.003 C 
ATOM     29  C   UNL     1      38.212 -24.630 -12.588  0.00  0.00    +0.014 C 
ATOM     30  C   UNL     1      36.320 -23.791 -11.314  0.00  0.00    -0.022 C 
ATOM     31  C   UNL     1      37.471 -24.572 -11.404  0.00  0.00    -0.003 C 
ATOM     32  C   UNL     1      35.551 -23.750 -10.035  0.00  0.00    +0.031 C 
ATOM     33  H   UNL     1      39.087 -24.189 -15.270  0.00  0.00    +0.152 HD
ENDBRANCH  22  24
ENDBRANCH   1  22
TORSDOF 10
ENDMDL
MODEL 3
REMARK VINA RESULT:     -10.9      2.577      4.772
REMARK  Name = 42627769
REMARK  10 active torsions:
REMARK  status: ('A' for Active; 'I' for Inactive)
REMARK    1  A    between atoms: C_1  and  C_3
REMARK    2  A    between atoms: C_1  and  N_6
REMARK    3  A    between atoms: C_1  and  C_22
REMARK    4  A    between atoms: C_3  and  O_4
REMARK    5  A    between atoms: N_6  and  S_8
REMARK    6  A    between atoms: S_8  and  C_11
REMARK    7  A    between atoms: C_16  and  O_17
REMARK    8  A    between atoms: O_17  and  C_18
REMARK    9  A    between atoms: C_18  and  C_19
REMARK   10  A    between atoms: C_22  and  C_24
REMARK                            x       y       z     vdW  Elec       q    Type
REMARK                         _______ _______ _______ _____ _____    ______ ____
ROOT
ATOM      1  C   UNL     1      34.074 -22.437 -15.824  0.00  0.00    +0.178 C 
ENDROOT
BRANCH   1   3
ATOM      2  O   UNL     1      34.330 -24.856 -15.733  0.00  0.00    -0.249 OA
ATOM      3  C   UNL     1      33.658 -23.857 -15.512  0.00  0.00    +0.330 C 
BRANCH   3   4
ATOM      4  O   UNL     1      32.427 -23.910 -14.939  0.00  0.00    -0.479 OA
ATOM      5  H   UNL     1      31.669 -23.666 -15.434  0.00  0.00    +0.295 HD
ENDBRANCH   3   4
ENDBRANCH   1   3
BRANCH   1   6
ATOM      6  N   UNL     1      34.543 -22.421 -17.230  0.00  0.00    -0.170 NA
ATOM      7  H   UNL     1      35.175 -21.628 -17.322  0.00  0.00    +0.149 HD
BRANCH   6   8
ATOM      8  S   UNL     1      33.416 -22.300 -18.495  0.00  0.00    +0.061 S 
ATOM      9  O   UNL     1      32.140 -21.858 -17.966  0.00  0.00    -0.153 OA
ATOM     10  O   UNL     1      33.494 -23.501 -19.306  0.00  0.00    -0.153 OA
BRANCH   8  11
ATOM     11  C   UNL     1      34.092 -20.982 -19.459  0.00  0.00    +0.122 C 
ATOM     12  C   UNL     1      33.250 -20.173 -20.221  0.00  0.00    +0.023 C 
ATOM     13  C   UNL     1      35.468 -20.754 -19.462  0.00  0.00    +0.023 C 
ATOM     14  C   UNL     1      33.783 -19.134 -20.984  0.00  0.00    +0.038 C 
ATOM     15  C   UNL     1      36.001 -19.715 -20.225  0.00  0.00    +0.038 C 
ATOM     16  C   UNL     1      35.159 -18.905 -20.986  0.00  0.00    +0.140 C 
BRANCH  16  17
ATOM     17  O   UNL     1      35.678 -17.892 -21.731  0.00  0.00    -0.461 OA
BRANCH  17  18
ATOM     18  C   UNL     1      34.840 -17.332 -22.741  0.00  0.00    +0.281 C 
BRANCH  18  19
ATOM     19  C   UNL     1      34.450 -15.975 -22.361  0.00  0.00    -0.044 C 
ATOM     20  C   UNL     1      34.129 -14.861 -22.046  0.00  0.00    -0.086 C 
ATOM     21  C   UNL     1      33.740 -13.505 -21.664  0.00  0.00    +0.090 C 
ENDBRANCH  18  19
ENDBRANCH  17  18
ENDBRANCH  16  17
ENDBRANCH   8  11
ENDBRANCH   6   8
ENDBRANCH   1   6
BRANCH   1  22
ATOM     22  C   UNL     1      35.209 -21.951 -14.898  0.00  0.00    +0.056 C 
BRANCH  22  24
ATOM     23  N   UNL     1      35.376 -24.027 -11.898  0.00  0.00    -0.312 N 
ATOM     24  C   UNL     1      35.521 -22.882 -13.795  0.00  0.00    -0.004 C 
ATOM     25  C   UNL     1      36.666 -23.721 -13.693  0.00  0.00    +0.010 C 
ATOM     26  C   UNL     1      36.550 -24.428 -12.494  0.00  0.00    +0.048 C 
ATOM     27  C   UNL     1      34.746 -23.093 -12.677  0.00  0.00    +0.058 C 
ATOM     28  C   UNL     1      37.793 -23.946 -14.507  0.00  0.00    -0.003 C 
ATOM     29  C   UNL     1      37.510 -25.352 -12.066  0.00  0.00    +0.014 C 
ATOM     30  C   UNL     1      38.761 -24.868 -14.092  0.00  0.00    -0.022 C 
ATOM     31  C   UNL     1      38.620 -25.559 -12.891  0.00  0.00    -0.003 C 
ATOM     32  C   UNL     1      39.958 -25.113 -14.951  0.00  0.00    +0.031 C 
ATOM     33  H   UNL     1      35.037 -24.362 -11.037  0.00  0.00    +0.152 HD
ENDBRANCH  22  24
ENDBRANCH   1  22
TORSDOF 10
ENDMDL
MODEL 4
REMARK VINA RESULT:     -10.8      1.973      4.337
REMARK  Name = 42627769
REMARK  10 active torsions:
REMARK  status: ('A' for Active; 'I' for Inactive)
REMARK    1  A    between atoms: C_1  and  C_3
REMARK    2  A    between atoms: C_1  and  N_6
REMARK    3  A    between atoms: C_1  and  C_22
REMARK    4  A    between atoms: C_3  and  O_4
REMARK    5  A    between atoms: N_6  and  S_8
REMARK    6  A    between atoms: S_8  and  C_11
REMARK    7  A    between atoms: C_16  and  O_17
REMARK    8  A    between atoms: O_17  and  C_18
REMARK    9  A    between atoms: C_18  and  C_19
REMARK   10  A    between atoms: C_22  and  C_24
REMARK                            x       y       z     vdW  Elec       q    Type
REMARK                         _______ _______ _______ _____ _____    ______ ____
ROOT
ATOM      1  C   UNL     1      31.419 -22.471 -16.075  0.00  0.00    +0.178 C 
ENDROOT
BRANCH   1   3
ATOM      2  O   UNL     1      29.314 -23.368 -15.242  0.00  0.00    -0.249 OA
ATOM      3  C   UNL     1      29.917 -22.634 -16.015  0.00  0.00    +0.330 C 
BRANCH   3   4
ATOM      4  O   UNL     1      29.286 -21.855 -16.933  0.00  0.00    -0.479 OA
ATOM      5  H   UNL     1      29.092 -20.960 -16.734  0.00  0.00    +0.295 HD
ENDBRANCH   3   4
ENDBRANCH   1   3
BRANCH   1   6
ATOM      6  N   UNL     1      31.767 -22.192 -17.488  0.00  0.00    -0.170 NA
ATOM      7  H   UNL     1      31.092 -22.693 -18.064  0.00  0.00    +0.149 HD
BRANCH   6   8
ATOM      8  S   UNL     1      33.309 -22.597 -18.075  0.00  0.00    +0.061 S 
ATOM      9  O   UNL     1      33.234 -23.848 -18.806  0.00  0.00    -0.153 OA
ATOM     10  O   UNL     1      34.274 -22.435 -17.004  0.00  0.00    -0.153 OA
BRANCH   8  11
ATOM     11  C   UNL     1      33.608 -21.302 -19.239  0.00  0.00    +0.122 C 
ATOM     12  C   UNL     1      32.536 -20.644 -19.840  0.00  0.00    +0.023 C 
ATOM     13  C   UNL     1      34.917 -20.941 -19.560  0.00  0.00    +0.023 C 
ATOM     14  C   UNL     1      32.771 -19.623 -20.761  0.00  0.00    +0.038 C 
ATOM     15  C   UNL     1      35.152 -19.920 -20.481  0.00  0.00    +0.038 C 
ATOM     16  C   UNL     1      34.080 -19.261 -21.081  0.00  0.00    +0.140 C 
BRANCH  16  17
ATOM     17  O   UNL     1      34.309 -18.266 -21.981  0.00  0.00    -0.461 OA
BRANCH  17  18
ATOM     18  C   UNL     1      35.127 -17.178 -21.552  0.00  0.00    +0.281 C 
BRANCH  18  19
ATOM     19  C   UNL     1      34.597 -15.923 -22.082  0.00  0.00    -0.044 C 
ATOM     20  C   UNL     1      34.159 -14.894 -22.521  0.00  0.00    -0.086 C 
ATOM     21  C   UNL     1      33.627 -13.641 -23.053  0.00  0.00    +0.090 C 
ENDBRANCH  18  19
ENDBRANCH  17  18
ENDBRANCH  16  17
ENDBRANCH   8  11
ENDBRANCH   6   8
ENDBRANCH   1   6
BRANCH   1  22
ATOM     22  C   UNL     1      32.157 -23.743 -15.606  0.00  0.00    +0.056 C 
BRANCH  22  24
ATOM     23  N   UNL     1      33.213 -23.037 -12.182  0.00  0.00    -0.312 N 
ATOM     24  C   UNL     1      32.818 -23.600 -14.293  0.00  0.00    -0.004 C 
ATOM     25  C   UNL     1      34.095 -24.111 -13.927  0.00  0.00    +0.010 C 
ATOM     26  C   UNL     1      34.318 -23.743 -12.599  0.00  0.00    +0.048 C 
ATOM     27  C   UNL     1      32.300 -22.945 -13.199  0.00  0.00    +0.058 C 
ATOM     28  C   UNL     1      35.085 -24.852 -14.602  0.00  0.00    -0.003 C 
ATOM     29  C   UNL     1      35.487 -24.081 -11.908  0.00  0.00    +0.014 C 
ATOM     30  C   UNL     1      36.259 -25.197 -13.923  0.00  0.00    -0.022 C 
ATOM     31  C   UNL     1      36.455 -24.817 -12.597  0.00  0.00    -0.003 C 
ATOM     32  C   UNL     1      37.313 -25.984 -14.631  0.00  0.00    +0.031 C 
ATOM     33  H   UNL     1      33.094 -22.653 -11.283  0.00  0.00    +0.152 HD
ENDBRANCH  22  24
ENDBRANCH   1  22
TORSDOF 10
ENDMDL
MODEL 5
REMARK VINA RESULT:     -10.7      8.492     15.341
REMARK  Name = 42627769
REMARK  10 active torsions:
REMARK  status: ('A' for Active; 'I' for Inactive)
REMARK    1  A    between atoms: C_1  and  C_3
REMARK    2  A    between atoms: C_1  and  N_6
REMARK    3  A    between atoms: C_1  and  C_22
REMARK    4  A    between atoms: C_3  and  O_4
REMARK    5  A    between atoms: N_6  and  S_8
REMARK    6  A    between atoms: S_8  and  C_11
REMARK    7  A    between atoms: C_16  and  O_17
REMARK    8  A    between atoms: O_17  and  C_18
REMARK    9  A    between atoms: C_18  and  C_19
REMARK   10  A    between atoms: C_22  and  C_24
REMARK                            x       y       z     vdW  Elec       q    Type
REMARK                         _______ _______ _______ _____ _____    ______ ____
ROOT
ATOM      1  C   UNL     1      31.506  -8.008 -20.503  0.00  0.00    +0.178 C 
ENDROOT
BRANCH   1   3
ATOM      2  O   UNL     1      32.273  -9.021 -18.425  0.00  0.00    -0.249 OA
ATOM      3  C   UNL     1      31.392  -8.864 -19.261  0.00  0.00    +0.330 C 
BRANCH   3   4
ATOM      4  O   UNL     1      30.172  -9.454 -19.164  0.00  0.00    -0.479 OA
ATOM      5  H   UNL     1      30.040 -10.162 -18.564  0.00  0.00    +0.295 HD
ENDBRANCH   3   4
ENDBRANCH   1   3
BRANCH   1   6
ATOM      6  N   UNL     1      32.252  -8.801 -21.508  0.00  0.00    -0.170 NA
ATOM      7  H   UNL     1      32.709  -8.135 -22.130  0.00  0.00    +0.149 HD
BRANCH   6   8
ATOM      8  S   UNL     1      31.424  -9.907 -22.496  0.00  0.00    +0.061 S 
ATOM      9  O   UNL     1      31.725  -9.630 -23.888  0.00  0.00    -0.153 OA
ATOM     10  O   UNL     1      30.046  -9.992 -22.050  0.00  0.00    -0.153 OA
BRANCH   8  11
ATOM     11  C   UNL     1      32.201 -11.434 -22.064  0.00  0.00    +0.122 C 
ATOM     12  C   UNL     1      33.183 -11.976 -22.894  0.00  0.00    +0.023 C 
ATOM     13  C   UNL     1      31.831 -12.100 -20.896  0.00  0.00    +0.023 C 
ATOM     14  C   UNL     1      33.795 -13.182 -22.555  0.00  0.00    +0.038 C 
ATOM     15  C   UNL     1      32.443 -13.307 -20.557  0.00  0.00    +0.038 C 
ATOM     16  C   UNL     1      33.425 -13.848 -21.386  0.00  0.00    +0.140 C 
BRANCH  16  17
ATOM     17  O   UNL     1      34.021 -15.025 -21.056  0.00  0.00    -0.461 OA
BRANCH  17  18
ATOM     18  C   UNL     1      34.525 -15.821 -22.128  0.00  0.00    +0.281 C 
BRANCH  18  19
ATOM     19  C   UNL     1      35.121 -17.045 -21.596  0.00  0.00    -0.044 C 
ATOM     20  C   UNL     1      35.610 -18.050 -21.155  0.00  0.00    -0.086 C 
ATOM     21  C   UNL     1      36.205 -19.274 -20.620  0.00  0.00    +0.090 C 
ENDBRANCH  18  19
ENDBRANCH  17  18
ENDBRANCH  16  17
ENDBRANCH   8  11
ENDBRANCH   6   8
ENDBRANCH   1   6
BRANCH   1  22
ATOM     22  C   UNL     1      32.258  -6.689 -20.227  0.00  0.00    +0.056 C 
BRANCH  22  24
ATOM     23  N   UNL     1      30.444  -3.773 -21.468  0.00  0.00    -0.312 N 
ATOM     24  C   UNL     1      31.705  -5.523 -20.947  0.00  0.00    -0.004 C 
ATOM     25  C   UNL     1      32.165  -4.998 -22.186  0.00  0.00    +0.010 C 
ATOM     26  C   UNL     1      31.356  -3.900 -22.491  0.00  0.00    +0.048 C 
ATOM     27  C   UNL     1      30.647  -4.749 -20.530  0.00  0.00    +0.058 C 
ATOM     28  C   UNL     1      33.193  -5.352 -23.082  0.00  0.00    -0.003 C 
ATOM     29  C   UNL     1      31.525  -3.136 -23.651  0.00  0.00    +0.014 C 
ATOM     30  C   UNL     1      33.374  -4.596 -24.246  0.00  0.00    -0.022 C 
ATOM     31  C   UNL     1      32.552  -3.506 -24.524  0.00  0.00    -0.003 C 
ATOM     32  C   UNL     1      34.463  -4.965 -25.199  0.00  0.00    +0.031 C 
ATOM     33  H   UNL     1      29.746  -3.080 -21.418  0.00  0.00    +0.152 HD
ENDBRANCH  22  24
ENDBRANCH   1  22
TORSDOF 10
ENDMDL
MODEL 6
REMARK VINA RESULT:     -10.4      9.097     16.026
REMARK  Name = 42627769
REMARK  10 active torsions:
REMARK  status: ('A' for Active; 'I' for Inactive)
REMARK    1  A    between atoms: C_1  and  C_3
REMARK    2  A    between atoms: C_1  and  N_6
REMARK    3  A    between atoms: C_1  and  C_22
REMARK    4  A    between atoms: C_3  and  O_4
REMARK    5  A    between atoms: N_6  and  S_8
REMARK    6  A    between atoms: S_8  and  C_11
REMARK    7  A    between atoms: C_16  and  O_17
REMARK    8  A    between atoms: O_17  and  C_18
REMARK    9  A    between atoms: C_18  and  C_19
REMARK   10  A    between atoms: C_22  and  C_24
REMARK                            x       y       z     vdW  Elec       q    Type
REMARK                         _______ _______ _______ _____ _____    ______ ____
ROOT
ATOM      1  C   UNL     1      31.389  -7.586 -21.447  0.00  0.00    +0.178 C 
ENDROOT
BRANCH   1   3
ATOM      2  O   UNL     1      33.579  -6.575 -21.774  0.00  0.00    -0.249 OA
ATOM      3  C   UNL     1      32.683  -6.930 -21.020  0.00  0.00    +0.330 C 
BRANCH   3   4
ATOM      4  O   UNL     1      32.746  -6.766 -19.672  0.00  0.00    -0.479 OA
ATOM      5  H   UNL     1      33.485  -7.089 -19.195  0.00  0.00    +0.295 HD
ENDBRANCH   3   4
ENDBRANCH   1   3
BRANCH   1   6
ATOM      6  N   UNL     1      31.729  -8.950 -21.915  0.00  0.00    -0.170 NA
ATOM      7  H   UNL     1      31.438  -9.010 -22.890  0.00  0.00    +0.149 HD
BRANCH   6   8
ATOM      8  S   UNL     1      31.074 -10.303 -21.124  0.00  0.00    +0.061 S 
ATOM      9  O   UNL     1      29.743 -10.565 -21.636  0.00  0.00    -0.153 OA
ATOM     10  O   UNL     1      31.292 -10.161 -19.697  0.00  0.00    -0.153 OA
BRANCH   8  11
ATOM     11  C   UNL     1      32.137 -11.601 -21.681  0.00  0.00    +0.122 C 
ATOM     12  C   UNL     1      32.663 -11.565 -22.972  0.00  0.00    +0.023 C 
ATOM     13  C   UNL     1      32.447 -12.662 -20.831  0.00  0.00    +0.023 C 
ATOM     14  C   UNL     1      33.500 -12.590 -23.414  0.00  0.00    +0.038 C 
ATOM     15  C   UNL     1      33.284 -13.687 -21.272  0.00  0.00    +0.038 C 
ATOM     16  C   UNL     1      33.811 -13.651 -22.563  0.00  0.00    +0.140 C 
BRANCH  16  17
ATOM     17  O   UNL     1      34.626 -14.651 -22.994  0.00  0.00    -0.461 OA
BRANCH  17  18
ATOM     18  C   UNL     1      34.062 -15.959 -23.079  0.00  0.00    +0.281 C 
BRANCH  18  19
ATOM     19  C   UNL     1      34.884 -16.900 -22.321  0.00  0.00    -0.044 C 
ATOM     20  C   UNL     1      35.562 -17.674 -21.701  0.00  0.00    -0.086 C 
ATOM     21  C   UNL     1      36.387 -18.615 -20.944  0.00  0.00    +0.090 C 
ENDBRANCH  18  19
ENDBRANCH  17  18
ENDBRANCH  16  17
ENDBRANCH   8  11
ENDBRANCH   6   8
ENDBRANCH   1   6
BRANCH   1  22
ATOM     22  C   UNL     1      30.696  -6.809 -22.586  0.00  0.00    +0.056 C 
BRANCH  22  24
ATOM     23  N   UNL     1      30.221  -3.376 -21.435  0.00  0.00    -0.312 N 
ATOM     24  C   UNL     1      30.632  -5.350 -22.363  0.00  0.00    -0.004 C 
ATOM     25  C   UNL     1      31.122  -4.338 -23.235  0.00  0.00    +0.010 C 
ATOM     26  C   UNL     1      30.851  -3.110 -22.629  0.00  0.00    +0.048 C 
ATOM     27  C   UNL     1      30.085  -4.728 -21.265  0.00  0.00    +0.058 C 
ATOM     28  C   UNL     1      31.770  -4.349 -24.486  0.00  0.00    -0.003 C 
ATOM     29  C   UNL     1      31.198  -1.886 -23.214  0.00  0.00    +0.014 C 
ATOM     30  C   UNL     1      32.123  -3.133 -25.083  0.00  0.00    -0.022 C 
ATOM     31  C   UNL     1      31.841  -1.922 -24.454  0.00  0.00    -0.003 C 
ATOM     32  C   UNL     1      32.812  -3.137 -26.407  0.00  0.00    +0.031 C 
ATOM     33  H   UNL     1      29.913  -2.695 -20.795  0.00  0.00    +0.152 HD
ENDBRANCH  22  24
ENDBRANCH   1  22
TORSDOF 10
ENDMDL
MODEL 7
REMARK VINA RESULT:     -10.4      9.150     16.255
REMARK  Name = 42627769
REMARK  10 active torsions:
REMARK  status: ('A' for Active; 'I' for Inactive)
REMARK    1  A    between atoms: C_1  and  C_3
REMARK    2  A    between atoms: C_1  and  N_6
REMARK    3  A    between atoms: C_1  and  C_22
REMARK    4  A    between atoms: C_3  and  O_4
REMARK    5  A    between atoms: N_6  and  S_8
REMARK    6  A    between atoms: S_8  and  C_11
REMARK    7  A    between atoms: C_16  and  O_17
REMARK    8  A    between atoms: O_17  and  C_18
REMARK    9  A    between atoms: C_18  and  C_19
REMARK   10  A    between atoms: C_22  and  C_24
REMARK                            x       y       z     vdW  Elec       q    Type
REMARK                         _______ _______ _______ _____ _____    ______ ____
ROOT
ATOM      1  C   UNL     1      31.897  -6.994 -21.163  0.00  0.00    +0.178 C 
ENDROOT
BRANCH   1   3
ATOM      2  O   UNL     1      31.844  -8.344 -19.137  0.00  0.00    -0.249 OA
ATOM      3  C   UNL     1      32.140  -7.299 -19.702  0.00  0.00    +0.330 C 
BRANCH   3   4
ATOM      4  O   UNL     1      32.745  -6.263 -19.063  0.00  0.00    -0.479 OA
ATOM      5  H   UNL     1      33.673  -6.269 -18.934  0.00  0.00    +0.295 HD
ENDBRANCH   3   4
ENDBRANCH   1   3
BRANCH   1   6
ATOM      6  N   UNL     1      32.443  -8.132 -21.940  0.00  0.00    -0.170 NA
ATOM      7  H   UNL     1      33.097  -7.741 -22.617  0.00  0.00    +0.149 HD
BRANCH   6   8
ATOM      8  S   UNL     1      31.391  -9.147 -22.804  0.00  0.00    +0.061 S 
ATOM      9  O   UNL     1      31.569  -8.930 -24.227  0.00  0.00    -0.153 OA
ATOM     10  O   UNL     1      30.068  -9.062 -22.213  0.00  0.00    -0.153 OA
BRANCH   8  11
ATOM     11  C   UNL     1      32.028 -10.749 -22.413  0.00  0.00    +0.122 C 
ATOM     12  C   UNL     1      31.564 -11.428 -21.287  0.00  0.00    +0.023 C 
ATOM     13  C   UNL     1      32.997 -11.332 -23.230  0.00  0.00    +0.023 C 
ATOM     14  C   UNL     1      32.068 -12.691 -20.977  0.00  0.00    +0.038 C 
ATOM     15  C   UNL     1      33.501 -12.595 -22.920  0.00  0.00    +0.038 C 
ATOM     16  C   UNL     1      33.036 -13.275 -21.794  0.00  0.00    +0.140 C 
BRANCH  16  17
ATOM     17  O   UNL     1      33.529 -14.507 -21.491  0.00  0.00    -0.461 OA
BRANCH  17  18
ATOM     18  C   UNL     1      34.191 -15.217 -22.536  0.00  0.00    +0.281 C 
BRANCH  18  19
ATOM     19  C   UNL     1      34.818 -16.421 -21.993  0.00  0.00    -0.044 C 
ATOM     20  C   UNL     1      35.334 -17.411 -21.550  0.00  0.00    -0.086 C 
ATOM     21  C   UNL     1      35.963 -18.616 -21.009  0.00  0.00    +0.090 C 
ENDBRANCH  18  19
ENDBRANCH  17  18
ENDBRANCH  16  17
ENDBRANCH   8  11
ENDBRANCH   6   8
ENDBRANCH   1   6
BRANCH   1  22
ATOM     22  C   UNL     1      32.594  -5.689 -21.604  0.00  0.00    +0.056 C 
BRANCH  22  24
ATOM     23  N   UNL     1      30.364  -4.049 -23.986  0.00  0.00    -0.312 N 
ATOM     24  C   UNL     1      31.924  -5.004 -22.728  0.00  0.00    -0.004 C 
ATOM     25  C   UNL     1      32.532  -4.571 -23.940  0.00  0.00    +0.010 C 
ATOM     26  C   UNL     1      31.532  -3.976 -24.710  0.00  0.00    +0.048 C 
ATOM     27  C   UNL     1      30.591  -4.668 -22.786  0.00  0.00    +0.058 C 
ATOM     28  C   UNL     1      33.841  -4.631 -24.456  0.00  0.00    -0.003 C 
ATOM     29  C   UNL     1      31.776  -3.435 -25.978  0.00  0.00    +0.014 C 
ATOM     30  C   UNL     1      34.101  -4.093 -25.723  0.00  0.00    -0.022 C 
ATOM     31  C   UNL     1      33.082  -3.504 -26.469  0.00  0.00    -0.003 C 
ATOM     32  C   UNL     1      35.486  -4.151 -26.276  0.00  0.00    +0.031 C 
ATOM     33  H   UNL     1      29.491  -3.705 -24.285  0.00  0.00    +0.152 HD
ENDBRANCH  22  24
ENDBRANCH   1  22
TORSDOF 10
ENDMDL
MODEL 8
REMARK VINA RESULT:     -10.4      2.928      7.852
REMARK  Name = 42627769
REMARK  10 active torsions:
REMARK  status: ('A' for Active; 'I' for Inactive)
REMARK    1  A    between atoms: C_1  and  C_3
REMARK    2  A    between atoms: C_1  and  N_6
REMARK    3  A    between atoms: C_1  and  C_22
REMARK    4  A    between atoms: C_3  and  O_4
REMARK    5  A    between atoms: N_6  and  S_8
REMARK    6  A    between atoms: S_8  and  C_11
REMARK    7  A    between atoms: C_16  and  O_17
REMARK    8  A    between atoms: O_17  and  C_18
REMARK    9  A    between atoms: C_18  and  C_19
REMARK   10  A    between atoms: C_22  and  C_24
REMARK                            x       y       z     vdW  Elec       q    Type
REMARK                         _______ _______ _______ _____ _____    ______ ____
ROOT
ATOM      1  C   UNL     1      35.955 -22.016 -15.942  0.00  0.00    +0.178 C 
ENDROOT
BRANCH   1   3
ATOM      2  O   UNL     1      38.016 -23.221 -15.465  0.00  0.00    -0.249 OA
ATOM      3  C   UNL     1      37.176 -22.394 -15.136  0.00  0.00    +0.330 C 
BRANCH   3   4
ATOM      4  O   UNL     1      37.250 -21.694 -13.972  0.00  0.00    -0.479 OA
ATOM      5  H   UNL     1      36.681 -20.964 -13.828  0.00  0.00    +0.295 HD
ENDBRANCH   3   4
ENDBRANCH   1   3
BRANCH   1   6
ATOM      6  N   UNL     1      35.038 -23.180 -15.910  0.00  0.00    -0.170 NA
ATOM      7  H   UNL     1      34.195 -22.906 -16.413  0.00  0.00    +0.149 HD
BRANCH   6   8
ATOM      8  S   UNL     1      34.535 -23.818 -14.419  0.00  0.00    +0.061 S 
ATOM      9  O   UNL     1      34.959 -22.936 -13.348  0.00  0.00    -0.153 OA
ATOM     10  O   UNL     1      34.869 -25.229 -14.378  0.00  0.00    -0.153 OA
BRANCH   8  11
ATOM     11  C   UNL     1      32.776 -23.708 -14.550  0.00  0.00    +0.122 C 
ATOM     12  C   UNL     1      31.965 -24.468 -13.708  0.00  0.00    +0.023 C 
ATOM     13  C   UNL     1      32.198 -22.864 -15.499  0.00  0.00    +0.023 C 
ATOM     14  C   UNL     1      30.577 -24.384 -13.813  0.00  0.00    +0.038 C 
ATOM     15  C   UNL     1      30.810 -22.780 -15.604  0.00  0.00    +0.038 C 
ATOM     16  C   UNL     1      29.999 -23.540 -14.761  0.00  0.00    +0.140 C 
BRANCH  16  17
ATOM     17  O   UNL     1      28.645 -23.459 -14.864  0.00  0.00    -0.461 OA
BRANCH  17  18
ATOM     18  C   UNL     1      28.066 -23.810 -16.119  0.00  0.00    +0.281 C 
BRANCH  18  19
ATOM     19  C   UNL     1      27.187 -22.735 -16.576  0.00  0.00    -0.044 C 
ATOM     20  C   UNL     1      26.467 -21.849 -16.950  0.00  0.00    -0.086 C 
ATOM     21  C   UNL     1      25.590 -20.773 -17.407  0.00  0.00    +0.090 C 
ENDBRANCH  18  19
ENDBRANCH  17  18
ENDBRANCH  16  17
ENDBRANCH   8  11
ENDBRANCH   6   8
ENDBRANCH   1   6
BRANCH   1  22
ATOM     22  C   UNL     1      36.311 -21.683 -17.407  0.00  0.00    +0.056 C 
BRANCH  22  24
ATOM     23  N   UNL     1      33.078 -21.412 -19.082  0.00  0.00    -0.312 N 
ATOM     24  C   UNL     1      35.138 -21.393 -18.257  0.00  0.00    -0.004 C 
ATOM     25  C   UNL     1      35.100 -20.517 -19.377  0.00  0.00    +0.010 C 
ATOM     26  C   UNL     1      33.796 -20.548 -19.876  0.00  0.00    +0.048 C 
ATOM     27  C   UNL     1      33.880 -21.928 -18.100  0.00  0.00    +0.058 C 
ATOM     28  C   UNL     1      36.052 -19.700 -20.017  0.00  0.00    -0.003 C 
ATOM     29  C   UNL     1      33.395 -19.799 -20.988  0.00  0.00    +0.014 C 
ATOM     30  C   UNL     1      35.666 -18.944 -21.130  0.00  0.00    -0.022 C 
ATOM     31  C   UNL     1      34.357 -18.994 -21.606  0.00  0.00    -0.003 C 
ATOM     32  C   UNL     1      36.669 -18.074 -21.812  0.00  0.00    +0.031 C 
ATOM     33  H   UNL     1      32.125 -21.629 -19.202  0.00  0.00    +0.152 HD
ENDBRANCH  22  24
ENDBRANCH   1  22
TORSDOF 10
ENDMDL
MODEL 9
REMARK VINA RESULT:     -10.2      5.874     11.976
REMARK  Name = 42627769
REMARK  10 active torsions:
REMARK  status: ('A' for Active; 'I' for Inactive)
REMARK    1  A    between atoms: C_1  and  C_3
REMARK    2  A    between atoms: C_1  and  N_6
REMARK    3  A    between atoms: C_1  and  C_22
REMARK    4  A    between atoms: C_3  and  O_4
REMARK    5  A    between atoms: N_6  and  S_8
REMARK    6  A    between atoms: S_8  and  C_11
REMARK    7  A    between atoms: C_16  and  O_17
REMARK    8  A    between atoms: O_17  and  C_18
REMARK    9  A    between atoms: C_18  and  C_19
REMARK   10  A    between atoms: C_22  and  C_24
REMARK                            x       y       z     vdW  Elec       q    Type
REMARK                         _______ _______ _______ _____ _____    ______ ____
ROOT
ATOM      1  C   UNL     1      33.671 -13.625 -24.016  0.00  0.00    +0.178 C 
ENDROOT
BRANCH   1   3
ATOM      2  O   UNL     1      32.888 -11.775 -25.393  0.00  0.00    -0.249 OA
ATOM      3  C   UNL     1      32.804 -12.949 -25.054  0.00  0.00    +0.330 C 
BRANCH   3   4
ATOM      4  O   UNL     1      31.898 -13.807 -25.593  0.00  0.00    -0.479 OA
ATOM      5  H   UNL     1      31.183 -14.120 -25.074  0.00  0.00    +0.295 HD
ENDBRANCH   3   4
ENDBRANCH   1   3
BRANCH   1   6
ATOM      6  N   UNL     1      33.015 -14.909 -23.675  0.00  0.00    -0.170 NA
ATOM      7  H   UNL     1      33.169 -15.065 -22.679  0.00  0.00    +0.149 HD
BRANCH   6   8
ATOM      8  S   UNL     1      33.482 -16.335 -24.472  0.00  0.00    +0.061 S 
ATOM      9  O   UNL     1      34.530 -16.033 -25.428  0.00  0.00    -0.153 OA
ATOM     10  O   UNL     1      32.290 -17.045 -24.895  0.00  0.00    -0.153 OA
BRANCH   8  11
ATOM     11  C   UNL     1      34.200 -17.270 -23.155  0.00  0.00    +0.122 C 
ATOM     12  C   UNL     1      34.817 -16.614 -22.091  0.00  0.00    +0.023 C 
ATOM     13  C   UNL     1      34.151 -18.664 -23.182  0.00  0.00    +0.023 C 
ATOM     14  C   UNL     1      35.386 -17.352 -21.053  0.00  0.00    +0.038 C 
ATOM     15  C   UNL     1      34.720 -19.402 -22.144  0.00  0.00    +0.038 C 
ATOM     16  C   UNL     1      35.337 -18.746 -21.079  0.00  0.00    +0.140 C 
BRANCH  16  17
ATOM     17  O   UNL     1      35.893 -19.465 -20.067  0.00  0.00    -0.461 OA
BRANCH  17  18
ATOM     18  C   UNL     1      35.238 -20.677 -19.695  0.00  0.00    +0.281 C 
BRANCH  18  19
ATOM     19  C   UNL     1      35.780 -21.161 -18.426  0.00  0.00    -0.044 C 
ATOM     20  C   UNL     1      36.224 -21.556 -17.382  0.00  0.00    -0.086 C 
ATOM     21  C   UNL     1      36.765 -22.039 -16.112  0.00  0.00    +0.090 C 
ENDBRANCH  18  19
ENDBRANCH  17  18
ENDBRANCH  16  17
ENDBRANCH   8  11
ENDBRANCH   6   8
ENDBRANCH   1   6
BRANCH   1  22
ATOM     22  C   UNL     1      33.818 -12.768 -22.741  0.00  0.00    +0.056 C 
BRANCH  22  24
ATOM     23  N   UNL     1      30.557 -11.553 -21.632  0.00  0.00    -0.312 N 
ATOM     24  C   UNL     1      32.595 -12.024 -22.376  0.00  0.00    -0.004 C 
ATOM     25  C   UNL     1      32.377 -10.626 -22.531  0.00  0.00    +0.010 C 
ATOM     26  C   UNL     1      31.091 -10.358 -22.057  0.00  0.00    +0.048 C 
ATOM     27  C   UNL     1      31.459 -12.566 -21.821  0.00  0.00    +0.058 C 
ATOM     28  C   UNL     1      33.151  -9.561 -23.032  0.00  0.00    -0.003 C 
ATOM     29  C   UNL     1      30.538  -9.072 -22.059  0.00  0.00    +0.014 C 
ATOM     30  C   UNL     1      32.611  -8.270 -23.040  0.00  0.00    -0.022 C 
ATOM     31  C   UNL     1      31.325  -8.031 -22.560  0.00  0.00    -0.003 C 
ATOM     32  C   UNL     1      33.427  -7.136 -23.567  0.00  0.00    +0.031 C 
ATOM     33  H   UNL     1      29.658 -11.665 -21.248  0.00  0.00    +0.152 HD
ENDBRANCH  22  24
ENDBRANCH   1  22
TORSDOF 10
ENDMDL
