MODEL 1
REMARK VINA RESULT:     -12.9      0.000      0.000
REMARK  Name = 11488320
REMARK  6 active torsions:
REMARK  status: ('A' for Active; 'I' for Inactive)
REMARK    1  A    between atoms: N_2  and  C_15
REMARK    2  A    between atoms: C_4  and  O_23
REMARK    3  A    between atoms: C_6  and  O_21
REMARK    4  A    between atoms: O_23  and  C_25
REMARK    5  A    between atoms: N_24  and  C_31
REMARK    6  A    between atoms: C_31  and  C_34
REMARK                            x       y       z     vdW  Elec       q    Type
REMARK                         _______ _______ _______ _____ _____    ______ ____
ROOT
ATOM      1  N   UNL     1      37.629 -22.808 -14.208  0.00  0.00    -0.248 NA
ATOM      2  N   UNL     1      34.727 -22.408 -17.131  0.00  0.00    -0.296 N 
ATOM      3  N   UNL     1      36.980 -22.279 -16.468  0.00  0.00    -0.230 NA
ATOM      4  C   UNL     1      33.674 -23.625 -13.211  0.00  0.00    +0.168 C 
ATOM      5  C   UNL     1      33.986 -23.229 -14.503  0.00  0.00    +0.044 C 
ATOM      6  C   UNL     1      34.674 -23.747 -12.260  0.00  0.00    +0.156 C 
ATOM      7  C   UNL     1      35.321 -22.952 -14.844  0.00  0.00    +0.048 C 
ATOM      8  C   UNL     1      36.000 -23.470 -12.606  0.00  0.00    +0.112 C 
ATOM      9  C   UNL     1      36.348 -23.070 -13.893  0.00  0.00    +0.066 C 
ATOM     10  C   UNL     1      35.708 -22.550 -16.119  0.00  0.00    +0.131 C 
ATOM     11  C   UNL     1      37.876 -22.427 -15.478  0.00  0.00    +0.252 C 
ATOM     12  H   UNL     1      33.957 -23.013 -17.026  0.00  0.00    +0.154 HD
ENDROOT
BRANCH   2  15
ATOM     13 CL   UNL     1      31.779 -20.055 -20.618  0.00  0.00    -0.080 Cl
ATOM     14  F   UNL     1      32.280 -21.774 -18.267  0.00  0.00    -0.202 F 
ATOM     15  C   UNL     1      34.639 -21.572 -18.256  0.00  0.00    +0.078 C 
ATOM     16  C   UNL     1      33.395 -21.265 -18.814  0.00  0.00    +0.164 C 
ATOM     17  C   UNL     1      35.800 -21.040 -18.826  0.00  0.00    +0.017 C 
ATOM     18  C   UNL     1      33.311 -20.435 -19.931  0.00  0.00    +0.086 C 
ATOM     19  C   UNL     1      35.717 -20.209 -19.943  0.00  0.00    +0.002 C 
ATOM     20  C   UNL     1      34.472 -19.907 -20.496  0.00  0.00    +0.014 C 
ENDBRANCH   2  15
BRANCH   6  21
ATOM     21  O   UNL     1      34.383 -24.135 -10.986  0.00  0.00    -0.472 OA
ATOM     22  C   UNL     1      35.428 -24.027 -10.022  0.00  0.00    +0.252 C 
ENDBRANCH   6  21
BRANCH   4  23
ATOM     23  O   UNL     1      32.370 -23.892 -12.886  0.00  0.00    -0.477 OA
BRANCH  23  25
ATOM     24  N   UNL     1      28.870 -23.447 -15.137  0.00  0.00    +0.393 N 
ATOM     25  C   UNL     1      31.468 -24.093 -13.965  0.00  0.00    +0.162 C 
ATOM     26  C   UNL     1      31.189 -22.752 -14.637  0.00  0.00    +0.021 C 
ATOM     27  C   UNL     1      30.168 -24.707 -13.453  0.00  0.00    +0.021 C 
ATOM     28  C   UNL     1      30.101 -22.879 -15.703  0.00  0.00    -0.073 C 
ATOM     29  C   UNL     1      29.114 -24.775 -14.556  0.00  0.00    -0.073 C 
ATOM     30  H   UNL     1      28.555 -22.830 -14.388  0.00  0.00    -0.079 HD
BRANCH  24  31
ATOM     31  C   UNL     1      27.823 -23.519 -16.157  0.00  0.00    +0.010 C 
BRANCH  31  34
ATOM     32  O   UNL     1      26.865 -21.596 -15.053  0.00  0.00    -0.277 OA
ATOM     33  N   UNL     1      26.399 -21.954 -17.300  0.00  0.00    -0.304 N 
ATOM     34  C   UNL     1      26.982 -22.262 -16.079  0.00  0.00    +0.201 C 
ATOM     35  C   UNL     1      25.569 -20.789 -17.511  0.00  0.00    +0.111 C 
ATOM     36  H   UNL     1      26.559 -22.558 -18.060  0.00  0.00    +0.149 HD
ENDBRANCH  31  34
ENDBRANCH  24  31
ENDBRANCH  23  25
ENDBRANCH   4  23
TORSDOF 6
ENDMDL
MODEL 2
REMARK VINA RESULT:     -11.9      4.108      7.642
REMARK  Name = 11488320
REMARK  6 active torsions:
REMARK  status: ('A' for Active; 'I' for Inactive)
REMARK    1  A    between atoms: N_2  and  C_15
REMARK    2  A    between atoms: C_4  and  O_23
REMARK    3  A    between atoms: C_6  and  O_21
REMARK    4  A    between atoms: O_23  and  C_25
REMARK    5  A    between atoms: N_24  and  C_31
REMARK    6  A    between atoms: C_31  and  C_34
REMARK                            x       y       z     vdW  Elec       q    Type
REMARK                         _______ _______ _______ _____ _____    ______ ____
ROOT
ATOM      1  N   UNL     1      31.340 -23.292 -12.828  0.00  0.00    -0.248 NA
ATOM      2  N   UNL     1      35.063 -24.138 -14.426  0.00  0.00    -0.296 N 
ATOM      3  N   UNL     1      33.613 -24.051 -12.575  0.00  0.00    -0.230 NA
ATOM      4  C   UNL     1      31.946 -22.675 -16.897  0.00  0.00    +0.168 C 
ATOM      5  C   UNL     1      32.987 -23.155 -16.115  0.00  0.00    +0.044 C 
ATOM      6  C   UNL     1      30.713 -22.404 -16.325  0.00  0.00    +0.156 C 
ATOM      7  C   UNL     1      32.786 -23.364 -14.740  0.00  0.00    +0.048 C 
ATOM      8  C   UNL     1      30.521 -22.615 -14.956  0.00  0.00    +0.112 C 
ATOM      9  C   UNL     1      31.544 -23.095 -14.142  0.00  0.00    +0.066 C 
ATOM     10  C   UNL     1      33.783 -23.843 -13.894  0.00  0.00    +0.131 C 
ATOM     11  C   UNL     1      32.385 -23.760 -12.116  0.00  0.00    +0.252 C 
ATOM     12  H   UNL     1      35.045 -24.425 -15.367  0.00  0.00    +0.154 HD
ENDROOT
BRANCH   2  15
ATOM     13 CL   UNL     1      39.891 -25.891 -14.436  0.00  0.00    -0.080 Cl
ATOM     14  F   UNL     1      37.099 -25.749 -15.393  0.00  0.00    -0.202 F 
ATOM     15  C   UNL     1      36.351 -24.098 -13.870  0.00  0.00    +0.078 C 
ATOM     16  C   UNL     1      37.364 -24.920 -14.372  0.00  0.00    +0.164 C 
ATOM     17  C   UNL     1      36.630 -23.234 -12.806  0.00  0.00    +0.017 C 
ATOM     18  C   UNL     1      38.642 -24.880 -13.817  0.00  0.00    +0.086 C 
ATOM     19  C   UNL     1      37.909 -23.192 -12.251  0.00  0.00    +0.002 C 
ATOM     20  C   UNL     1      38.915 -24.016 -12.756  0.00  0.00    +0.014 C 
ENDBRANCH   2  15
BRANCH   6  21
ATOM     21  O   UNL     1      29.681 -21.932 -17.080  0.00  0.00    -0.472 OA
ATOM     22  C   UNL     1      28.361 -22.204 -16.614  0.00  0.00    +0.252 C 
ENDBRANCH   6  21
BRANCH   4  23
ATOM     23  O   UNL     1      32.150 -22.472 -18.236  0.00  0.00    -0.477 OA
BRANCH  23  25
ATOM     24  N   UNL     1      34.529 -20.059 -20.693  0.00  0.00    +0.393 N 
ATOM     25  C   UNL     1      32.960 -21.362 -18.600  0.00  0.00    +0.162 C 
ATOM     26  C   UNL     1      32.309 -20.634 -19.772  0.00  0.00    +0.021 C 
ATOM     27  C   UNL     1      34.357 -21.839 -18.986  0.00  0.00    +0.021 C 
ATOM     28  C   UNL     1      33.214 -19.528 -20.313  0.00  0.00    -0.073 C 
ATOM     29  C   UNL     1      35.199 -20.695 -19.549  0.00  0.00    -0.073 C 
ATOM     30  H   UNL     1      34.384 -20.773 -21.408  0.00  0.00    -0.079 HD
BRANCH  24  31
ATOM     31  C   UNL     1      35.368 -18.999 -21.252  0.00  0.00    +0.010 C 
BRANCH  31  34
ATOM     32  O   UNL     1      34.400 -19.359 -23.436  0.00  0.00    -0.277 OA
ATOM     33  N   UNL     1      34.710 -17.183 -22.685  0.00  0.00    -0.304 N 
ATOM     34  C   UNL     1      34.782 -18.565 -22.580  0.00  0.00    +0.201 C 
ATOM     35  C   UNL     1      34.164 -16.504 -23.839  0.00  0.00    +0.111 C 
ATOM     36  H   UNL     1      35.046 -16.639 -21.938  0.00  0.00    +0.149 HD
ENDBRANCH  31  34
ENDBRANCH  24  31
ENDBRANCH  23  25
ENDBRANCH   4  23
TORSDOF 6
ENDMDL
MODEL 3
REMARK VINA RESULT:     -11.5      8.524     12.161
REMARK  Name = 11488320
REMARK  6 active torsions:
REMARK  status: ('A' for Active; 'I' for Inactive)
REMARK    1  A    between atoms: N_2  and  C_15
REMARK    2  A    between atoms: C_4  and  O_23
REMARK    3  A    between atoms: C_6  and  O_21
REMARK    4  A    between atoms: O_23  and  C_25
REMARK    5  A    between atoms: N_24  and  C_31
REMARK    6  A    between atoms: C_31  and  C_34
REMARK                            x       y       z     vdW  Elec       q    Type
REMARK                         _______ _______ _______ _____ _____    ______ ____
ROOT
ATOM      1  N   UNL     1      33.556 -18.120 -25.109  0.00  0.00    -0.248 NA
ATOM      2  N   UNL     1      35.006 -18.470 -21.249  0.00  0.00    -0.296 N 
ATOM      3  N   UNL     1      34.427 -19.458 -23.303  0.00  0.00    -0.230 NA
ATOM      4  C   UNL     1      33.839 -14.691 -22.771  0.00  0.00    +0.168 C 
ATOM      5  C   UNL     1      34.229 -15.913 -22.243  0.00  0.00    +0.044 C 
ATOM      6  C   UNL     1      33.358 -14.615 -24.068  0.00  0.00    +0.156 C 
ATOM      7  C   UNL     1      34.135 -17.074 -23.030  0.00  0.00    +0.048 C 
ATOM      8  C   UNL     1      33.268 -15.773 -24.846  0.00  0.00    +0.112 C 
ATOM      9  C   UNL     1      33.650 -17.016 -24.347  0.00  0.00    +0.066 C 
ATOM     10  C   UNL     1      34.508 -18.333 -22.568  0.00  0.00    +0.131 C 
ATOM     11  C   UNL     1      33.950 -19.281 -24.546  0.00  0.00    +0.252 C 
ATOM     12  H   UNL     1      35.478 -17.672 -20.918  0.00  0.00    +0.154 HD
ENDROOT
BRANCH   2  15
ATOM     13 CL   UNL     1      32.172 -21.794 -18.546  0.00  0.00    -0.080 Cl
ATOM     14  F   UNL     1      32.594 -19.586 -20.464  0.00  0.00    -0.202 F 
ATOM     15  C   UNL     1      34.957 -19.523 -20.322  0.00  0.00    +0.078 C 
ATOM     16  C   UNL     1      33.729 -20.072 -19.938  0.00  0.00    +0.164 C 
ATOM     17  C   UNL     1      36.139 -20.032 -19.774  0.00  0.00    +0.017 C 
ATOM     18  C   UNL     1      33.683 -21.117 -19.017  0.00  0.00    +0.086 C 
ATOM     19  C   UNL     1      36.093 -21.077 -18.853  0.00  0.00    +0.002 C 
ATOM     20  C   UNL     1      34.865 -21.620 -18.474  0.00  0.00    +0.014 C 
ENDBRANCH   2  15
BRANCH   6  21
ATOM     21  O   UNL     1      32.970 -13.422 -24.601  0.00  0.00    -0.472 OA
ATOM     22  C   UNL     1      32.696 -13.395 -26.000  0.00  0.00    +0.252 C 
ENDBRANCH   6  21
BRANCH   4  23
ATOM     23  O   UNL     1      33.931 -13.565 -21.997  0.00  0.00    -0.477 OA
BRANCH  23  25
ATOM     24  N   UNL     1      31.812 -10.019 -21.323  0.00  0.00    +0.393 N 
ATOM     25  C   UNL     1      32.844 -12.651 -22.062  0.00  0.00    +0.162 C 
ATOM     26  C   UNL     1      33.312 -11.371 -22.748  0.00  0.00    +0.021 C 
ATOM     27  C   UNL     1      32.337 -12.341 -20.657  0.00  0.00    +0.021 C 
ATOM     28  C   UNL     1      32.233 -10.290 -22.704  0.00  0.00    -0.073 C 
ATOM     29  C   UNL     1      31.287 -11.232 -20.678  0.00  0.00    -0.073 C 
ATOM     30  H   UNL     1      32.633  -9.715 -20.798  0.00  0.00    -0.079 HD
BRANCH  24  31
ATOM     31  C   UNL     1      30.814  -8.950 -21.292  0.00  0.00    +0.010 C 
BRANCH  31  34
ATOM     32  O   UNL     1      32.029  -7.860 -19.511  0.00  0.00    -0.277 OA
ATOM     33  N   UNL     1      31.161  -6.571 -21.236  0.00  0.00    -0.304 N 
ATOM     34  C   UNL     1      31.400  -7.759 -20.561  0.00  0.00    +0.201 C 
ATOM     35  C   UNL     1      31.636  -5.286 -20.772  0.00  0.00    +0.111 C 
ATOM     36  H   UNL     1      30.643  -6.603 -22.072  0.00  0.00    +0.149 HD
ENDBRANCH  31  34
ENDBRANCH  24  31
ENDBRANCH  23  25
ENDBRANCH   4  23
TORSDOF 6
ENDMDL
MODEL 4
REMARK VINA RESULT:     -10.5      3.440      6.774
REMARK  Name = 11488320
REMARK  6 active torsions:
REMARK  status: ('A' for Active; 'I' for Inactive)
REMARK    1  A    between atoms: N_2  and  C_15
REMARK    2  A    between atoms: C_4  and  O_23
REMARK    3  A    between atoms: C_6  and  O_21
REMARK    4  A    between atoms: O_23  and  C_25
REMARK    5  A    between atoms: N_24  and  C_31
REMARK    6  A    between atoms: C_31  and  C_34
REMARK                            x       y       z     vdW  Elec       q    Type
REMARK                         _______ _______ _______ _____ _____    ______ ____
ROOT
ATOM      1  N   UNL     1      35.160 -23.826 -12.129  0.00  0.00    -0.248 NA
ATOM      2  N   UNL     1      32.091 -22.952 -14.765  0.00  0.00    -0.296 N 
ATOM      3  N   UNL     1      32.811 -23.624 -12.629  0.00  0.00    -0.230 NA
ATOM      4  C   UNL     1      36.134 -22.654 -16.000  0.00  0.00    +0.168 C 
ATOM      5  C   UNL     1      34.801 -22.741 -15.627  0.00  0.00    +0.044 C 
ATOM      6  C   UNL     1      37.133 -22.955 -15.089  0.00  0.00    +0.156 C 
ATOM      7  C   UNL     1      34.468 -23.137 -14.319  0.00  0.00    +0.048 C 
ATOM      8  C   UNL     1      36.795 -23.347 -13.790  0.00  0.00    +0.112 C 
ATOM      9  C   UNL     1      35.467 -23.446 -13.382  0.00  0.00    +0.066 C 
ATOM     10  C   UNL     1      33.153 -23.247 -13.875  0.00  0.00    +0.131 C 
ATOM     11  C   UNL     1      33.849 -23.893 -11.820  0.00  0.00    +0.252 C 
ATOM     12  H   UNL     1      32.319 -22.277 -15.444  0.00  0.00    +0.154 HD
ENDROOT
BRANCH   2  15
ATOM     13 CL   UNL     1      27.427 -22.547 -16.877  0.00  0.00    -0.080 Cl
ATOM     14  F   UNL     1      30.244 -21.763 -16.454  0.00  0.00    -0.202 F 
ATOM     15  C   UNL     1      30.777 -23.435 -14.865  0.00  0.00    +0.078 C 
ATOM     16  C   UNL     1      29.860 -22.821 -15.723  0.00  0.00    +0.164 C 
ATOM     17  C   UNL     1      30.376 -24.538 -14.105  0.00  0.00    +0.017 C 
ATOM     18  C   UNL     1      28.556 -23.303 -15.820  0.00  0.00    +0.086 C 
ATOM     19  C   UNL     1      29.071 -25.021 -14.202  0.00  0.00    +0.002 C 
ATOM     20  C   UNL     1      28.161 -24.403 -15.059  0.00  0.00    +0.014 C 
ENDBRANCH   2  15
BRANCH   6  21
ATOM     21  O   UNL     1      38.448 -22.873 -15.441  0.00  0.00    -0.472 OA
ATOM     22  C   UNL     1      39.294 -23.948 -15.037  0.00  0.00    +0.252 C 
ENDBRANCH   6  21
BRANCH   4  23
ATOM     23  O   UNL     1      36.451 -22.269 -17.276  0.00  0.00    -0.477 OA
BRANCH  23  25
ATOM     24  N   UNL     1      34.133 -20.525 -20.292  0.00  0.00    +0.393 N 
ATOM     25  C   UNL     1      35.596 -21.313 -17.889  0.00  0.00    +0.162 C 
ATOM     26  C   UNL     1      34.306 -22.005 -18.320  0.00  0.00    +0.021 C 
ATOM     27  C   UNL     1      36.290 -20.690 -19.097  0.00  0.00    +0.021 C 
ATOM     28  C   UNL     1      33.414 -21.064 -19.130  0.00  0.00    -0.073 C 
ATOM     29  C   UNL     1      35.338 -19.789 -19.881  0.00  0.00    -0.073 C 
ATOM     30  H   UNL     1      34.428 -21.311 -20.872  0.00  0.00    -0.079 HD
BRANCH  24  31
ATOM     31  C   UNL     1      33.253 -19.664 -21.084  0.00  0.00    +0.010 C 
BRANCH  31  34
ATOM     32  O   UNL     1      34.545 -19.402 -23.108  0.00  0.00    -0.277 OA
ATOM     33  N   UNL     1      34.258 -17.570 -21.709  0.00  0.00    -0.304 N 
ATOM     34  C   UNL     1      34.094 -18.896 -22.083  0.00  0.00    +0.201 C 
ATOM     35  C   UNL     1      34.994 -16.609 -22.500  0.00  0.00    +0.111 C 
ATOM     36  H   UNL     1      33.854 -17.269 -20.864  0.00  0.00    +0.149 HD
ENDBRANCH  31  34
ENDBRANCH  24  31
ENDBRANCH  23  25
ENDBRANCH   4  23
TORSDOF 6
ENDMDL
MODEL 5
REMARK VINA RESULT:     -10.3     14.045     17.906
REMARK  Name = 11488320
REMARK  6 active torsions:
REMARK  status: ('A' for Active; 'I' for Inactive)
REMARK    1  A    between atoms: N_2  and  C_15
REMARK    2  A    between atoms: C_4  and  O_23
REMARK    3  A    between atoms: C_6  and  O_21
REMARK    4  A    between atoms: O_23  and  C_25
REMARK    5  A    between atoms: N_24  and  C_31
REMARK    6  A    between atoms: C_31  and  C_34
REMARK                            x       y       z     vdW  Elec       q    Type
REMARK                         _______ _______ _______ _____ _____    ______ ____
ROOT
ATOM      1  N   UNL     1      31.148  -8.608 -19.461  0.00  0.00    -0.248 NA
ATOM      2  N   UNL     1      31.937 -11.505 -22.310  0.00  0.00    -0.296 N 
ATOM      3  N   UNL     1      31.600 -10.898 -20.062  0.00  0.00    -0.230 NA
ATOM      4  C   UNL     1      31.368  -7.465 -23.455  0.00  0.00    +0.168 C 
ATOM      5  C   UNL     1      31.559  -8.795 -23.113  0.00  0.00    +0.044 C 
ATOM      6  C   UNL     1      31.106  -6.524 -22.473  0.00  0.00    +0.156 C 
ATOM      7  C   UNL     1      31.486  -9.186 -21.764  0.00  0.00    +0.048 C 
ATOM      8  C   UNL     1      31.034  -6.919 -21.133  0.00  0.00    +0.112 C 
ATOM      9  C   UNL     1      31.221  -8.246 -20.754  0.00  0.00    +0.066 C 
ATOM     10  C   UNL     1      31.666 -10.501 -21.347  0.00  0.00    +0.131 C 
ATOM     11  C   UNL     1      31.341  -9.914 -19.186  0.00  0.00    +0.252 C 
ATOM     12  H   UNL     1      31.540 -11.326 -23.193  0.00  0.00    +0.154 HD
ENDROOT
BRANCH   2  15
ATOM     13 CL   UNL     1      33.965 -15.526 -24.780  0.00  0.00    -0.080 Cl
ATOM     14  F   UNL     1      32.475 -12.981 -24.592  0.00  0.00    -0.202 F 
ATOM     15  C   UNL     1      32.662 -12.705 -22.248  0.00  0.00    +0.078 C 
ATOM     16  C   UNL     1      32.923 -13.436 -23.412  0.00  0.00    +0.164 C 
ATOM     17  C   UNL     1      33.131 -13.180 -21.019  0.00  0.00    +0.017 C 
ATOM     18  C   UNL     1      33.642 -14.627 -23.347  0.00  0.00    +0.086 C 
ATOM     19  C   UNL     1      33.851 -14.372 -20.954  0.00  0.00    +0.002 C 
ATOM     20  C   UNL     1      34.107 -15.096 -22.118  0.00  0.00    +0.014 C 
ENDBRANCH   2  15
BRANCH   6  21
ATOM     21  O   UNL     1      30.916  -5.213 -22.793  0.00  0.00    -0.472 OA
ATOM     22  C   UNL     1      30.124  -4.436 -21.898  0.00  0.00    +0.252 C 
ENDBRANCH   6  21
BRANCH   4  23
ATOM     23  O   UNL     1      31.444  -7.092 -24.771  0.00  0.00    -0.477 OA
BRANCH  23  25
ATOM     24  N   UNL     1      34.639  -5.056 -26.549  0.00  0.00    +0.393 N 
ATOM     25  C   UNL     1      32.295  -5.996 -25.079  0.00  0.00    +0.162 C 
ATOM     26  C   UNL     1      32.268  -5.754 -26.585  0.00  0.00    +0.021 C 
ATOM     27  C   UNL     1      33.718  -6.293 -24.617  0.00  0.00    +0.021 C 
ATOM     28  C   UNL     1      33.288  -4.693 -26.997  0.00  0.00    -0.073 C 
ATOM     29  C   UNL     1      34.692  -5.215 -25.088  0.00  0.00    -0.073 C 
ATOM     30  H   UNL     1      34.879  -5.953 -26.971  0.00  0.00    -0.079 HD
BRANCH  24  31
ATOM     31  C   UNL     1      35.611  -4.055 -26.990  0.00  0.00    +0.010 C 
BRANCH  31  34
ATOM     32  O   UNL     1      35.723  -3.473 -29.332  0.00  0.00    -0.277 OA
ATOM     33  N   UNL     1      36.514  -5.546 -28.647  0.00  0.00    -0.304 N 
ATOM     34  C   UNL     1      35.934  -4.301 -28.449  0.00  0.00    +0.201 C 
ATOM     35  C   UNL     1      36.947  -6.022 -29.942  0.00  0.00    +0.111 C 
ATOM     36  H   UNL     1      36.638  -6.134 -27.867  0.00  0.00    +0.149 HD
ENDBRANCH  31  34
ENDBRANCH  24  31
ENDBRANCH  23  25
ENDBRANCH   4  23
TORSDOF 6
ENDMDL
MODEL 6
REMARK VINA RESULT:      -9.9      7.813     11.314
REMARK  Name = 11488320
REMARK  6 active torsions:
REMARK  status: ('A' for Active; 'I' for Inactive)
REMARK    1  A    between atoms: N_2  and  C_15
REMARK    2  A    between atoms: C_4  and  O_23
REMARK    3  A    between atoms: C_6  and  O_21
REMARK    4  A    between atoms: O_23  and  C_25
REMARK    5  A    between atoms: N_24  and  C_31
REMARK    6  A    between atoms: C_31  and  C_34
REMARK                            x       y       z     vdW  Elec       q    Type
REMARK                         _______ _______ _______ _____ _____    ______ ____
ROOT
ATOM      1  N   UNL     1      33.099 -14.409 -25.915  0.00  0.00    -0.248 NA
ATOM      2  N   UNL     1      32.235 -12.450 -22.373  0.00  0.00    -0.296 N 
ATOM      3  N   UNL     1      32.151 -12.542 -24.722  0.00  0.00    -0.230 NA
ATOM      4  C   UNL     1      34.263 -16.171 -22.331  0.00  0.00    +0.168 C 
ATOM      5  C   UNL     1      33.601 -14.953 -22.311  0.00  0.00    +0.044 C 
ATOM      6  C   UNL     1      34.535 -16.796 -23.537  0.00  0.00    +0.156 C 
ATOM      7  C   UNL     1      33.206 -14.354 -23.520  0.00  0.00    +0.048 C 
ATOM      8  C   UNL     1      34.139 -16.195 -24.736  0.00  0.00    +0.112 C 
ATOM      9  C   UNL     1      33.473 -14.972 -24.752  0.00  0.00    +0.066 C 
ATOM     10  C   UNL     1      32.538 -13.134 -23.577  0.00  0.00    +0.131 C 
ATOM     11  C   UNL     1      32.458 -13.225 -25.837  0.00  0.00    +0.252 C 
ATOM     12  H   UNL     1      32.091 -13.047 -21.603  0.00  0.00    +0.154 HD
ENDROOT
BRANCH   2  15
ATOM     13 CL   UNL     1      31.104  -8.836 -18.903  0.00  0.00    -0.080 Cl
ATOM     14  F   UNL     1      31.472 -11.613 -19.844  0.00  0.00    -0.202 F 
ATOM     15  C   UNL     1      32.099 -11.087 -22.066  0.00  0.00    +0.078 C 
ATOM     16  C   UNL     1      31.713 -10.685 -20.784  0.00  0.00    +0.164 C 
ATOM     17  C   UNL     1      32.351 -10.120 -23.044  0.00  0.00    +0.017 C 
ATOM     18  C   UNL     1      31.579  -9.332 -20.482  0.00  0.00    +0.086 C 
ATOM     19  C   UNL     1      32.218  -8.765 -22.742  0.00  0.00    +0.002 C 
ATOM     20  C   UNL     1      31.831  -8.370 -21.461  0.00  0.00    +0.014 C 
ENDBRANCH   2  15
BRANCH   6  21
ATOM     21  O   UNL     1      35.185 -17.993 -23.573  0.00  0.00    -0.472 OA
ATOM     22  C   UNL     1      34.442 -19.121 -24.030  0.00  0.00    +0.252 C 
ENDBRANCH   6  21
BRANCH   4  23
ATOM     23  O   UNL     1      34.647 -16.747 -21.149  0.00  0.00    -0.477 OA
BRANCH  23  25
ATOM     24  N   UNL     1      34.452 -20.570 -19.457  0.00  0.00    +0.393 N 
ATOM     25  C   UNL     1      34.673 -18.168 -21.106  0.00  0.00    +0.162 C 
ATOM     26  C   UNL     1      33.333 -18.673 -20.578  0.00  0.00    +0.021 C 
ATOM     27  C   UNL     1      35.808 -18.643 -20.204  0.00  0.00    +0.021 C 
ATOM     28  C   UNL     1      33.357 -20.185 -20.357  0.00  0.00    -0.073 C 
ATOM     29  C   UNL     1      35.756 -20.155 -19.996  0.00  0.00    -0.073 C 
ATOM     30  H   UNL     1      34.312 -20.089 -18.569  0.00  0.00    -0.079 HD
BRANCH  24  31
ATOM     31  C   UNL     1      34.434 -22.014 -19.217  0.00  0.00    +0.010 C 
BRANCH  31  34
ATOM     32  O   UNL     1      34.658 -22.255 -16.825  0.00  0.00    -0.277 OA
ATOM     33  N   UNL     1      32.557 -22.477 -17.787  0.00  0.00    -0.304 N 
ATOM     34  C   UNL     1      33.928 -22.266 -17.812  0.00  0.00    +0.201 C 
ATOM     35  C   UNL     1      31.813 -22.713 -16.570  0.00  0.00    +0.111 C 
ATOM     36  H   UNL     1      32.066 -22.465 -18.640  0.00  0.00    +0.149 HD
ENDBRANCH  31  34
ENDBRANCH  24  31
ENDBRANCH  23  25
ENDBRANCH   4  23
TORSDOF 6
ENDMDL
