MODEL 1
REMARK VINA RESULT:     -11.8      0.000      0.000
REMARK  Name = 9675990
REMARK  9 active torsions:
REMARK  status: ('A' for Active; 'I' for Inactive)
REMARK    1  A    between atoms: C_1  and  N_2
REMARK    2  A    between atoms: C_1  and  C_19
REMARK    3  A    between atoms: N_3  and  C_10
REMARK    4  A    between atoms: C_10  and  C_11
REMARK    5  A    between atoms: N_18  and  N_21
REMARK    6  A    between atoms: N_21  and  C_22
REMARK    7  A    between atoms: C_22  and  C_24
REMARK    8  A    between atoms: C_26  and  C_30
REMARK    9  A    between atoms: C_30  and  C_31
REMARK                            x       y       z     vdW  Elec       q    Type
REMARK                         _______ _______ _______ _____ _____    ______ ____
ROOT
ATOM      1  C   UNL     1      34.717 -15.342 -23.038  0.00  0.00    +0.011 C 
ENDROOT
BRANCH   1   2
ATOM      2  N   UNL     1      33.517 -14.541 -22.619  0.00  0.00    +0.390 N 
ATOM      3  N   UNL     1      32.105 -12.215 -21.676  0.00  0.00    +0.387 N 
ATOM      4  C   UNL     1      33.597 -14.117 -21.174  0.00  0.00    -0.100 C 
ATOM      5  C   UNL     1      33.284 -13.356 -23.521  0.00  0.00    -0.100 C 
ATOM      6  C   UNL     1      32.319 -13.373 -20.799  0.00  0.00    -0.100 C 
ATOM      7  C   UNL     1      32.015 -12.633 -23.082  0.00  0.00    -0.100 C 
ATOM      8  H   UNL     1      32.710 -15.158 -22.711  0.00  0.00    -0.079 HD
ATOM      9  H   UNL     1      32.906 -11.590 -21.580  0.00  0.00    -0.079 HD
BRANCH   3  10
ATOM     10  C   UNL     1      30.900 -11.486 -21.280  0.00  0.00    -0.050 C 
BRANCH  10  11
ATOM     11  C   UNL     1      31.203 -10.058 -20.910  0.00  0.00    -0.043 C 
ATOM     12  C   UNL     1      31.249  -9.680 -19.568  0.00  0.00    -0.006 C 
ATOM     13  C   UNL     1      31.441  -9.114 -21.909  0.00  0.00    -0.006 C 
ATOM     14  C   UNL     1      31.531  -8.357 -19.225  0.00  0.00    -0.000 C 
ATOM     15  C   UNL     1      31.722  -7.791 -21.565  0.00  0.00    -0.000 C 
ATOM     16  C   UNL     1      31.767  -7.413 -20.224  0.00  0.00    -0.000 C 
ENDBRANCH  10  11
ENDBRANCH   3  10
ENDBRANCH   1   2
BRANCH   1  19
ATOM     17  O   UNL     1      33.770 -17.192 -24.260  0.00  0.00    -0.276 OA
ATOM     18  N   UNL     1      34.791 -17.583 -22.213  0.00  0.00    -0.234 N 
ATOM     19  C   UNL     1      34.363 -16.789 -23.262  0.00  0.00    +0.216 C 
ATOM     20  H   UNL     1      35.262 -17.187 -21.445  0.00  0.00    +0.171 HD
BRANCH  18  21
ATOM     21  N   UNL     1      34.549 -18.913 -22.262  0.00  0.00    -0.127 NA
BRANCH  21  22
ATOM     22  C   UNL     1      33.678 -19.320 -21.396  0.00  0.00    +0.141 C 
BRANCH  22  24
ATOM     23  O   UNL     1      31.875 -20.864 -19.829  0.00  0.00    -0.287 OA
ATOM     24  C   UNL     1      34.053 -20.178 -20.258  0.00  0.00    +0.036 C 
ATOM     25  C   UNL     1      33.123 -20.914 -19.524  0.00  0.00    +0.189 C 
ATOM     26  C   UNL     1      33.546 -21.705 -18.456  0.00  0.00    +0.021 C 
ATOM     27  C   UNL     1      35.406 -20.233 -19.924  0.00  0.00    +0.000 C 
ATOM     28  C   UNL     1      34.899 -21.762 -18.123  0.00  0.00    -0.001 C 
ATOM     29  C   UNL     1      35.829 -21.026 -18.857  0.00  0.00    -0.000 C 
BRANCH  26  30
ATOM     30  C   UNL     1      32.596 -22.520 -17.630  0.00  0.00    +0.056 C 
BRANCH  30  31
ATOM     31  C   UNL     1      33.180 -22.927 -16.305  0.00  0.00    -0.021 C 
ATOM     32  C   UNL     1      32.544 -22.801 -15.135  0.00  0.00    -0.005 C 
ENDBRANCH  30  31
ENDBRANCH  26  30
ENDBRANCH  22  24
ENDBRANCH  21  22
ENDBRANCH  18  21
ENDBRANCH   1  19
TORSDOF 9
ENDMDL
MODEL 2
REMARK VINA RESULT:     -11.6      1.386      1.926
REMARK  Name = 9675990
REMARK  9 active torsions:
REMARK  status: ('A' for Active; 'I' for Inactive)
REMARK    1  A    between atoms: C_1  and  N_2
REMARK    2  A    between atoms: C_1  and  C_19
REMARK    3  A    between atoms: N_3  and  C_10
REMARK    4  A    between atoms: C_10  and  C_11
REMARK    5  A    between atoms: N_18  and  N_21
REMARK    6  A    between atoms: N_21  and  C_22
REMARK    7  A    between atoms: C_22  and  C_24
REMARK    8  A    between atoms: C_26  and  C_30
REMARK    9  A    between atoms: C_30  and  C_31
REMARK                            x       y       z     vdW  Elec       q    Type
REMARK                         _______ _______ _______ _____ _____    ______ ____
ROOT
ATOM      1  C   UNL     1      34.702 -15.437 -22.787  0.00  0.00    +0.011 C 
ENDROOT
BRANCH   1   2
ATOM      2  N   UNL     1      33.510 -14.606 -22.405  0.00  0.00    +0.390 N 
ATOM      3  N   UNL     1      32.116 -12.219 -21.599  0.00  0.00    +0.387 N 
ATOM      4  C   UNL     1      33.612 -14.087 -20.993  0.00  0.00    -0.100 C 
ATOM      5  C   UNL     1      33.266 -13.484 -23.381  0.00  0.00    -0.100 C 
ATOM      6  C   UNL     1      32.341 -13.316 -20.650  0.00  0.00    -0.100 C 
ATOM      7  C   UNL     1      32.005 -12.730 -22.972  0.00  0.00    -0.100 C 
ATOM      8  H   UNL     1      32.701 -15.226 -22.444  0.00  0.00    -0.079 HD
ATOM      9  H   UNL     1      32.919 -11.591 -21.557  0.00  0.00    -0.079 HD
BRANCH   3  10
ATOM     10  C   UNL     1      30.918 -11.462 -21.235  0.00  0.00    -0.050 C 
BRANCH  10  11
ATOM     11  C   UNL     1      31.230 -10.015 -20.958  0.00  0.00    -0.043 C 
ATOM     12  C   UNL     1      31.159  -9.523 -19.654  0.00  0.00    -0.006 C 
ATOM     13  C   UNL     1      31.593  -9.168 -22.005  0.00  0.00    -0.006 C 
ATOM     14  C   UNL     1      31.450  -8.183 -19.398  0.00  0.00    -0.000 C 
ATOM     15  C   UNL     1      31.883  -7.827 -21.748  0.00  0.00    -0.000 C 
ATOM     16  C   UNL     1      31.811  -7.335 -20.445  0.00  0.00    -0.000 C 
ENDBRANCH  10  11
ENDBRANCH   3  10
ENDBRANCH   1   2
BRANCH   1  19
ATOM     17  O   UNL     1      34.973 -16.760 -20.790  0.00  0.00    -0.276 OA
ATOM     18  N   UNL     1      34.533 -17.820 -22.807  0.00  0.00    -0.234 N 
ATOM     19  C   UNL     1      34.757 -16.720 -21.999  0.00  0.00    +0.216 C 
ATOM     20  H   UNL     1      34.366 -17.708 -23.770  0.00  0.00    +0.171 HD
BRANCH  18  21
ATOM     21  N   UNL     1      34.549 -19.052 -22.249  0.00  0.00    -0.127 NA
BRANCH  21  22
ATOM     22  C   UNL     1      33.606 -19.249 -21.385  0.00  0.00    +0.141 C 
BRANCH  22  24
ATOM     23  O   UNL     1      36.050 -19.730 -20.012  0.00  0.00    -0.287 OA
ATOM     24  C   UNL     1      33.778 -20.156 -20.236  0.00  0.00    +0.036 C 
ATOM     25  C   UNL     1      35.003 -20.353 -19.601  0.00  0.00    +0.189 C 
ATOM     26  C   UNL     1      35.095 -21.227 -18.518  0.00  0.00    +0.021 C 
ATOM     27  C   UNL     1      32.643 -20.832 -19.788  0.00  0.00    +0.000 C 
ATOM     28  C   UNL     1      33.961 -21.903 -18.069  0.00  0.00    -0.001 C 
ATOM     29  C   UNL     1      32.735 -21.705 -18.704  0.00  0.00    -0.000 C 
BRANCH  26  30
ATOM     30  C   UNL     1      36.383 -21.480 -17.793  0.00  0.00    +0.056 C 
BRANCH  30  31
ATOM     31  C   UNL     1      36.178 -21.812 -16.341  0.00  0.00    -0.021 C 
ATOM     32  C   UNL     1      37.110 -22.368 -15.559  0.00  0.00    -0.005 C 
ENDBRANCH  30  31
ENDBRANCH  26  30
ENDBRANCH  22  24
ENDBRANCH  21  22
ENDBRANCH  18  21
ENDBRANCH   1  19
TORSDOF 9
ENDMDL
MODEL 3
REMARK VINA RESULT:     -11.4      1.680      2.822
REMARK  Name = 9675990
REMARK  9 active torsions:
REMARK  status: ('A' for Active; 'I' for Inactive)
REMARK    1  A    between atoms: C_1  and  N_2
REMARK    2  A    between atoms: C_1  and  C_19
REMARK    3  A    between atoms: N_3  and  C_10
REMARK    4  A    between atoms: C_10  and  C_11
REMARK    5  A    between atoms: N_18  and  N_21
REMARK    6  A    between atoms: N_21  and  C_22
REMARK    7  A    between atoms: C_22  and  C_24
REMARK    8  A    between atoms: C_26  and  C_30
REMARK    9  A    between atoms: C_30  and  C_31
REMARK                            x       y       z     vdW  Elec       q    Type
REMARK                         _______ _______ _______ _____ _____    ______ ____
ROOT
ATOM      1  C   UNL     1      34.558 -18.169 -23.016  0.00  0.00    +0.011 C 
ENDROOT
BRANCH   1   2
ATOM      2  N   UNL     1      34.485 -16.699 -23.319  0.00  0.00    +0.390 N 
ATOM      3  N   UNL     1      33.238 -14.111 -23.512  0.00  0.00    +0.387 N 
ATOM      4  C   UNL     1      33.493 -16.396 -24.413  0.00  0.00    -0.100 C 
ATOM      5  C   UNL     1      34.202 -15.881 -22.085  0.00  0.00    -0.100 C 
ATOM      6  C   UNL     1      33.524 -14.901 -24.716  0.00  0.00    -0.100 C 
ATOM      7  C   UNL     1      34.214 -14.401 -22.453  0.00  0.00    -0.100 C 
ATOM      8  H   UNL     1      35.407 -16.429 -23.660  0.00  0.00    -0.079 HD
ATOM      9  H   UNL     1      32.312 -14.373 -23.172  0.00  0.00    -0.079 HD
BRANCH   3  10
ATOM     10  C   UNL     1      33.228 -12.683 -23.826  0.00  0.00    -0.050 C 
BRANCH  10  11
ATOM     11  C   UNL     1      32.451 -11.889 -22.809  0.00  0.00    -0.043 C 
ATOM     12  C   UNL     1      31.967 -12.514 -21.659  0.00  0.00    -0.006 C 
ATOM     13  C   UNL     1      32.219 -10.530 -23.015  0.00  0.00    -0.006 C 
ATOM     14  C   UNL     1      31.248 -11.779 -20.716  0.00  0.00    -0.000 C 
ATOM     15  C   UNL     1      31.499  -9.795 -22.071  0.00  0.00    -0.000 C 
ATOM     16  C   UNL     1      31.014 -10.419 -20.923  0.00  0.00    -0.000 C 
ENDBRANCH  10  11
ENDBRANCH   3  10
ENDBRANCH   1   2
BRANCH   1  19
ATOM     17  O   UNL     1      36.779 -18.137 -22.080  0.00  0.00    -0.276 OA
ATOM     18  N   UNL     1      35.059 -19.146 -20.893  0.00  0.00    -0.234 N 
ATOM     19  C   UNL     1      35.600 -18.467 -21.970  0.00  0.00    +0.216 C 
ATOM     20  H   UNL     1      34.102 -19.376 -20.876  0.00  0.00    +0.171 HD
BRANCH  18  21
ATOM     21  N   UNL     1      35.868 -19.488 -19.865  0.00  0.00    -0.127 NA
BRANCH  21  22
ATOM     22  C   UNL     1      35.943 -20.763 -19.658  0.00  0.00    +0.141 C 
BRANCH  22  24
ATOM     23  O   UNL     1      33.340 -21.838 -19.262  0.00  0.00    -0.287 OA
ATOM     24  C   UNL     1      35.453 -21.382 -18.413  0.00  0.00    +0.036 C 
ATOM     25  C   UNL     1      34.163 -21.894 -18.276  0.00  0.00    +0.189 C 
ATOM     26  C   UNL     1      33.765 -22.466 -17.069  0.00  0.00    +0.021 C 
ATOM     27  C   UNL     1      36.345 -21.442 -17.343  0.00  0.00    +0.000 C 
ATOM     28  C   UNL     1      34.657 -22.528 -15.998  0.00  0.00    -0.001 C 
ATOM     29  C   UNL     1      35.947 -22.016 -16.135  0.00  0.00    -0.000 C 
BRANCH  26  30
ATOM     30  C   UNL     1      32.393 -23.034 -16.859  0.00  0.00    +0.056 C 
BRANCH  30  31
ATOM     31  C   UNL     1      31.888 -22.834 -15.456  0.00  0.00    -0.021 C 
ATOM     32  C   UNL     1      30.630 -22.498 -15.153  0.00  0.00    -0.005 C 
ENDBRANCH  30  31
ENDBRANCH  26  30
ENDBRANCH  22  24
ENDBRANCH  21  22
ENDBRANCH  18  21
ENDBRANCH   1  19
TORSDOF 9
ENDMDL
MODEL 4
REMARK VINA RESULT:     -11.3      3.119     11.356
REMARK  Name = 9675990
REMARK  9 active torsions:
REMARK  status: ('A' for Active; 'I' for Inactive)
REMARK    1  A    between atoms: C_1  and  N_2
REMARK    2  A    between atoms: C_1  and  C_19
REMARK    3  A    between atoms: N_3  and  C_10
REMARK    4  A    between atoms: C_10  and  C_11
REMARK    5  A    between atoms: N_18  and  N_21
REMARK    6  A    between atoms: N_21  and  C_22
REMARK    7  A    between atoms: C_22  and  C_24
REMARK    8  A    between atoms: C_26  and  C_30
REMARK    9  A    between atoms: C_30  and  C_31
REMARK                            x       y       z     vdW  Elec       q    Type
REMARK                         _______ _______ _______ _____ _____    ______ ____
ROOT
ATOM      1  C   UNL     1      35.568 -21.049 -19.593  0.00  0.00    +0.011 C 
ENDROOT
BRANCH   1   2
ATOM      2  N   UNL     1      35.185 -21.292 -18.161  0.00  0.00    +0.390 N 
ATOM      3  N   UNL     1      34.969 -22.796 -15.714  0.00  0.00    +0.387 N 
ATOM      4  C   UNL     1      34.188 -22.416 -18.026  0.00  0.00    -0.100 C 
ATOM      5  C   UNL     1      36.389 -21.525 -17.285  0.00  0.00    -0.100 C 
ATOM      6  C   UNL     1      33.792 -22.560 -16.559  0.00  0.00    -0.100 C 
ATOM      7  C   UNL     1      35.932 -21.694 -15.840  0.00  0.00    -0.100 C 
ATOM      8  H   UNL     1      34.729 -20.441 -17.834  0.00  0.00    -0.079 HD
ATOM      9  H   UNL     1      35.423 -23.653 -16.032  0.00  0.00    -0.079 HD
BRANCH   3  10
ATOM     10  C   UNL     1      34.572 -22.975 -14.318  0.00  0.00    -0.050 C 
BRANCH  10  11
ATOM     11  C   UNL     1      35.550 -23.833 -13.561  0.00  0.00    -0.043 C 
ATOM     12  C   UNL     1      35.959 -25.058 -14.090  0.00  0.00    -0.006 C 
ATOM     13  C   UNL     1      36.049 -23.403 -12.332  0.00  0.00    -0.006 C 
ATOM     14  C   UNL     1      36.866 -25.852 -13.389  0.00  0.00    -0.000 C 
ATOM     15  C   UNL     1      36.957 -24.199 -11.630  0.00  0.00    -0.000 C 
ATOM     16  C   UNL     1      37.365 -25.423 -12.159  0.00  0.00    -0.000 C 
ENDBRANCH  10  11
ENDBRANCH   3  10
ENDBRANCH   1   2
BRANCH   1  19
ATOM     17  O   UNL     1      33.447 -19.931 -19.849  0.00  0.00    -0.276 OA
ATOM     18  N   UNL     1      35.097 -19.623 -21.452  0.00  0.00    -0.234 N 
ATOM     19  C   UNL     1      34.574 -20.152 -20.285  0.00  0.00    +0.216 C 
ATOM     20  H   UNL     1      36.012 -19.846 -21.737  0.00  0.00    +0.171 HD
BRANCH  18  21
ATOM     21  N   UNL     1      34.327 -18.793 -22.193  0.00  0.00    -0.127 NA
BRANCH  21  22
ATOM     22  C   UNL     1      34.984 -17.835 -22.761  0.00  0.00    +0.141 C 
BRANCH  22  24
ATOM     23  O   UNL     1      34.576 -16.050 -20.585  0.00  0.00    -0.287 OA
ATOM     24  C   UNL     1      34.440 -16.470 -22.865  0.00  0.00    +0.036 C 
ATOM     25  C   UNL     1      34.262 -15.637 -21.761  0.00  0.00    +0.189 C 
ATOM     26  C   UNL     1      33.740 -14.355 -21.931  0.00  0.00    +0.021 C 
ATOM     27  C   UNL     1      34.097 -16.020 -24.140  0.00  0.00    +0.000 C 
ATOM     28  C   UNL     1      33.398 -13.904 -23.206  0.00  0.00    -0.001 C 
ATOM     29  C   UNL     1      33.577 -14.737 -24.310  0.00  0.00    -0.000 C 
BRANCH  26  30
ATOM     30  C   UNL     1      33.525 -13.413 -20.784  0.00  0.00    +0.056 C 
BRANCH  30  31
ATOM     31  C   UNL     1      32.077 -13.059 -20.586  0.00  0.00    -0.021 C 
ATOM     32  C   UNL     1      31.577 -11.829 -20.750  0.00  0.00    -0.005 C 
ENDBRANCH  30  31
ENDBRANCH  26  30
ENDBRANCH  22  24
ENDBRANCH  21  22
ENDBRANCH  18  21
ENDBRANCH   1  19
TORSDOF 9
ENDMDL
MODEL 5
REMARK VINA RESULT:     -11.2      2.267     10.901
REMARK  Name = 9675990
REMARK  9 active torsions:
REMARK  status: ('A' for Active; 'I' for Inactive)
REMARK    1  A    between atoms: C_1  and  N_2
REMARK    2  A    between atoms: C_1  and  C_19
REMARK    3  A    between atoms: N_3  and  C_10
REMARK    4  A    between atoms: C_10  and  C_11
REMARK    5  A    between atoms: N_18  and  N_21
REMARK    6  A    between atoms: N_21  and  C_22
REMARK    7  A    between atoms: C_22  and  C_24
REMARK    8  A    between atoms: C_26  and  C_30
REMARK    9  A    between atoms: C_30  and  C_31
REMARK                            x       y       z     vdW  Elec       q    Type
REMARK                         _______ _______ _______ _____ _____    ______ ____
ROOT
ATOM      1  C   UNL     1      33.520 -14.277 -23.598  0.00  0.00    +0.011 C 
ENDROOT
BRANCH   1   2
ATOM      2  N   UNL     1      34.264 -15.474 -23.078  0.00  0.00    +0.390 N 
ATOM      3  N   UNL     1      34.557 -18.039 -21.802  0.00  0.00    +0.387 N 
ATOM      4  C   UNL     1      34.129 -15.618 -21.583  0.00  0.00    -0.100 C 
ATOM      5  C   UNL     1      33.859 -16.742 -23.784  0.00  0.00    -0.100 C 
ATOM      6  C   UNL     1      34.963 -16.806 -21.116  0.00  0.00    -0.100 C 
ATOM      7  C   UNL     1      34.701 -17.900 -23.257  0.00  0.00    -0.100 C 
ATOM      8  H   UNL     1      35.249 -15.313 -23.280  0.00  0.00    -0.079 HD
ATOM      9  H   UNL     1      33.572 -18.209 -21.594  0.00  0.00    -0.079 HD
BRANCH   3  10
ATOM     10  C   UNL     1      35.335 -19.178 -21.316  0.00  0.00    -0.050 C 
BRANCH  10  11
ATOM     11  C   UNL     1      34.538 -20.042 -20.374  0.00  0.00    -0.043 C 
ATOM     12  C   UNL     1      33.146 -19.962 -20.364  0.00  0.00    -0.006 C 
ATOM     13  C   UNL     1      35.193 -20.924 -19.515  0.00  0.00    -0.006 C 
ATOM     14  C   UNL     1      32.407 -20.764 -19.492  0.00  0.00    -0.000 C 
ATOM     15  C   UNL     1      34.454 -21.725 -18.642  0.00  0.00    -0.000 C 
ATOM     16  C   UNL     1      33.062 -21.645 -18.632  0.00  0.00    -0.000 C 
ENDBRANCH  10  11
ENDBRANCH   3  10
ENDBRANCH   1   2
BRANCH   1  19
ATOM     17  O   UNL     1      34.188 -12.624 -21.975  0.00  0.00    -0.276 OA
ATOM     18  N   UNL     1      31.938 -13.142 -22.212  0.00  0.00    -0.234 N 
ATOM     19  C   UNL     1      33.284 -13.259 -22.512  0.00  0.00    +0.216 C 
ATOM     20  H   UNL     1      31.270 -13.686 -22.687  0.00  0.00    +0.171 HD
BRANCH  18  21
ATOM     21  N   UNL     1      31.559 -12.266 -21.254  0.00  0.00    -0.127 NA
BRANCH  21  22
ATOM     22  C   UNL     1      30.940 -11.226 -21.710  0.00  0.00    +0.141 C 
BRANCH  22  24
ATOM     23  O   UNL     1      31.253  -8.832 -23.213  0.00  0.00    -0.287 OA
ATOM     24  C   UNL     1      31.151  -9.882 -21.143  0.00  0.00    +0.036 C 
ATOM     25  C   UNL     1      31.298  -8.740 -21.931  0.00  0.00    +0.189 C 
ATOM     26  C   UNL     1      31.496  -7.498 -21.329  0.00  0.00    +0.021 C 
ATOM     27  C   UNL     1      31.201  -9.781 -19.753  0.00  0.00    +0.000 C 
ATOM     28  C   UNL     1      31.545  -7.396 -19.939  0.00  0.00    -0.001 C 
ATOM     29  C   UNL     1      31.397  -8.538 -19.151  0.00  0.00    -0.000 C 
BRANCH  26  30
ATOM     30  C   UNL     1      31.661  -6.235 -22.121  0.00  0.00    +0.056 C 
BRANCH  30  31
ATOM     31  C   UNL     1      33.099  -5.814 -22.252  0.00  0.00    -0.021 C 
ATOM     32  C   UNL     1      34.050  -6.561 -22.824  0.00  0.00    -0.005 C 
ENDBRANCH  30  31
ENDBRANCH  26  30
ENDBRANCH  22  24
ENDBRANCH  21  22
ENDBRANCH  18  21
ENDBRANCH   1  19
TORSDOF 9
ENDMDL
MODEL 6
REMARK VINA RESULT:     -11.1      1.979      3.161
REMARK  Name = 9675990
REMARK  9 active torsions:
REMARK  status: ('A' for Active; 'I' for Inactive)
REMARK    1  A    between atoms: C_1  and  N_2
REMARK    2  A    between atoms: C_1  and  C_19
REMARK    3  A    between atoms: N_3  and  C_10
REMARK    4  A    between atoms: C_10  and  C_11
REMARK    5  A    between atoms: N_18  and  N_21
REMARK    6  A    between atoms: N_21  and  C_22
REMARK    7  A    between atoms: C_22  and  C_24
REMARK    8  A    between atoms: C_26  and  C_30
REMARK    9  A    between atoms: C_30  and  C_31
REMARK                            x       y       z     vdW  Elec       q    Type
REMARK                         _______ _______ _______ _____ _____    ______ ____
ROOT
ATOM      1  C   UNL     1      34.462 -18.122 -23.044  0.00  0.00    +0.011 C 
ENDROOT
BRANCH   1   2
ATOM      2  N   UNL     1      34.428 -16.650 -23.340  0.00  0.00    +0.390 N 
ATOM      3  N   UNL     1      33.268 -14.017 -23.462  0.00  0.00    +0.387 N 
ATOM      4  C   UNL     1      33.391 -16.306 -24.379  0.00  0.00    -0.100 C 
ATOM      5  C   UNL     1      34.241 -15.826 -22.092  0.00  0.00    -0.100 C 
ATOM      6  C   UNL     1      33.461 -14.813 -24.681  0.00  0.00    -0.100 C 
ATOM      7  C   UNL     1      34.287 -14.346 -22.457  0.00  0.00    -0.100 C 
ATOM      8  H   UNL     1      35.340 -16.412 -23.729  0.00  0.00    -0.079 HD
ATOM      9  H   UNL     1      32.352 -14.246 -23.074  0.00  0.00    -0.079 HD
BRANCH   3  10
ATOM     10  C   UNL     1      33.295 -12.588 -23.772  0.00  0.00    -0.050 C 
BRANCH  10  11
ATOM     11  C   UNL     1      32.476 -11.786 -22.795  0.00  0.00    -0.043 C 
ATOM     12  C   UNL     1      32.024 -12.376 -21.615  0.00  0.00    -0.006 C 
ATOM     13  C   UNL     1      32.173 -10.452 -23.069  0.00  0.00    -0.006 C 
ATOM     14  C   UNL     1      31.267 -11.632 -20.708  0.00  0.00    -0.000 C 
ATOM     15  C   UNL     1      31.415  -9.709 -22.163  0.00  0.00    -0.000 C 
ATOM     16  C   UNL     1      30.963 -10.299 -20.983  0.00  0.00    -0.000 C 
ENDBRANCH  10  11
ENDBRANCH   3  10
ENDBRANCH   1   2
BRANCH   1  19
ATOM     17  O   UNL     1      36.678 -18.136 -22.094  0.00  0.00    -0.276 OA
ATOM     18  N   UNL     1      34.937 -19.140 -20.934  0.00  0.00    -0.234 N 
ATOM     19  C   UNL     1      35.495 -18.451 -21.996  0.00  0.00    +0.216 C 
ATOM     20  H   UNL     1      33.977 -19.357 -20.927  0.00  0.00    +0.171 HD
BRANCH  18  21
ATOM     21  N   UNL     1      35.736 -19.510 -19.907  0.00  0.00    -0.127 NA
BRANCH  21  22
ATOM     22  C   UNL     1      35.778 -20.788 -19.710  0.00  0.00    +0.141 C 
BRANCH  22  24
ATOM     23  O   UNL     1      36.750 -21.327 -17.092  0.00  0.00    -0.287 OA
ATOM     24  C   UNL     1      35.013 -21.438 -18.631  0.00  0.00    +0.036 C 
ATOM     25  C   UNL     1      35.543 -21.677 -17.363  0.00  0.00    +0.189 C 
ATOM     26  C   UNL     1      34.763 -22.297 -16.387  0.00  0.00    +0.021 C 
ATOM     27  C   UNL     1      33.704 -21.819 -18.923  0.00  0.00    +0.000 C 
ATOM     28  C   UNL     1      33.453 -22.677 -16.679  0.00  0.00    -0.001 C 
ATOM     29  C   UNL     1      32.924 -22.438 -17.947  0.00  0.00    -0.000 C 
BRANCH  26  30
ATOM     30  C   UNL     1      35.274 -22.581 -15.007  0.00  0.00    +0.056 C 
BRANCH  30  31
ATOM     31  C   UNL     1      34.944 -23.971 -14.538  0.00  0.00    -0.021 C 
ATOM     32  C   UNL     1      35.719 -25.040 -14.756  0.00  0.00    -0.005 C 
ENDBRANCH  30  31
ENDBRANCH  26  30
ENDBRANCH  22  24
ENDBRANCH  21  22
ENDBRANCH  18  21
ENDBRANCH   1  19
TORSDOF 9
ENDMDL
MODEL 7
REMARK VINA RESULT:     -11.1      1.853     10.323
REMARK  Name = 9675990
REMARK  9 active torsions:
REMARK  status: ('A' for Active; 'I' for Inactive)
REMARK    1  A    between atoms: C_1  and  N_2
REMARK    2  A    between atoms: C_1  and  C_19
REMARK    3  A    between atoms: N_3  and  C_10
REMARK    4  A    between atoms: C_10  and  C_11
REMARK    5  A    between atoms: N_18  and  N_21
REMARK    6  A    between atoms: N_21  and  C_22
REMARK    7  A    between atoms: C_22  and  C_24
REMARK    8  A    between atoms: C_26  and  C_30
REMARK    9  A    between atoms: C_30  and  C_31
REMARK                            x       y       z     vdW  Elec       q    Type
REMARK                         _______ _______ _______ _____ _____    ______ ____
ROOT
ATOM      1  C   UNL     1      35.897 -18.587 -21.042  0.00  0.00    +0.011 C 
ENDROOT
BRANCH   1   2
ATOM      2  N   UNL     1      35.128 -19.802 -20.605  0.00  0.00    +0.390 N 
ATOM      3  N   UNL     1      33.591 -21.433 -18.797  0.00  0.00    +0.387 N 
ATOM      4  C   UNL     1      35.783 -20.496 -19.438  0.00  0.00    -0.100 C 
ATOM      5  C   UNL     1      33.686 -19.481 -20.307  0.00  0.00    -0.100 C 
ATOM      6  C   UNL     1      34.992 -21.754 -19.095  0.00  0.00    -0.100 C 
ATOM      7  C   UNL     1      32.952 -20.767 -19.940  0.00  0.00    -0.100 C 
ATOM      8  H   UNL     1      35.141 -20.450 -21.391  0.00  0.00    -0.079 HD
ATOM      9  H   UNL     1      33.573 -20.790 -18.004  0.00  0.00    -0.079 HD
BRANCH   3  10
ATOM     10  C   UNL     1      32.854 -22.641 -18.428  0.00  0.00    -0.050 C 
BRANCH  10  11
ATOM     11  C   UNL     1      32.480 -22.649 -16.970  0.00  0.00    -0.043 C 
ATOM     12  C   UNL     1      33.469 -22.798 -15.997  0.00  0.00    -0.006 C 
ATOM     13  C   UNL     1      31.145 -22.505 -16.591  0.00  0.00    -0.006 C 
ATOM     14  C   UNL     1      33.123 -22.803 -14.646  0.00  0.00    -0.000 C 
ATOM     15  C   UNL     1      30.799 -22.512 -15.239  0.00  0.00    -0.000 C 
ATOM     16  C   UNL     1      31.788 -22.661 -14.267  0.00  0.00    -0.000 C 
ENDBRANCH  10  11
ENDBRANCH   3  10
ENDBRANCH   1   2
BRANCH   1  19
ATOM     17  O   UNL     1      34.596 -18.023 -22.992  0.00  0.00    -0.276 OA
ATOM     18  N   UNL     1      34.877 -16.443 -21.316  0.00  0.00    -0.234 N 
ATOM     19  C   UNL     1      35.056 -17.682 -21.905  0.00  0.00    +0.216 C 
ATOM     20  H   UNL     1      35.278 -16.243 -20.439  0.00  0.00    +0.171 HD
BRANCH  18  21
ATOM     21  N   UNL     1      34.142 -15.513 -21.967  0.00  0.00    -0.127 NA
BRANCH  21  22
ATOM     22  C   UNL     1      33.780 -14.517 -21.224  0.00  0.00    +0.141 C 
BRANCH  22  24
ATOM     23  O   UNL     1      31.606 -13.043 -20.134  0.00  0.00    -0.287 OA
ATOM     24  C   UNL     1      33.210 -13.284 -21.796  0.00  0.00    +0.036 C 
ATOM     25  C   UNL     1      32.141 -12.602 -21.216  0.00  0.00    +0.189 C 
ATOM     26  C   UNL     1      31.650 -11.440 -21.811  0.00  0.00    +0.021 C 
ATOM     27  C   UNL     1      33.789 -12.804 -22.971  0.00  0.00    +0.000 C 
ATOM     28  C   UNL     1      32.229 -10.959 -22.985  0.00  0.00    -0.001 C 
ATOM     29  C   UNL     1      33.299 -11.641 -23.565  0.00  0.00    -0.000 C 
BRANCH  26  30
ATOM     30  C   UNL     1      30.504 -10.662 -21.236  0.00  0.00    +0.056 C 
BRANCH  30  31
ATOM     31  C   UNL     1      30.952  -9.564 -20.311  0.00  0.00    -0.021 C 
ATOM     32  C   UNL     1      31.366  -9.765 -19.054  0.00  0.00    -0.005 C 
ENDBRANCH  30  31
ENDBRANCH  26  30
ENDBRANCH  22  24
ENDBRANCH  21  22
ENDBRANCH  18  21
ENDBRANCH   1  19
TORSDOF 9
ENDMDL
MODEL 8
REMARK VINA RESULT:     -11.1      3.244      6.585
REMARK  Name = 9675990
REMARK  9 active torsions:
REMARK  status: ('A' for Active; 'I' for Inactive)
REMARK    1  A    between atoms: C_1  and  N_2
REMARK    2  A    between atoms: C_1  and  C_19
REMARK    3  A    between atoms: N_3  and  C_10
REMARK    4  A    between atoms: C_10  and  C_11
REMARK    5  A    between atoms: N_18  and  N_21
REMARK    6  A    between atoms: N_21  and  C_22
REMARK    7  A    between atoms: C_22  and  C_24
REMARK    8  A    between atoms: C_26  and  C_30
REMARK    9  A    between atoms: C_30  and  C_31
REMARK                            x       y       z     vdW  Elec       q    Type
REMARK                         _______ _______ _______ _____ _____    ______ ____
ROOT
ATOM      1  C   UNL     1      35.778 -20.955 -18.775  0.00  0.00    +0.011 C 
ENDROOT
BRANCH   1   2
ATOM      2  N   UNL     1      35.539 -20.159 -20.027  0.00  0.00    +0.390 N 
ATOM      3  N   UNL     1      34.799 -17.844 -21.572  0.00  0.00    +0.387 N 
ATOM      4  C   UNL     1      34.095 -19.751 -20.170  0.00  0.00    -0.100 C 
ATOM      5  C   UNL     1      36.454 -18.965 -20.121  0.00  0.00    -0.100 C 
ATOM      6  C   UNL     1      33.912 -19.012 -21.491  0.00  0.00    -0.100 C 
ATOM      7  C   UNL     1      36.206 -18.248 -21.444  0.00  0.00    -0.100 C 
ATOM      8  H   UNL     1      35.760 -20.776 -20.808  0.00  0.00    -0.079 HD
ATOM      9  H   UNL     1      34.575 -17.220 -20.796  0.00  0.00    -0.079 HD
BRANCH   3  10
ATOM     10  C   UNL     1      34.584 -17.121 -22.825  0.00  0.00    -0.050 C 
BRANCH  10  11
ATOM     11  C   UNL     1      34.215 -15.681 -22.586  0.00  0.00    -0.043 C 
ATOM     12  C   UNL     1      33.945 -14.842 -23.667  0.00  0.00    -0.006 C 
ATOM     13  C   UNL     1      34.139 -15.187 -21.284  0.00  0.00    -0.006 C 
ATOM     14  C   UNL     1      33.601 -13.508 -23.446  0.00  0.00    -0.000 C 
ATOM     15  C   UNL     1      33.796 -13.852 -21.063  0.00  0.00    -0.000 C 
ATOM     16  C   UNL     1      33.527 -13.013 -22.144  0.00  0.00    -0.000 C 
ENDBRANCH  10  11
ENDBRANCH   3  10
ENDBRANCH   1   2
BRANCH   1  19
ATOM     17  O   UNL     1      34.123 -22.570 -19.457  0.00  0.00    -0.276 OA
ATOM     18  N   UNL     1      34.406 -22.115 -17.199  0.00  0.00    -0.234 N 
ATOM     19  C   UNL     1      34.684 -21.965 -18.546  0.00  0.00    +0.216 C 
ATOM     20  H   UNL     1      34.900 -21.594 -16.525  0.00  0.00    +0.171 HD
BRANCH  18  21
ATOM     21  N   UNL     1      33.445 -22.989 -16.825  0.00  0.00    -0.127 NA
BRANCH  21  22
ATOM     22  C   UNL     1      32.967 -22.770 -15.643  0.00  0.00    +0.141 C 
BRANCH  22  24
ATOM     23  O   UNL     1      30.482 -22.366 -16.967  0.00  0.00    -0.287 OA
ATOM     24  C   UNL     1      31.669 -23.318 -15.212  0.00  0.00    +0.036 C 
ATOM     25  C   UNL     1      30.480 -23.087 -15.902  0.00  0.00    +0.189 C 
ATOM     26  C   UNL     1      29.285 -23.636 -15.438  0.00  0.00    +0.021 C 
ATOM     27  C   UNL     1      31.664 -24.100 -14.057  0.00  0.00    +0.000 C 
ATOM     28  C   UNL     1      29.280 -24.419 -14.283  0.00  0.00    -0.001 C 
ATOM     29  C   UNL     1      30.469 -24.651 -13.593  0.00  0.00    -0.000 C 
BRANCH  26  30
ATOM     30  C   UNL     1      27.975 -23.425 -16.135  0.00  0.00    +0.056 C 
BRANCH  30  31
ATOM     31  C   UNL     1      27.215 -22.242 -15.600  0.00  0.00    -0.021 C 
ATOM     32  C   UNL     1      26.331 -21.534 -16.311  0.00  0.00    -0.005 C 
ENDBRANCH  30  31
ENDBRANCH  26  30
ENDBRANCH  22  24
ENDBRANCH  21  22
ENDBRANCH  18  21
ENDBRANCH   1  19
TORSDOF 9
ENDMDL
MODEL 9
REMARK VINA RESULT:     -11.1      2.754      5.306
REMARK  Name = 9675990
REMARK  9 active torsions:
REMARK  status: ('A' for Active; 'I' for Inactive)
REMARK    1  A    between atoms: C_1  and  N_2
REMARK    2  A    between atoms: C_1  and  C_19
REMARK    3  A    between atoms: N_3  and  C_10
REMARK    4  A    between atoms: C_10  and  C_11
REMARK    5  A    between atoms: N_18  and  N_21
REMARK    6  A    between atoms: N_21  and  C_22
REMARK    7  A    between atoms: C_22  and  C_24
REMARK    8  A    between atoms: C_26  and  C_30
REMARK    9  A    between atoms: C_30  and  C_31
REMARK                            x       y       z     vdW  Elec       q    Type
REMARK                         _______ _______ _______ _____ _____    ______ ____
ROOT
ATOM      1  C   UNL     1      31.199 -11.652 -21.974  0.00  0.00    +0.011 C 
ENDROOT
BRANCH   1   2
ATOM      2  N   UNL     1      31.800 -10.296 -21.733  0.00  0.00    +0.390 N 
ATOM      3  N   UNL     1      31.898  -7.418 -21.766  0.00  0.00    +0.387 N 
ATOM      4  C   UNL     1      32.024  -9.541 -23.020  0.00  0.00    -0.100 C 
ATOM      5  C   UNL     1      30.988  -9.482 -20.759  0.00  0.00    -0.100 C 
ATOM      6  C   UNL     1      32.699  -8.210 -22.708  0.00  0.00    -0.100 C 
ATOM      7  C   UNL     1      31.692  -8.152 -20.510  0.00  0.00    -0.100 C 
ATOM      8  H   UNL     1      32.714 -10.456 -21.311  0.00  0.00    -0.079 HD
ATOM      9  H   UNL     1      30.985  -7.248 -22.189  0.00  0.00    -0.079 HD
BRANCH   3  10
ATOM     10  C   UNL     1      32.535  -6.127 -21.508  0.00  0.00    -0.050 C 
BRANCH  10  11
ATOM     11  C   UNL     1      32.693  -5.317 -22.767  0.00  0.00    -0.043 C 
ATOM     12  C   UNL     1      31.656  -4.491 -23.200  0.00  0.00    -0.006 C 
ATOM     13  C   UNL     1      33.878  -5.391 -23.499  0.00  0.00    -0.006 C 
ATOM     14  C   UNL     1      31.803  -3.739 -24.366  0.00  0.00    -0.000 C 
ATOM     15  C   UNL     1      34.025  -4.640 -24.666  0.00  0.00    -0.000 C 
ATOM     16  C   UNL     1      32.988  -3.814 -25.099  0.00  0.00    -0.000 C 
ENDBRANCH  10  11
ENDBRANCH   3  10
ENDBRANCH   1   2
BRANCH   1  19
ATOM     17  O   UNL     1      31.823 -13.185 -20.221  0.00  0.00    -0.276 OA
ATOM     18  N   UNL     1      33.032 -13.167 -22.202  0.00  0.00    -0.234 N 
ATOM     19  C   UNL     1      32.029 -12.743 -21.349  0.00  0.00    +0.216 C 
ATOM     20  H   UNL     1      33.135 -12.764 -23.094  0.00  0.00    +0.171 HD
BRANCH  18  21
ATOM     21  N   UNL     1      33.869 -14.146 -21.788  0.00  0.00    -0.127 NA
BRANCH  21  22
ATOM     22  C   UNL     1      34.405 -14.820 -22.753  0.00  0.00    +0.141 C 
BRANCH  22  24
ATOM     23  O   UNL     1      34.965 -16.656 -20.654  0.00  0.00    -0.287 OA
ATOM     24  C   UNL     1      34.283 -16.286 -22.844  0.00  0.00    +0.036 C 
ATOM     25  C   UNL     1      34.572 -17.139 -21.779  0.00  0.00    +0.189 C 
ATOM     26  C   UNL     1      34.435 -18.518 -21.933  0.00  0.00    +0.021 C 
ATOM     27  C   UNL     1      33.857 -16.812 -24.063  0.00  0.00    +0.000 C 
ATOM     28  C   UNL     1      34.008 -19.045 -23.152  0.00  0.00    -0.001 C 
ATOM     29  C   UNL     1      33.719 -18.192 -24.217  0.00  0.00    -0.000 C 
BRANCH  26  30
ATOM     30  C   UNL     1      34.729 -19.487 -20.827  0.00  0.00    +0.056 C 
BRANCH  30  31
ATOM     31  C   UNL     1      33.485 -20.085 -20.231  0.00  0.00    -0.021 C 
ATOM     32  C   UNL     1      33.484 -21.092 -19.350  0.00  0.00    -0.005 C 
ENDBRANCH  30  31
ENDBRANCH  26  30
ENDBRANCH  22  24
ENDBRANCH  21  22
ENDBRANCH  18  21
ENDBRANCH   1  19
TORSDOF 9
ENDMDL
