MODEL 1
REMARK VINA RESULT:     -13.3      0.000      0.000
REMARK  Name = 23658582
REMARK  4 active torsions:
REMARK  status: ('A' for Active; 'I' for Inactive)
REMARK    1  A    between atoms: N_3  and  C_13
REMARK    2  A    between atoms: C_8  and  C_25
REMARK    3  A    between atoms: C_15  and  C_22
REMARK    4  A    between atoms: N_24  and  C_29
REMARK                            x       y       z     vdW  Elec       q    Type
REMARK                         _______ _______ _______ _____ _____    ______ ____
ROOT
ATOM      1 CL   UNL     1      34.553 -19.209 -24.079  0.00  0.00    -0.082 Cl
ATOM      2  O   UNL     1      34.125 -14.965 -21.148  0.00  0.00    -0.352 OA
ATOM      3  N   UNL     1      33.063 -12.500 -23.382  0.00  0.00    -0.295 N 
ATOM      4  N   UNL     1      33.753 -13.648 -21.395  0.00  0.00    -0.062 NA
ATOM      5  C   UNL     1      33.644 -14.848 -23.333  0.00  0.00    +0.072 A 
ATOM      6  C   UNL     1      34.058 -15.677 -22.306  0.00  0.00    +0.183 A 
ATOM      7  C   UNL     1      33.472 -13.601 -22.701  0.00  0.00    +0.174 A 
ATOM      8  C   UNL     1      34.356 -17.029 -22.461  0.00  0.00    +0.101 C 
ATOM      9  C   UNL     1      33.507 -15.378 -24.624  0.00  0.00    +0.007 C 
ATOM     10  C   UNL     1      34.214 -17.544 -23.753  0.00  0.00    +0.065 C 
ATOM     11  C   UNL     1      33.798 -16.736 -24.816  0.00  0.00    +0.012 C 
ATOM     12  H   UNL     1      32.990 -12.637 -24.354  0.00  0.00    +0.154 HD
ENDROOT
BRANCH   3  13
ATOM     13  C   UNL     1      32.719 -11.184 -22.961  0.00  0.00    +0.049 C 
ATOM     14  C   UNL     1      33.457 -10.092 -23.414  0.00  0.00    +0.018 C 
ATOM     15  C   UNL     1      33.119  -8.802 -23.002  0.00  0.00    +0.073 C 
ATOM     16  C   UNL     1      31.642 -10.988 -22.096  0.00  0.00    +0.015 C 
ATOM     17  C   UNL     1      32.044  -8.606 -22.137  0.00  0.00    +0.004 C 
ATOM     18  C   UNL     1      31.305  -9.700 -21.683  0.00  0.00    +0.001 C 
BRANCH  15  22
ATOM     19  F   UNL     1      33.264  -6.889 -24.431  0.00  0.00    -0.166 F 
ATOM     20  F   UNL     1      34.236  -6.748 -22.498  0.00  0.00    -0.166 F 
ATOM     21  F   UNL     1      35.094  -8.000 -24.055  0.00  0.00    -0.166 F 
ATOM     22  C   UNL     1      33.909  -7.633 -23.485  0.00  0.00    +0.419 C 
ENDBRANCH  15  22
ENDBRANCH   3  13
BRANCH   8  25
ATOM     23  O   UNL     1      35.735 -17.462 -20.618  0.00  0.00    -0.270 OA
ATOM     24  N   UNL     1      34.074 -19.017 -21.133  0.00  0.00    -0.278 N 
ATOM     25  C   UNL     1      34.785 -17.825 -21.323  0.00  0.00    +0.253 C 
ATOM     26  H   UNL     1      33.340 -19.184 -21.767  0.00  0.00    +0.155 HD
BRANCH  24  29
ATOM     27  N   UNL     1      33.383 -21.647 -18.620  0.00  0.00    -0.221 NA
ATOM     28  N   UNL     1      35.764 -21.306 -18.764  0.00  0.00    -0.221 NA
ATOM     29  C   UNL     1      34.277 -20.013 -20.145  0.00  0.00    +0.089 C 
ATOM     30  C   UNL     1      33.227 -20.694 -19.562  0.00  0.00    +0.117 C 
ATOM     31  C   UNL     1      35.536 -20.363 -19.702  0.00  0.00    +0.117 C 
ATOM     32  C   UNL     1      34.659 -21.899 -18.272  0.00  0.00    +0.199 C 
ENDBRANCH  24  29
ENDBRANCH   8  25
TORSDOF 4
ENDMDL
MODEL 2
REMARK VINA RESULT:     -13.1      5.314      9.646
REMARK  Name = 23658582
REMARK  4 active torsions:
REMARK  status: ('A' for Active; 'I' for Inactive)
REMARK    1  A    between atoms: N_3  and  C_13
REMARK    2  A    between atoms: C_8  and  C_25
REMARK    3  A    between atoms: C_15  and  C_22
REMARK    4  A    between atoms: N_24  and  C_29
REMARK                            x       y       z     vdW  Elec       q    Type
REMARK                         _______ _______ _______ _____ _____    ______ ____
ROOT
ATOM      1 CL   UNL     1      32.689 -12.608 -26.025  0.00  0.00    -0.082 Cl
ATOM      2  O   UNL     1      33.889 -14.606 -21.404  0.00  0.00    -0.352 OA
ATOM      3  N   UNL     1      34.446 -17.989 -22.065  0.00  0.00    -0.295 N 
ATOM      4  N   UNL     1      34.220 -15.878 -20.953  0.00  0.00    -0.062 NA
ATOM      5  C   UNL     1      33.841 -15.941 -23.202  0.00  0.00    +0.072 A 
ATOM      6  C   UNL     1      33.664 -14.646 -22.746  0.00  0.00    +0.183 A 
ATOM      7  C   UNL     1      34.185 -16.657 -22.039  0.00  0.00    +0.174 A 
ATOM      8  C   UNL     1      33.310 -13.570 -23.556  0.00  0.00    +0.101 C 
ATOM      9  C   UNL     1      33.658 -16.214 -24.566  0.00  0.00    +0.007 C 
ATOM     10  C   UNL     1      33.130 -13.858 -24.913  0.00  0.00    +0.065 C 
ATOM     11  C   UNL     1      33.301 -15.154 -25.410  0.00  0.00    +0.012 C 
ATOM     12  H   UNL     1      34.283 -18.409 -22.941  0.00  0.00    +0.154 HD
ENDROOT
BRANCH   3  13
ATOM     13  C   UNL     1      34.907 -18.896 -21.070  0.00  0.00    +0.049 C 
ATOM     14  C   UNL     1      34.027 -19.816 -20.502  0.00  0.00    +0.018 C 
ATOM     15  C   UNL     1      34.480 -20.705 -19.528  0.00  0.00    +0.073 C 
ATOM     16  C   UNL     1      36.242 -18.866 -20.664  0.00  0.00    +0.015 C 
ATOM     17  C   UNL     1      35.813 -20.674 -19.121  0.00  0.00    +0.004 C 
ATOM     18  C   UNL     1      36.694 -19.754 -19.690  0.00  0.00    +0.001 C 
BRANCH  15  22
ATOM     19  F   UNL     1      33.460 -22.868 -19.602  0.00  0.00    -0.166 F 
ATOM     20  F   UNL     1      33.865 -22.040 -17.640  0.00  0.00    -0.166 F 
ATOM     21  F   UNL     1      32.258 -21.218 -18.853  0.00  0.00    -0.166 F 
ATOM     22  C   UNL     1      33.538 -21.688 -18.919  0.00  0.00    +0.419 C 
ENDBRANCH  15  22
ENDBRANCH   3  13
BRANCH   8  25
ATOM     23  O   UNL     1      33.902 -11.318 -23.309  0.00  0.00    -0.270 OA
ATOM     24  N   UNL     1      32.111 -12.125 -22.051  0.00  0.00    -0.278 N 
ATOM     25  C   UNL     1      33.145 -12.243 -22.989  0.00  0.00    +0.253 C 
ATOM     26  H   UNL     1      31.583 -12.939 -21.889  0.00  0.00    +0.155 HD
BRANCH  24  29
ATOM     27  N   UNL     1      31.320  -9.918 -19.184  0.00  0.00    -0.221 NA
ATOM     28  N   UNL     1      31.012  -8.685 -21.230  0.00  0.00    -0.221 NA
ATOM     29  C   UNL     1      31.728 -10.981 -21.304  0.00  0.00    +0.089 C 
ATOM     30  C   UNL     1      31.679 -10.987 -19.925  0.00  0.00    +0.117 C 
ATOM     31  C   UNL     1      31.380  -9.792 -21.910  0.00  0.00    +0.117 C 
ATOM     32  C   UNL     1      31.004  -8.817 -19.890  0.00  0.00    +0.199 C 
ENDBRANCH  24  29
ENDBRANCH   8  25
TORSDOF 4
ENDMDL
MODEL 3
REMARK VINA RESULT:     -13.0      6.707      9.419
REMARK  Name = 23658582
REMARK  4 active torsions:
REMARK  status: ('A' for Active; 'I' for Inactive)
REMARK    1  A    between atoms: N_3  and  C_13
REMARK    2  A    between atoms: C_8  and  C_25
REMARK    3  A    between atoms: C_15  and  C_22
REMARK    4  A    between atoms: N_24  and  C_29
REMARK                            x       y       z     vdW  Elec       q    Type
REMARK                         _______ _______ _______ _____ _____    ______ ____
ROOT
ATOM      1 CL   UNL     1      32.444 -24.292 -14.051  0.00  0.00    -0.082 Cl
ATOM      2  O   UNL     1      35.914 -21.911 -17.064  0.00  0.00    -0.352 OA
ATOM      3  N   UNL     1      34.002 -20.580 -19.665  0.00  0.00    -0.295 N 
ATOM      4  N   UNL     1      35.836 -21.187 -18.249  0.00  0.00    -0.062 NA
ATOM      5  C   UNL     1      33.749 -21.875 -17.637  0.00  0.00    +0.072 A 
ATOM      6  C   UNL     1      34.667 -22.318 -16.702  0.00  0.00    +0.183 A 
ATOM      7  C   UNL     1      34.540 -21.179 -18.572  0.00  0.00    +0.174 A 
ATOM      8  C   UNL     1      34.339 -23.067 -15.574  0.00  0.00    +0.101 C 
ATOM      9  C   UNL     1      32.392 -22.185 -17.461  0.00  0.00    +0.007 C 
ATOM     10  C   UNL     1      32.983 -23.368 -15.412  0.00  0.00    +0.065 C 
ATOM     11  C   UNL     1      32.026 -22.937 -16.336  0.00  0.00    +0.012 C 
ATOM     12  H   UNL     1      33.040 -20.757 -19.783  0.00  0.00    +0.154 HD
ENDROOT
BRANCH   3  13
ATOM     13  C   UNL     1      34.560 -19.747 -20.675  0.00  0.00    +0.049 C 
ATOM     14  C   UNL     1      33.872 -19.543 -21.871  0.00  0.00    +0.018 C 
ATOM     15  C   UNL     1      34.419 -18.726 -22.860  0.00  0.00    +0.073 C 
ATOM     16  C   UNL     1      35.795 -19.132 -20.468  0.00  0.00    +0.015 C 
ATOM     17  C   UNL     1      35.654 -18.112 -22.654  0.00  0.00    +0.004 C 
ATOM     18  C   UNL     1      36.342 -18.316 -21.457  0.00  0.00    +0.001 C 
BRANCH  15  22
ATOM     19  F   UNL     1      32.326 -18.519 -24.000  0.00  0.00    -0.166 F 
ATOM     20  F   UNL     1      33.971 -17.316 -24.740  0.00  0.00    -0.166 F 
ATOM     21  F   UNL     1      33.963 -19.464 -25.074  0.00  0.00    -0.166 F 
ATOM     22  C   UNL     1      33.684 -18.509 -24.140  0.00  0.00    +0.419 C 
ENDBRANCH  15  22
ENDBRANCH   3  13
BRANCH   8  25
ATOM     23  O   UNL     1      35.226 -23.341 -13.424  0.00  0.00    -0.270 OA
ATOM     24  N   UNL     1      36.520 -24.027 -15.240  0.00  0.00    -0.278 N 
ATOM     25  C   UNL     1      35.372 -23.491 -14.644  0.00  0.00    +0.253 C 
ATOM     26  H   UNL     1      36.505 -24.090 -16.222  0.00  0.00    +0.155 HD
BRANCH  24  29
ATOM     27  N   UNL     1      38.785 -25.939 -13.020  0.00  0.00    -0.221 NA
ATOM     28  N   UNL     1      40.093 -24.407 -14.342  0.00  0.00    -0.221 NA
ATOM     29  C   UNL     1      37.703 -24.491 -14.609  0.00  0.00    +0.089 C 
ATOM     30  C   UNL     1      37.681 -25.474 -13.641  0.00  0.00    +0.117 C 
ATOM     31  C   UNL     1      38.948 -23.988 -14.922  0.00  0.00    +0.117 C 
ATOM     32  C   UNL     1      39.940 -25.370 -13.413  0.00  0.00    +0.199 C 
ENDBRANCH  24  29
ENDBRANCH   8  25
TORSDOF 4
ENDMDL
MODEL 4
REMARK VINA RESULT:     -12.7      1.786      2.302
REMARK  Name = 23658582
REMARK  4 active torsions:
REMARK  status: ('A' for Active; 'I' for Inactive)
REMARK    1  A    between atoms: N_3  and  C_13
REMARK    2  A    between atoms: C_8  and  C_25
REMARK    3  A    between atoms: C_15  and  C_22
REMARK    4  A    between atoms: N_24  and  C_29
REMARK                            x       y       z     vdW  Elec       q    Type
REMARK                         _______ _______ _______ _____ _____    ______ ____
ROOT
ATOM      1 CL   UNL     1      34.558 -19.420 -24.009  0.00  0.00    -0.082 Cl
ATOM      2  O   UNL     1      34.238 -15.140 -21.117  0.00  0.00    -0.352 OA
ATOM      3  N   UNL     1      33.142 -12.691 -23.350  0.00  0.00    -0.295 N 
ATOM      4  N   UNL     1      33.871 -13.824 -21.369  0.00  0.00    -0.062 NA
ATOM      5  C   UNL     1      33.705 -15.043 -23.290  0.00  0.00    +0.072 A 
ATOM      6  C   UNL     1      34.137 -15.865 -22.264  0.00  0.00    +0.183 A 
ATOM      7  C   UNL     1      33.558 -13.788 -22.668  0.00  0.00    +0.174 A 
ATOM      8  C   UNL     1      34.419 -17.221 -22.411  0.00  0.00    +0.101 C 
ATOM      9  C   UNL     1      33.531 -15.586 -24.571  0.00  0.00    +0.007 C 
ATOM     10  C   UNL     1      34.242 -17.748 -23.694  0.00  0.00    +0.065 C 
ATOM     11  C   UNL     1      33.806 -16.948 -24.755  0.00  0.00    +0.012 C 
ATOM     12  H   UNL     1      33.044 -12.838 -24.319  0.00  0.00    +0.154 HD
ENDROOT
BRANCH   3  13
ATOM     13  C   UNL     1      32.819 -11.368 -22.936  0.00  0.00    +0.049 C 
ATOM     14  C   UNL     1      32.040 -11.165 -21.797  0.00  0.00    +0.018 C 
ATOM     15  C   UNL     1      31.725  -9.868 -21.391  0.00  0.00    +0.073 C 
ATOM     16  C   UNL     1      33.284 -10.275 -23.667  0.00  0.00    +0.015 C 
ATOM     17  C   UNL     1      32.188  -8.775 -22.122  0.00  0.00    +0.004 C 
ATOM     18  C   UNL     1      32.969  -8.980 -23.261  0.00  0.00    +0.001 C 
BRANCH  15  22
ATOM     19  F   UNL     1      30.859  -8.349 -19.757  0.00  0.00    -0.166 F 
ATOM     20  F   UNL     1      29.580 -10.000 -20.339  0.00  0.00    -0.166 F 
ATOM     21  F   UNL     1      31.329 -10.368 -19.100  0.00  0.00    -0.166 F 
ATOM     22  C   UNL     1      30.890  -9.649 -20.174  0.00  0.00    +0.419 C 
ENDBRANCH  15  22
ENDBRANCH   3  13
BRANCH   8  25
ATOM     23  O   UNL     1      35.882 -17.685 -20.642  0.00  0.00    -0.270 OA
ATOM     24  N   UNL     1      34.101 -19.147 -21.003  0.00  0.00    -0.278 N 
ATOM     25  C   UNL     1      34.870 -18.008 -21.276  0.00  0.00    +0.253 C 
ATOM     26  H   UNL     1      33.319 -19.287 -21.585  0.00  0.00    +0.155 HD
BRANCH  24  29
ATOM     27  N   UNL     1      33.413 -21.748 -18.459  0.00  0.00    -0.221 NA
ATOM     28  N   UNL     1      35.790 -21.370 -18.571  0.00  0.00    -0.221 NA
ATOM     29  C   UNL     1      34.304 -20.124 -19.995  0.00  0.00    +0.089 C 
ATOM     30  C   UNL     1      33.257 -20.813 -19.419  0.00  0.00    +0.117 C 
ATOM     31  C   UNL     1      35.561 -20.446 -19.527  0.00  0.00    +0.117 C 
ATOM     32  C   UNL     1      34.688 -21.973 -18.087  0.00  0.00    +0.199 C 
ENDBRANCH  24  29
ENDBRANCH   8  25
TORSDOF 4
ENDMDL
MODEL 5
REMARK VINA RESULT:     -12.3      6.672     11.188
REMARK  Name = 23658582
REMARK  4 active torsions:
REMARK  status: ('A' for Active; 'I' for Inactive)
REMARK    1  A    between atoms: N_3  and  C_13
REMARK    2  A    between atoms: C_8  and  C_25
REMARK    3  A    between atoms: C_15  and  C_22
REMARK    4  A    between atoms: N_24  and  C_29
REMARK                            x       y       z     vdW  Elec       q    Type
REMARK                         _______ _______ _______ _____ _____    ______ ____
ROOT
ATOM      1 CL   UNL     1      36.863 -19.083 -21.466  0.00  0.00    -0.082 Cl
ATOM      2  O   UNL     1      32.127 -20.344 -19.803  0.00  0.00    -0.352 OA
ATOM      3  N   UNL     1      32.720 -22.410 -17.051  0.00  0.00    -0.295 N 
ATOM      4  N   UNL     1      31.641 -21.126 -18.763  0.00  0.00    -0.062 NA
ATOM      5  C   UNL     1      33.922 -21.146 -18.729  0.00  0.00    +0.072 A 
ATOM      6  C   UNL     1      33.488 -20.357 -19.780  0.00  0.00    +0.183 A 
ATOM      7  C   UNL     1      32.724 -21.594 -18.137  0.00  0.00    +0.174 A 
ATOM      8  C   UNL     1      34.335 -19.692 -20.663  0.00  0.00    +0.101 C 
ATOM      9  C   UNL     1      35.299 -21.302 -18.517  0.00  0.00    +0.007 C 
ATOM     10  C   UNL     1      35.705 -19.857 -20.439  0.00  0.00    +0.065 C 
ATOM     11  C   UNL     1      36.181 -20.647 -19.388  0.00  0.00    +0.012 C 
ATOM     12  H   UNL     1      33.615 -22.722 -16.785  0.00  0.00    +0.154 HD
ENDROOT
BRANCH   3  13
ATOM     13  C   UNL     1      31.671 -22.901 -16.225  0.00  0.00    +0.049 C 
ATOM     14  C   UNL     1      30.342 -22.721 -16.605  0.00  0.00    +0.018 C 
ATOM     15  C   UNL     1      29.313 -23.204 -15.795  0.00  0.00    +0.073 C 
ATOM     16  C   UNL     1      31.973 -23.565 -15.036  0.00  0.00    +0.015 C 
ATOM     17  C   UNL     1      29.614 -23.866 -14.606  0.00  0.00    +0.004 C 
ATOM     18  C   UNL     1      30.945 -24.047 -14.226  0.00  0.00    +0.001 C 
BRANCH  15  22
ATOM     19  F   UNL     1      27.050 -22.773 -15.150  0.00  0.00    -0.166 F 
ATOM     20  F   UNL     1      27.703 -21.957 -17.049  0.00  0.00    -0.166 F 
ATOM     21  F   UNL     1      27.375 -24.096 -16.844  0.00  0.00    -0.166 F 
ATOM     22  C   UNL     1      27.891 -23.009 -16.200  0.00  0.00    +0.419 C 
ENDBRANCH  15  22
ENDBRANCH   3  13
BRANCH   8  25
ATOM     23  O   UNL     1      32.870 -19.310 -22.450  0.00  0.00    -0.270 OA
ATOM     24  N   UNL     1      34.408 -17.639 -21.918  0.00  0.00    -0.278 N 
ATOM     25  C   UNL     1      33.790 -18.883 -21.740  0.00  0.00    +0.253 C 
ATOM     26  H   UNL     1      35.128 -17.423 -21.282  0.00  0.00    +0.155 HD
BRANCH  24  29
ATOM     27  N   UNL     1      33.908 -14.335 -23.513  0.00  0.00    -0.221 NA
ATOM     28  N   UNL     1      33.534 -16.062 -25.152  0.00  0.00    -0.221 NA
ATOM     29  C   UNL     1      34.130 -16.651 -22.896  0.00  0.00    +0.089 C 
ATOM     30  C   UNL     1      34.166 -15.302 -22.608  0.00  0.00    +0.117 C 
ATOM     31  C   UNL     1      33.804 -16.976 -24.196  0.00  0.00    +0.117 C 
ATOM     32  C   UNL     1      33.603 -14.779 -24.747  0.00  0.00    +0.199 C 
ENDBRANCH  24  29
ENDBRANCH   8  25
TORSDOF 4
ENDMDL
MODEL 6
REMARK VINA RESULT:     -12.1      5.143      8.385
REMARK  Name = 23658582
REMARK  4 active torsions:
REMARK  status: ('A' for Active; 'I' for Inactive)
REMARK    1  A    between atoms: N_3  and  C_13
REMARK    2  A    between atoms: C_8  and  C_25
REMARK    3  A    between atoms: C_15  and  C_22
REMARK    4  A    between atoms: N_24  and  C_29
REMARK                            x       y       z     vdW  Elec       q    Type
REMARK                         _______ _______ _______ _____ _____    ______ ____
ROOT
ATOM      1 CL   UNL     1      33.640 -23.935 -14.667  0.00  0.00    -0.082 Cl
ATOM      2  O   UNL     1      36.197 -20.997 -18.075  0.00  0.00    -0.352 OA
ATOM      3  N   UNL     1      33.776 -20.149 -20.443  0.00  0.00    -0.295 N 
ATOM      4  N   UNL     1      35.843 -20.338 -19.246  0.00  0.00    -0.062 NA
ATOM      5  C   UNL     1      34.019 -21.410 -18.393  0.00  0.00    +0.072 A 
ATOM      6  C   UNL     1      35.107 -21.635 -17.568  0.00  0.00    +0.183 A 
ATOM      7  C   UNL     1      34.543 -20.597 -19.417  0.00  0.00    +0.174 A 
ATOM      8  C   UNL     1      35.066 -22.401 -16.406  0.00  0.00    +0.101 C 
ATOM      9  C   UNL     1      32.781 -21.979 -18.058  0.00  0.00    +0.007 C 
ATOM     10  C   UNL     1      33.826 -22.962 -16.086  0.00  0.00    +0.065 C 
ATOM     11  C   UNL     1      32.703 -22.756 -16.895  0.00  0.00    +0.012 C 
ATOM     12  H   UNL     1      32.863 -20.517 -20.448  0.00  0.00    +0.154 HD
ENDROOT
BRANCH   3  13
ATOM     13  C   UNL     1      34.038 -19.250 -21.515  0.00  0.00    +0.049 C 
ATOM     14  C   UNL     1      34.024 -17.874 -21.290  0.00  0.00    +0.018 C 
ATOM     15  C   UNL     1      34.282 -16.993 -22.341  0.00  0.00    +0.073 C 
ATOM     16  C   UNL     1      34.309 -19.746 -22.791  0.00  0.00    +0.015 C 
ATOM     17  C   UNL     1      34.552 -17.488 -23.616  0.00  0.00    +0.004 C 
ATOM     18  C   UNL     1      34.566 -18.866 -23.841  0.00  0.00    +0.001 C 
BRANCH  15  22
ATOM     19  F   UNL     1      35.127 -14.826 -22.902  0.00  0.00    -0.166 F 
ATOM     20  F   UNL     1      33.045 -14.946 -22.312  0.00  0.00    -0.166 F 
ATOM     21  F   UNL     1      34.610 -15.193 -20.823  0.00  0.00    -0.166 F 
ATOM     22  C   UNL     1      34.266 -15.521 -22.102  0.00  0.00    +0.419 C 
ENDBRANCH  15  22
ENDBRANCH   3  13
BRANCH   8  25
ATOM     23  O   UNL     1      36.875 -21.610 -15.146  0.00  0.00    -0.270 OA
ATOM     24  N   UNL     1      36.659 -23.916 -15.427  0.00  0.00    -0.278 N 
ATOM     25  C   UNL     1      36.261 -22.584 -15.600  0.00  0.00    +0.253 C 
ATOM     26  H   UNL     1      36.079 -24.594 -15.841  0.00  0.00    +0.155 HD
BRANCH  24  29
ATOM     27  N   UNL     1      40.178 -24.512 -14.441  0.00  0.00    -0.221 NA
ATOM     28  N   UNL     1      38.731 -25.762 -12.975  0.00  0.00    -0.221 NA
ATOM     29  C   UNL     1      37.791 -24.411 -14.730  0.00  0.00    +0.089 C 
ATOM     30  C   UNL     1      39.079 -24.061 -15.081  0.00  0.00    +0.117 C 
ATOM     31  C   UNL     1      37.676 -25.273 -13.660  0.00  0.00    +0.117 C 
ATOM     32  C   UNL     1      39.935 -25.347 -13.413  0.00  0.00    +0.199 C 
ENDBRANCH  24  29
ENDBRANCH   8  25
TORSDOF 4
ENDMDL
MODEL 7
REMARK VINA RESULT:     -11.8      6.968     11.293
REMARK  Name = 23658582
REMARK  4 active torsions:
REMARK  status: ('A' for Active; 'I' for Inactive)
REMARK    1  A    between atoms: N_3  and  C_13
REMARK    2  A    between atoms: C_8  and  C_25
REMARK    3  A    between atoms: C_15  and  C_22
REMARK    4  A    between atoms: N_24  and  C_29
REMARK                            x       y       z     vdW  Elec       q    Type
REMARK                         _______ _______ _______ _____ _____    ______ ____
ROOT
ATOM      1 CL   UNL     1      37.110 -18.623 -22.049  0.00  0.00    -0.082 Cl
ATOM      2  O   UNL     1      32.357 -19.836 -20.399  0.00  0.00    -0.352 OA
ATOM      3  N   UNL     1      32.922 -21.883 -17.628  0.00  0.00    -0.295 N 
ATOM      4  N   UNL     1      31.860 -20.606 -19.355  0.00  0.00    -0.062 NA
ATOM      5  C   UNL     1      34.140 -20.642 -19.310  0.00  0.00    +0.072 A 
ATOM      6  C   UNL     1      33.718 -19.859 -20.369  0.00  0.00    +0.183 A 
ATOM      7  C   UNL     1      32.937 -21.077 -18.720  0.00  0.00    +0.174 A 
ATOM      8  C   UNL     1      34.573 -19.207 -21.254  0.00  0.00    +0.101 C 
ATOM      9  C   UNL     1      35.516 -20.806 -19.089  0.00  0.00    +0.007 C 
ATOM     10  C   UNL     1      35.942 -19.380 -21.022  0.00  0.00    +0.065 C 
ATOM     11  C   UNL     1      36.406 -20.164 -19.961  0.00  0.00    +0.012 C 
ATOM     12  H   UNL     1      33.813 -22.199 -17.354  0.00  0.00    +0.154 HD
ENDROOT
BRANCH   3  13
ATOM     13  C   UNL     1      31.865 -22.360 -16.802  0.00  0.00    +0.049 C 
ATOM     14  C   UNL     1      32.154 -22.960 -15.577  0.00  0.00    +0.018 C 
ATOM     15  C   UNL     1      31.118 -23.428 -14.768  0.00  0.00    +0.073 C 
ATOM     16  C   UNL     1      30.540 -22.226 -17.218  0.00  0.00    +0.015 C 
ATOM     17  C   UNL     1      29.793 -23.294 -15.184  0.00  0.00    +0.004 C 
ATOM     18  C   UNL     1      29.505 -22.693 -16.410  0.00  0.00    +0.001 C 
BRANCH  15  22
ATOM     19  F   UNL     1      30.348 -24.160 -12.625  0.00  0.00    -0.166 F 
ATOM     20  F   UNL     1      31.892 -25.350 -13.574  0.00  0.00    -0.166 F 
ATOM     21  F   UNL     1      32.379 -23.396 -12.753  0.00  0.00    -0.166 F 
ATOM     22  C   UNL     1      31.425 -24.071 -13.459  0.00  0.00    +0.419 C 
ENDBRANCH  15  22
ENDBRANCH   3  13
BRANCH   8  25
ATOM     23  O   UNL     1      33.444 -18.934 -23.287  0.00  0.00    -0.270 OA
ATOM     24  N   UNL     1      34.289 -17.029 -22.239  0.00  0.00    -0.278 N 
ATOM     25  C   UNL     1      34.039 -18.404 -22.340  0.00  0.00    +0.253 C 
ATOM     26  H   UNL     1      34.774 -16.740 -21.432  0.00  0.00    +0.155 HD
BRANCH  24  29
ATOM     27  N   UNL     1      33.403 -15.293 -25.386  0.00  0.00    -0.221 NA
ATOM     28  N   UNL     1      33.415 -13.693 -23.585  0.00  0.00    -0.221 NA
ATOM     29  C   UNL     1      33.933 -16.002 -23.148  0.00  0.00    +0.089 C 
ATOM     30  C   UNL     1      33.743 -16.245 -24.493  0.00  0.00    +0.117 C 
ATOM     31  C   UNL     1      33.754 -14.694 -22.747  0.00  0.00    +0.117 C 
ATOM     32  C   UNL     1      33.258 -14.057 -24.872  0.00  0.00    +0.199 C 
ENDBRANCH  24  29
ENDBRANCH   8  25
TORSDOF 4
ENDMDL
MODEL 8
REMARK VINA RESULT:     -11.8      7.695     12.713
REMARK  Name = 23658582
REMARK  4 active torsions:
REMARK  status: ('A' for Active; 'I' for Inactive)
REMARK    1  A    between atoms: N_3  and  C_13
REMARK    2  A    between atoms: C_8  and  C_25
REMARK    3  A    between atoms: C_15  and  C_22
REMARK    4  A    between atoms: N_24  and  C_29
REMARK                            x       y       z     vdW  Elec       q    Type
REMARK                         _______ _______ _______ _____ _____    ______ ____
ROOT
ATOM      1 CL   UNL     1      31.763 -20.744 -20.205  0.00  0.00    -0.082 Cl
ATOM      2  O   UNL     1      36.257 -21.248 -17.688  0.00  0.00    -0.352 OA
ATOM      3  N   UNL     1      35.504 -23.391 -15.036  0.00  0.00    -0.295 N 
ATOM      4  N   UNL     1      36.663 -21.948 -16.558  0.00  0.00    -0.062 NA
ATOM      5  C   UNL     1      34.445 -22.327 -16.933  0.00  0.00    +0.072 A 
ATOM      6  C   UNL     1      34.934 -21.477 -17.910  0.00  0.00    +0.183 A 
ATOM      7  C   UNL     1      35.569 -22.582 -16.124  0.00  0.00    +0.174 A 
ATOM      8  C   UNL     1      34.168 -20.950 -18.947  0.00  0.00    +0.101 C 
ATOM      9  C   UNL     1      33.093 -22.699 -16.968  0.00  0.00    +0.007 C 
ATOM     10  C   UNL     1      32.822 -21.330 -18.968  0.00  0.00    +0.065 C 
ATOM     11  C   UNL     1      32.292 -22.187 -17.998  0.00  0.00    +0.012 C 
ATOM     12  H   UNL     1      34.593 -23.697 -14.822  0.00  0.00    +0.154 HD
ENDROOT
BRANCH   3  13
ATOM     13  C   UNL     1      36.498 -23.879 -14.142  0.00  0.00    +0.049 C 
ATOM     14  C   UNL     1      37.751 -24.252 -14.629  0.00  0.00    +0.018 C 
ATOM     15  C   UNL     1      38.726 -24.730 -13.753  0.00  0.00    +0.073 C 
ATOM     16  C   UNL     1      36.220 -23.985 -12.779  0.00  0.00    +0.015 C 
ATOM     17  C   UNL     1      38.448 -24.836 -12.391  0.00  0.00    +0.004 C 
ATOM     18  C   UNL     1      37.194 -24.463 -11.904  0.00  0.00    +0.001 C 
BRANCH  15  22
ATOM     19  F   UNL     1      40.676 -26.097 -13.528  0.00  0.00    -0.166 F 
ATOM     20  F   UNL     1      40.031 -25.630 -15.544  0.00  0.00    -0.166 F 
ATOM     21  F   UNL     1      40.945 -24.088 -14.314  0.00  0.00    -0.166 F 
ATOM     22  C   UNL     1      40.065 -25.130 -14.274  0.00  0.00    +0.419 C 
ENDBRANCH  15  22
ENDBRANCH   3  13
BRANCH   8  25
ATOM     23  O   UNL     1      35.996 -19.999 -20.060  0.00  0.00    -0.270 OA
ATOM     24  N   UNL     1      33.856 -19.287 -20.658  0.00  0.00    -0.278 N 
ATOM     25  C   UNL     1      34.767 -20.063 -19.929  0.00  0.00    +0.253 C 
ATOM     26  H   UNL     1      32.905 -19.438 -20.456  0.00  0.00    +0.155 HD
BRANCH  24  29
ATOM     27  N   UNL     1      34.148 -17.642 -23.963  0.00  0.00    -0.221 NA
ATOM     28  N   UNL     1      34.916 -16.121 -22.259  0.00  0.00    -0.221 NA
ATOM     29  C   UNL     1      34.130 -18.313 -21.651  0.00  0.00    +0.089 C 
ATOM     30  C   UNL     1      33.900 -18.545 -22.992  0.00  0.00    +0.117 C 
ATOM     31  C   UNL     1      34.645 -17.071 -21.340  0.00  0.00    +0.117 C 
ATOM     32  C   UNL     1      34.649 -16.468 -23.533  0.00  0.00    +0.199 C 
ENDBRANCH  24  29
ENDBRANCH   8  25
TORSDOF 4
ENDMDL
MODEL 9
REMARK VINA RESULT:     -11.5      5.541     10.902
REMARK  Name = 23658582
REMARK  4 active torsions:
REMARK  status: ('A' for Active; 'I' for Inactive)
REMARK    1  A    between atoms: N_3  and  C_13
REMARK    2  A    between atoms: C_8  and  C_25
REMARK    3  A    between atoms: C_15  and  C_22
REMARK    4  A    between atoms: N_24  and  C_29
REMARK                            x       y       z     vdW  Elec       q    Type
REMARK                         _______ _______ _______ _____ _____    ______ ____
ROOT
ATOM      1 CL   UNL     1      30.624  -7.349 -19.491  0.00  0.00    -0.082 Cl
ATOM      2  O   UNL     1      32.356 -10.320 -23.359  0.00  0.00    -0.352 OA
ATOM      3  N   UNL     1      33.066 -13.375 -21.825  0.00  0.00    -0.295 N 
ATOM      4  N   UNL     1      32.806 -11.632 -23.448  0.00  0.00    -0.062 NA
ATOM      5  C   UNL     1      32.233 -11.168 -21.290  0.00  0.00    +0.072 A 
ATOM      6  C   UNL     1      32.015 -10.046 -22.070  0.00  0.00    +0.183 A 
ATOM      7  C   UNL     1      32.726 -12.117 -22.206  0.00  0.00    +0.174 A 
ATOM      8  C   UNL     1      31.522  -8.837 -21.587  0.00  0.00    +0.101 C 
ATOM      9  C   UNL     1      31.948 -11.109 -19.918  0.00  0.00    +0.007 C 
ATOM     10  C   UNL     1      31.242  -8.794 -20.217  0.00  0.00    +0.065 C 
ATOM     11  C   UNL     1      31.450  -9.907 -19.396  0.00  0.00    +0.012 C 
ATOM     12  H   UNL     1      33.023 -13.522 -20.853  0.00  0.00    +0.154 HD
ENDROOT
BRANCH   3  13
ATOM     13  C   UNL     1      33.475 -14.523 -22.561  0.00  0.00    +0.049 C 
ATOM     14  C   UNL     1      34.175 -15.547 -21.924  0.00  0.00    +0.018 C 
ATOM     15  C   UNL     1      34.575 -16.672 -22.646  0.00  0.00    +0.073 C 
ATOM     16  C   UNL     1      33.174 -14.624 -23.920  0.00  0.00    +0.015 C 
ATOM     17  C   UNL     1      34.275 -16.773 -24.004  0.00  0.00    +0.004 C 
ATOM     18  C   UNL     1      33.574 -15.748 -24.641  0.00  0.00    +0.001 C 
BRANCH  15  22
ATOM     19  F   UNL     1      36.582 -17.961 -22.463  0.00  0.00    -0.166 F 
ATOM     20  F   UNL     1      35.503 -17.559 -20.627  0.00  0.00    -0.166 F 
ATOM     21  F   UNL     1      34.700 -18.975 -22.069  0.00  0.00    -0.166 F 
ATOM     22  C   UNL     1      35.326 -17.766 -21.965  0.00  0.00    +0.419 C 
ENDBRANCH  15  22
ENDBRANCH   3  13
BRANCH   8  25
ATOM     23  O   UNL     1      30.311  -7.631 -23.188  0.00  0.00    -0.270 OA
ATOM     24  N   UNL     1      32.369  -6.776 -22.497  0.00  0.00    -0.278 N 
ATOM     25  C   UNL     1      31.324  -7.710 -22.482  0.00  0.00    +0.253 C 
ATOM     26  H   UNL     1      33.117  -6.959 -21.884  0.00  0.00    +0.155 HD
BRANCH  24  29
ATOM     27  N   UNL     1      33.366  -4.468 -25.216  0.00  0.00    -0.221 NA
ATOM     28  N   UNL     1      31.951  -3.287 -23.664  0.00  0.00    -0.221 NA
ATOM     29  C   UNL     1      32.486  -5.602 -23.284  0.00  0.00    +0.089 C 
ATOM     30  C   UNL     1      33.233  -5.566 -24.444  0.00  0.00    +0.117 C 
ATOM     31  C   UNL     1      31.861  -4.422 -22.939  0.00  0.00    +0.117 C 
ATOM     32  C   UNL     1      32.709  -3.379 -24.773  0.00  0.00    +0.199 C 
ENDBRANCH  24  29
ENDBRANCH   8  25
TORSDOF 4
ENDMDL
