MODEL 1
REMARK VINA RESULT:     -13.6      0.000      0.000
REMARK  Name = 24771824
REMARK  4 active torsions:
REMARK  status: ('A' for Active; 'I' for Inactive)
REMARK    1  A    between atoms: C_11  and  C_18
REMARK    2  A    between atoms: C_21  and  O_24
REMARK    3  A    between atoms: O_24  and  C_26
REMARK    4  A    between atoms: C_28  and  C_34
REMARK                            x       y       z     vdW  Elec       q    Type
REMARK                         _______ _______ _______ _____ _____    ______ ____
ROOT
ATOM      1  O   UNL     1      33.182 -22.951 -16.600  0.00  0.00    -0.252 OA
ATOM      2  N   UNL     1      33.191 -21.331 -18.251  0.00  0.00    -0.263 N 
ATOM      3  N   UNL     1      31.155 -22.106 -17.342  0.00  0.00    -0.252 N 
ATOM      4  N   UNL     1      30.731 -23.712 -15.631  0.00  0.00    -0.133 NA
ATOM      5  N   UNL     1      29.862 -24.404 -14.846  0.00  0.00    -0.145 NA
ATOM      6  C   UNL     1      35.167 -21.509 -19.743  0.00  0.00    +0.044 C 
ATOM      7  C   UNL     1      33.011 -20.496 -20.589  0.00  0.00    +0.044 C 
ATOM      8  C   UNL     1      34.659 -21.323 -18.314  0.00  0.00    +0.099 C 
ATOM      9  C   UNL     1      32.526 -20.359 -19.141  0.00  0.00    +0.099 C 
ATOM     10  C   UNL     1      34.515 -20.506 -20.655  0.00  0.00    -0.041 C 
ATOM     11  C   UNL     1      35.213 -19.675 -21.442  0.00  0.00    -0.008 C 
ATOM     12  C   UNL     1      32.545 -22.199 -17.343  0.00  0.00    +0.309 C 
ATOM     13  C   UNL     1      30.246 -22.824 -16.526  0.00  0.00    +0.157 C 
ATOM     14  C   UNL     1      28.896 -22.581 -16.685  0.00  0.00    +0.038 C 
ATOM     15  C   UNL     1      28.012 -23.285 -15.886  0.00  0.00    +0.025 C 
ATOM     16  C   UNL     1      28.537 -24.186 -14.981  0.00  0.00    +0.122 C 
ATOM     17  H   UNL     1      30.759 -21.469 -17.980  0.00  0.00    +0.158 HD
ENDROOT
BRANCH  11  18
ATOM     18  C   UNL     1      34.640 -18.673 -22.355  0.00  0.00    +0.002 C 
ATOM     19  C   UNL     1      35.068 -17.347 -22.290  0.00  0.00    +0.038 C 
ATOM     20  C   UNL     1      33.671 -19.048 -23.284  0.00  0.00    +0.000 C 
ATOM     21  C   UNL     1      34.527 -16.397 -23.156  0.00  0.00    +0.147 C 
ATOM     22  C   UNL     1      33.130 -18.099 -24.150  0.00  0.00    +0.003 C 
ATOM     23  C   UNL     1      33.558 -16.772 -24.086  0.00  0.00    +0.038 C 
BRANCH  21  24
ATOM     24  O   UNL     1      34.944 -15.103 -23.093  0.00  0.00    -0.436 OA
BRANCH  24  26
ATOM     25  N   UNL     1      33.604 -13.221 -23.418  0.00  0.00    -0.210 NA
ATOM     26  C   UNL     1      34.066 -14.168 -22.571  0.00  0.00    +0.230 C 
ATOM     27  C   UNL     1      33.714 -14.251 -21.234  0.00  0.00    +0.058 C 
ATOM     28  C   UNL     1      32.333 -12.311 -21.575  0.00  0.00    +0.091 C 
ATOM     29  C   UNL     1      32.830 -13.301 -20.733  0.00  0.00    +0.010 C 
ATOM     30  C   UNL     1      32.747 -12.315 -22.897  0.00  0.00    +0.106 C 
BRANCH  28  34
ATOM     31  F   UNL     1      31.651 -10.018 -21.527  0.00  0.00    -0.166 F 
ATOM     32  F   UNL     1      30.084 -11.513 -21.407  0.00  0.00    -0.166 F 
ATOM     33  F   UNL     1      31.397 -11.179 -19.706  0.00  0.00    -0.166 F 
ATOM     34  C   UNL     1      31.388 -11.280 -21.069  0.00  0.00    +0.420 C 
ENDBRANCH  28  34
ENDBRANCH  24  26
ENDBRANCH  21  24
ENDBRANCH  11  18
TORSDOF 4
ENDMDL
MODEL 2
REMARK VINA RESULT:     -13.1      4.635     10.547
REMARK  Name = 24771824
REMARK  4 active torsions:
REMARK  status: ('A' for Active; 'I' for Inactive)
REMARK    1  A    between atoms: C_11  and  C_18
REMARK    2  A    between atoms: C_21  and  O_24
REMARK    3  A    between atoms: O_24  and  C_26
REMARK    4  A    between atoms: C_28  and  C_34
REMARK                            x       y       z     vdW  Elec       q    Type
REMARK                         _______ _______ _______ _____ _____    ______ ____
ROOT
ATOM      1  O   UNL     1      32.310 -11.556 -23.530  0.00  0.00    -0.252 OA
ATOM      2  N   UNL     1      32.812 -13.615 -22.601  0.00  0.00    -0.263 N 
ATOM      3  N   UNL     1      32.210 -11.793 -21.226  0.00  0.00    -0.252 N 
ATOM      4  N   UNL     1      31.598  -9.559 -21.789  0.00  0.00    -0.133 NA
ATOM      5  N   UNL     1      31.206  -8.310 -21.420  0.00  0.00    -0.145 NA
ATOM      6  C   UNL     1      34.405 -14.918 -23.990  0.00  0.00    +0.044 C 
ATOM      7  C   UNL     1      34.284 -15.287 -21.493  0.00  0.00    +0.044 C 
ATOM      8  C   UNL     1      33.050 -14.215 -23.922  0.00  0.00    +0.099 C 
ATOM      9  C   UNL     1      32.943 -14.546 -21.463  0.00  0.00    +0.099 C 
ATOM     10  C   UNL     1      34.539 -15.889 -22.849  0.00  0.00    -0.041 C 
ATOM     11  C   UNL     1      34.836 -17.184 -23.025  0.00  0.00    -0.008 C 
ATOM     12  C   UNL     1      32.441 -12.254 -22.521  0.00  0.00    +0.309 C 
ATOM     13  C   UNL     1      31.801 -10.494 -20.836  0.00  0.00    +0.157 C 
ATOM     14  C   UNL     1      31.629 -10.242 -19.490  0.00  0.00    +0.038 C 
ATOM     15  C   UNL     1      31.229  -8.972 -19.114  0.00  0.00    +0.025 C 
ATOM     16  C   UNL     1      31.030  -8.037 -20.111  0.00  0.00    +0.122 C 
ATOM     17  H   UNL     1      32.347 -12.444 -20.499  0.00  0.00    +0.158 HD
ENDROOT
BRANCH  11  18
ATOM     18  C   UNL     1      34.981 -18.185 -21.957  0.00  0.00    +0.002 C 
ATOM     19  C   UNL     1      33.903 -19.000 -21.615  0.00  0.00    +0.038 C 
ATOM     20  C   UNL     1      36.197 -18.319 -21.287  0.00  0.00    +0.000 C 
ATOM     21  C   UNL     1      34.041 -19.951 -20.603  0.00  0.00    +0.147 C 
ATOM     22  C   UNL     1      36.335 -19.268 -20.275  0.00  0.00    +0.003 C 
ATOM     23  C   UNL     1      35.256 -20.085 -19.933  0.00  0.00    +0.038 C 
BRANCH  21  24
ATOM     24  O   UNL     1      32.988 -20.746 -20.269  0.00  0.00    -0.436 OA
BRANCH  24  26
ATOM     25  N   UNL     1      31.834 -21.551 -18.409  0.00  0.00    -0.210 NA
ATOM     26  C   UNL     1      33.019 -21.371 -19.034  0.00  0.00    +0.230 C 
ATOM     27  C   UNL     1      34.239 -21.771 -18.514  0.00  0.00    +0.058 C 
ATOM     28  C   UNL     1      33.044 -22.601 -16.598  0.00  0.00    +0.091 C 
ATOM     29  C   UNL     1      34.244 -22.397 -17.272  0.00  0.00    +0.010 C 
ATOM     30  C   UNL     1      31.877 -22.163 -17.204  0.00  0.00    +0.106 C 
BRANCH  28  34
ATOM     31  F   UNL     1      31.815 -23.843 -14.964  0.00  0.00    -0.166 F 
ATOM     32  F   UNL     1      33.936 -24.268 -15.133  0.00  0.00    -0.166 F 
ATOM     33  F   UNL     1      33.271 -22.399 -14.240  0.00  0.00    -0.166 F 
ATOM     34  C   UNL     1      33.017 -23.265 -15.267  0.00  0.00    +0.420 C 
ENDBRANCH  28  34
ENDBRANCH  24  26
ENDBRANCH  21  24
ENDBRANCH  11  18
TORSDOF 4
ENDMDL
MODEL 3
REMARK VINA RESULT:     -12.9      3.317      4.350
REMARK  Name = 24771824
REMARK  4 active torsions:
REMARK  status: ('A' for Active; 'I' for Inactive)
REMARK    1  A    between atoms: C_11  and  C_18
REMARK    2  A    between atoms: C_21  and  O_24
REMARK    3  A    between atoms: O_24  and  C_26
REMARK    4  A    between atoms: C_28  and  C_34
REMARK                            x       y       z     vdW  Elec       q    Type
REMARK                         _______ _______ _______ _____ _____    ______ ____
ROOT
ATOM      1  O   UNL     1      32.973 -24.067 -14.655  0.00  0.00    -0.252 OA
ATOM      2  N   UNL     1      33.924 -22.872 -16.392  0.00  0.00    -0.263 N 
ATOM      3  N   UNL     1      34.973 -22.954 -14.279  0.00  0.00    -0.252 N 
ATOM      4  N   UNL     1      34.342 -24.085 -12.277  0.00  0.00    -0.133 NA
ATOM      5  N   UNL     1      34.579 -24.414 -10.978  0.00  0.00    -0.145 NA
ATOM      6  C   UNL     1      32.231 -22.028 -18.000  0.00  0.00    +0.044 C 
ATOM      7  C   UNL     1      34.429 -20.816 -17.701  0.00  0.00    +0.044 C 
ATOM      8  C   UNL     1      32.845 -23.248 -17.316  0.00  0.00    +0.099 C 
ATOM      9  C   UNL     1      34.995 -22.050 -16.990  0.00  0.00    +0.099 C 
ATOM     10  C   UNL     1      33.312 -21.197 -18.635  0.00  0.00    -0.041 C 
ATOM     11  C   UNL     1      33.294 -20.844 -19.929  0.00  0.00    -0.008 C 
ATOM     12  C   UNL     1      33.888 -23.345 -15.061  0.00  0.00    +0.309 C 
ATOM     13  C   UNL     1      35.224 -23.295 -12.927  0.00  0.00    +0.157 C 
ATOM     14  C   UNL     1      36.367 -22.799 -12.332  0.00  0.00    +0.038 C 
ATOM     15  C   UNL     1      36.607 -23.134 -11.011  0.00  0.00    +0.025 C 
ATOM     16  C   UNL     1      35.688 -23.943 -10.372  0.00  0.00    +0.122 C 
ATOM     17  H   UNL     1      35.641 -22.376 -14.715  0.00  0.00    +0.158 HD
ENDROOT
BRANCH  11  18
ATOM     18  C   UNL     1      34.316 -20.036 -20.612  0.00  0.00    +0.002 C 
ATOM     19  C   UNL     1      34.012 -19.406 -21.819  0.00  0.00    +0.038 C 
ATOM     20  C   UNL     1      35.586 -19.898 -20.054  0.00  0.00    +0.000 C 
ATOM     21  C   UNL     1      34.980 -18.637 -22.467  0.00  0.00    +0.147 C 
ATOM     22  C   UNL     1      36.553 -19.130 -20.701  0.00  0.00    +0.003 C 
ATOM     23  C   UNL     1      36.250 -18.500 -21.909  0.00  0.00    +0.038 C 
BRANCH  21  24
ATOM     24  O   UNL     1      34.684 -18.023 -23.645  0.00  0.00    -0.436 OA
BRANCH  24  26
ATOM     25  N   UNL     1      33.617 -16.229 -24.687  0.00  0.00    -0.210 NA
ATOM     26  C   UNL     1      34.255 -16.707 -23.595  0.00  0.00    +0.230 C 
ATOM     27  C   UNL     1      34.496 -15.965 -22.450  0.00  0.00    +0.058 C 
ATOM     28  C   UNL     1      33.394 -14.119 -23.529  0.00  0.00    +0.091 C 
ATOM     29  C   UNL     1      34.055 -14.646 -22.424  0.00  0.00    +0.010 C 
ATOM     30  C   UNL     1      33.203 -14.944 -24.625  0.00  0.00    +0.106 C 
BRANCH  28  34
ATOM     31  F   UNL     1      33.775 -11.832 -22.938  0.00  0.00    -0.166 F 
ATOM     32  F   UNL     1      32.699 -12.205 -24.784  0.00  0.00    -0.166 F 
ATOM     33  F   UNL     1      31.726 -12.557 -22.871  0.00  0.00    -0.166 F 
ATOM     34  C   UNL     1      32.913 -12.711 -23.532  0.00  0.00    +0.420 C 
ENDBRANCH  28  34
ENDBRANCH  24  26
ENDBRANCH  21  24
ENDBRANCH  11  18
TORSDOF 4
ENDMDL
MODEL 4
REMARK VINA RESULT:     -12.5      5.337     12.148
REMARK  Name = 24771824
REMARK  4 active torsions:
REMARK  status: ('A' for Active; 'I' for Inactive)
REMARK    1  A    between atoms: C_11  and  C_18
REMARK    2  A    between atoms: C_21  and  O_24
REMARK    3  A    between atoms: O_24  and  C_26
REMARK    4  A    between atoms: C_28  and  C_34
REMARK                            x       y       z     vdW  Elec       q    Type
REMARK                         _______ _______ _______ _____ _____    ______ ____
ROOT
ATOM      1  O   UNL     1      31.099  -7.385 -21.199  0.00  0.00    -0.252 OA
ATOM      2  N   UNL     1      32.107  -9.349 -21.893  0.00  0.00    -0.263 N 
ATOM      3  N   UNL     1      31.886  -7.526 -23.376  0.00  0.00    -0.252 N 
ATOM      4  N   UNL     1      30.956  -5.356 -23.041  0.00  0.00    -0.133 NA
ATOM      5  N   UNL     1      30.646  -4.117 -23.506  0.00  0.00    -0.145 NA
ATOM      6  C   UNL     1      31.254 -11.334 -20.671  0.00  0.00    +0.044 C 
ATOM      7  C   UNL     1      32.179 -11.571 -23.011  0.00  0.00    +0.044 C 
ATOM      8  C   UNL     1      31.933  -9.970 -20.572  0.00  0.00    +0.099 C 
ATOM      9  C   UNL     1      32.817 -10.183 -22.882  0.00  0.00    +0.099 C 
ATOM     10  C   UNL     1      31.985 -12.202 -21.659  0.00  0.00    -0.041 C 
ATOM     11  C   UNL     1      32.444 -13.424 -21.354  0.00  0.00    -0.008 C 
ATOM     12  C   UNL     1      31.645  -8.030 -22.099  0.00  0.00    +0.309 C 
ATOM     13  C   UNL     1      31.565  -6.235 -23.865  0.00  0.00    +0.157 C 
ATOM     14  C   UNL     1      31.892  -5.935 -25.172  0.00  0.00    +0.038 C 
ATOM     15  C   UNL     1      31.577  -4.673 -25.646  0.00  0.00    +0.025 C 
ATOM     16  C   UNL     1      30.954  -3.796 -24.780  0.00  0.00    +0.122 C 
ATOM     17  H   UNL     1      32.329  -8.135 -24.010  0.00  0.00    +0.158 HD
ENDROOT
BRANCH  11  18
ATOM     18  C   UNL     1      33.165 -14.323 -22.269  0.00  0.00    +0.002 C 
ATOM     19  C   UNL     1      34.161 -15.166 -21.776  0.00  0.00    +0.038 C 
ATOM     20  C   UNL     1      32.852 -14.334 -23.628  0.00  0.00    +0.000 C 
ATOM     21  C   UNL     1      34.843 -16.020 -22.643  0.00  0.00    +0.147 C 
ATOM     22  C   UNL     1      33.534 -15.187 -24.494  0.00  0.00    +0.003 C 
ATOM     23  C   UNL     1      34.530 -16.030 -24.002  0.00  0.00    +0.038 C 
BRANCH  21  24
ATOM     24  O   UNL     1      35.815 -16.842 -22.162  0.00  0.00    -0.436 OA
BRANCH  24  26
ATOM     25  N   UNL     1      36.325 -18.497 -20.599  0.00  0.00    -0.210 NA
ATOM     26  C   UNL     1      35.418 -17.958 -21.445  0.00  0.00    +0.230 C 
ATOM     27  C   UNL     1      34.138 -18.454 -21.629  0.00  0.00    +0.058 C 
ATOM     28  C   UNL     1      34.667 -20.157 -20.015  0.00  0.00    +0.091 C 
ATOM     29  C   UNL     1      33.762 -19.575 -20.897  0.00  0.00    +0.010 C 
ATOM     30  C   UNL     1      35.925 -19.585 -19.904  0.00  0.00    +0.106 C 
BRANCH  28  34
ATOM     31  F   UNL     1      33.017 -21.328 -18.739  0.00  0.00    -0.166 F 
ATOM     32  F   UNL     1      34.384 -22.530 -19.918  0.00  0.00    -0.166 F 
ATOM     33  F   UNL     1      35.092 -21.531 -18.121  0.00  0.00    -0.166 F 
ATOM     34  C   UNL     1      34.297 -21.358 -19.220  0.00  0.00    +0.420 C 
ENDBRANCH  28  34
ENDBRANCH  24  26
ENDBRANCH  21  24
ENDBRANCH  11  18
TORSDOF 4
ENDMDL
MODEL 5
REMARK VINA RESULT:     -12.0      6.284     11.426
REMARK  Name = 24771824
REMARK  4 active torsions:
REMARK  status: ('A' for Active; 'I' for Inactive)
REMARK    1  A    between atoms: C_11  and  C_18
REMARK    2  A    between atoms: C_21  and  O_24
REMARK    3  A    between atoms: O_24  and  C_26
REMARK    4  A    between atoms: C_28  and  C_34
REMARK                            x       y       z     vdW  Elec       q    Type
REMARK                         _______ _______ _______ _____ _____    ______ ____
ROOT
ATOM      1  O   UNL     1      34.599 -15.061 -23.915  0.00  0.00    -0.252 OA
ATOM      2  N   UNL     1      34.426 -16.724 -22.316  0.00  0.00    -0.263 N 
ATOM      3  N   UNL     1      33.411 -14.621 -21.973  0.00  0.00    -0.252 N 
ATOM      4  N   UNL     1      33.331 -12.690 -23.370  0.00  0.00    -0.133 NA
ATOM      5  N   UNL     1      32.921 -11.414 -23.603  0.00  0.00    -0.145 NA
ATOM      6  C   UNL     1      36.364 -18.276 -22.350  0.00  0.00    +0.044 C 
ATOM      7  C   UNL     1      35.055 -17.907 -20.219  0.00  0.00    +0.044 C 
ATOM      8  C   UNL     1      35.202 -17.668 -23.134  0.00  0.00    +0.099 C 
ATOM      9  C   UNL     1      33.927 -17.273 -21.040  0.00  0.00    +0.099 C 
ATOM     10  C   UNL     1      35.862 -18.861 -21.058  0.00  0.00    -0.041 C 
ATOM     11  C   UNL     1      36.093 -20.131 -20.695  0.00  0.00    -0.008 C 
ATOM     12  C   UNL     1      34.180 -15.425 -22.813  0.00  0.00    +0.309 C 
ATOM     13  C   UNL     1      32.981 -13.292 -22.213  0.00  0.00    +0.157 C 
ATOM     14  C   UNL     1      32.221 -12.669 -21.243  0.00  0.00    +0.038 C 
ATOM     15  C   UNL     1      31.804 -11.371 -21.481  0.00  0.00    +0.025 C 
ATOM     16  C   UNL     1      32.177 -10.782 -22.673  0.00  0.00    +0.122 C 
ATOM     17  H   UNL     1      33.134 -15.022 -21.117  0.00  0.00    +0.158 HD
ENDROOT
BRANCH  11  18
ATOM     18  C   UNL     1      35.634 -20.765 -19.450  0.00  0.00    +0.002 C 
ATOM     19  C   UNL     1      36.397 -20.653 -18.288  0.00  0.00    +0.038 C 
ATOM     20  C   UNL     1      34.435 -21.478 -19.431  0.00  0.00    +0.000 C 
ATOM     21  C   UNL     1      35.960 -21.253 -17.107  0.00  0.00    +0.147 C 
ATOM     22  C   UNL     1      33.999 -22.078 -18.251  0.00  0.00    +0.003 C 
ATOM     23  C   UNL     1      34.762 -21.965 -17.088  0.00  0.00    +0.038 C 
BRANCH  21  24
ATOM     24  O   UNL     1      36.705 -21.143 -15.973  0.00  0.00    -0.436 OA
BRANCH  24  26
ATOM     25  N   UNL     1      35.846 -22.406 -14.210  0.00  0.00    -0.210 NA
ATOM     26  C   UNL     1      36.801 -22.257 -15.155  0.00  0.00    +0.230 C 
ATOM     27  C   UNL     1      37.849 -23.141 -15.346  0.00  0.00    +0.058 C 
ATOM     28  C   UNL     1      36.958 -24.441 -13.528  0.00  0.00    +0.091 C 
ATOM     29  C   UNL     1      37.923 -24.252 -14.512  0.00  0.00    +0.010 C 
ATOM     30  C   UNL     1      35.949 -23.498 -13.419  0.00  0.00    +0.106 C 
BRANCH  28  34
ATOM     31  F   UNL     1      36.736 -26.806 -13.240  0.00  0.00    -0.166 F 
ATOM     32  F   UNL     1      38.229 -25.803 -12.028  0.00  0.00    -0.166 F 
ATOM     33  F   UNL     1      36.116 -25.531 -11.590  0.00  0.00    -0.166 F 
ATOM     34  C   UNL     1      37.011 -25.618 -12.620  0.00  0.00    +0.420 C 
ENDBRANCH  28  34
ENDBRANCH  24  26
ENDBRANCH  21  24
ENDBRANCH  11  18
TORSDOF 4
ENDMDL
MODEL 6
REMARK VINA RESULT:     -11.9      6.520     14.171
REMARK  Name = 24771824
REMARK  4 active torsions:
REMARK  status: ('A' for Active; 'I' for Inactive)
REMARK    1  A    between atoms: C_11  and  C_18
REMARK    2  A    between atoms: C_21  and  O_24
REMARK    3  A    between atoms: O_24  and  C_26
REMARK    4  A    between atoms: C_28  and  C_34
REMARK                            x       y       z     vdW  Elec       q    Type
REMARK                         _______ _______ _______ _____ _____    ______ ____
ROOT
ATOM      1  O   UNL     1      31.803  -4.018 -24.438  0.00  0.00    -0.252 OA
ATOM      2  N   UNL     1      32.224  -6.107 -23.538  0.00  0.00    -0.263 N 
ATOM      3  N   UNL     1      33.833  -5.040 -24.895  0.00  0.00    -0.252 N 
ATOM      4  N   UNL     1      33.795  -2.908 -25.963  0.00  0.00    -0.133 NA
ATOM      5  N   UNL     1      34.391  -1.959 -26.734  0.00  0.00    -0.145 NA
ATOM      6  C   UNL     1      30.147  -7.415 -23.168  0.00  0.00    +0.044 C 
ATOM      7  C   UNL     1      32.346  -8.593 -23.575  0.00  0.00    +0.044 C 
ATOM      8  C   UNL     1      30.922  -6.137 -22.855  0.00  0.00    +0.099 C 
ATOM      9  C   UNL     1      33.084  -7.280 -23.288  0.00  0.00    +0.099 C 
ATOM     10  C   UNL     1      31.005  -8.619 -22.891  0.00  0.00    -0.041 C 
ATOM     11  C   UNL     1      30.620  -9.619 -22.085  0.00  0.00    -0.008 C 
ATOM     12  C   UNL     1      32.567  -4.979 -24.316  0.00  0.00    +0.309 C 
ATOM     13  C   UNL     1      34.458  -4.054 -25.698  0.00  0.00    +0.157 C 
ATOM     14  C   UNL     1      35.727  -4.314 -26.178  0.00  0.00    +0.038 C 
ATOM     15  C   UNL     1      36.334  -3.348 -26.962  0.00  0.00    +0.025 C 
ATOM     16  C   UNL     1      35.630  -2.187 -27.216  0.00  0.00    +0.122 C 
ATOM     17  H   UNL     1      34.352  -5.860 -24.727  0.00  0.00    +0.158 HD
ENDROOT
BRANCH  11  18
ATOM     18  C   UNL     1      31.408 -10.821 -21.772  0.00  0.00    +0.002 C 
ATOM     19  C   UNL     1      32.188 -11.420 -22.762  0.00  0.00    +0.038 C 
ATOM     20  C   UNL     1      31.377 -11.361 -20.487  0.00  0.00    +0.000 C 
ATOM     21  C   UNL     1      32.937 -12.559 -22.465  0.00  0.00    +0.147 C 
ATOM     22  C   UNL     1      32.125 -12.499 -20.190  0.00  0.00    +0.003 C 
ATOM     23  C   UNL     1      32.905 -13.099 -21.179  0.00  0.00    +0.038 C 
BRANCH  21  24
ATOM     24  O   UNL     1      33.697 -13.144 -23.430  0.00  0.00    -0.436 OA
BRANCH  24  26
ATOM     25  N   UNL     1      34.457 -15.025 -22.278  0.00  0.00    -0.210 NA
ATOM     26  C   UNL     1      33.857 -14.519 -23.379  0.00  0.00    +0.230 C 
ATOM     27  C   UNL     1      33.402 -15.287 -24.438  0.00  0.00    +0.058 C 
ATOM     28  C   UNL     1      34.186 -17.224 -23.245  0.00  0.00    +0.091 C 
ATOM     29  C   UNL     1      33.574 -16.666 -24.363  0.00  0.00    +0.010 C 
ATOM     30  C   UNL     1      34.606 -16.368 -22.240  0.00  0.00    +0.106 C 
BRANCH  28  34
ATOM     31  F   UNL     1      33.660 -19.277 -22.135  0.00  0.00    -0.166 F 
ATOM     32  F   UNL     1      34.043 -19.382 -24.267  0.00  0.00    -0.166 F 
ATOM     33  F   UNL     1      35.686 -19.033 -22.886  0.00  0.00    -0.166 F 
ATOM     34  C   UNL     1      34.386 -18.694 -23.137  0.00  0.00    +0.420 C 
ENDBRANCH  28  34
ENDBRANCH  24  26
ENDBRANCH  21  24
ENDBRANCH  11  18
TORSDOF 4
ENDMDL
MODEL 7
REMARK VINA RESULT:     -11.9      5.253     10.688
REMARK  Name = 24771824
REMARK  4 active torsions:
REMARK  status: ('A' for Active; 'I' for Inactive)
REMARK    1  A    between atoms: C_11  and  C_18
REMARK    2  A    between atoms: C_21  and  O_24
REMARK    3  A    between atoms: O_24  and  C_26
REMARK    4  A    between atoms: C_28  and  C_34
REMARK                            x       y       z     vdW  Elec       q    Type
REMARK                         _______ _______ _______ _____ _____    ______ ____
ROOT
ATOM      1  O   UNL     1      33.136 -11.915 -23.602  0.00  0.00    -0.252 OA
ATOM      2  N   UNL     1      33.145 -14.009 -22.620  0.00  0.00    -0.263 N 
ATOM      3  N   UNL     1      32.342 -12.132 -21.434  0.00  0.00    -0.252 N 
ATOM      4  N   UNL     1      32.138  -9.850 -22.095  0.00  0.00    -0.133 NA
ATOM      5  N   UNL     1      31.775  -8.568 -21.825  0.00  0.00    -0.145 NA
ATOM      6  C   UNL     1      34.943 -15.468 -23.515  0.00  0.00    +0.044 C 
ATOM      7  C   UNL     1      34.061 -15.814 -21.172  0.00  0.00    +0.044 C 
ATOM      8  C   UNL     1      33.701 -14.635 -23.828  0.00  0.00    +0.099 C 
ATOM      9  C   UNL     1      32.847 -14.944 -21.517  0.00  0.00    +0.099 C 
ATOM     10  C   UNL     1      34.643 -16.443 -22.410  0.00  0.00    -0.041 C 
ATOM     11  C   UNL     1      34.854 -17.762 -22.524  0.00  0.00    -0.008 C 
ATOM     12  C   UNL     1      32.897 -12.618 -22.617  0.00  0.00    +0.309 C 
ATOM     13  C   UNL     1      31.962 -10.797 -21.149  0.00  0.00    +0.157 C 
ATOM     14  C   UNL     1      31.427 -10.525 -19.905  0.00  0.00    +0.038 C 
ATOM     15  C   UNL     1      31.058  -9.220 -19.631  0.00  0.00    +0.025 C 
ATOM     16  C   UNL     1      31.250  -8.273 -20.618  0.00  0.00    +0.122 C 
ATOM     17  H   UNL     1      32.197 -12.791 -20.716  0.00  0.00    +0.158 HD
ENDROOT
BRANCH  11  18
ATOM     18  C   UNL     1      34.584 -18.768 -21.486  0.00  0.00    +0.002 C 
ATOM     19  C   UNL     1      35.633 -19.279 -20.722  0.00  0.00    +0.038 C 
ATOM     20  C   UNL     1      33.280 -19.210 -21.265  0.00  0.00    +0.000 C 
ATOM     21  C   UNL     1      35.377 -20.232 -19.735  0.00  0.00    +0.147 C 
ATOM     22  C   UNL     1      33.024 -20.163 -20.280  0.00  0.00    +0.003 C 
ATOM     23  C   UNL     1      34.073 -20.674 -19.515  0.00  0.00    +0.038 C 
BRANCH  21  24
ATOM     24  O   UNL     1      36.400 -20.731 -18.989  0.00  0.00    -0.436 OA
BRANCH  24  26
ATOM     25  N   UNL     1      34.958 -22.030 -17.697  0.00  0.00    -0.210 NA
ATOM     26  C   UNL     1      36.089 -21.293 -17.763  0.00  0.00    +0.230 C 
ATOM     27  C   UNL     1      36.937 -21.075 -16.690  0.00  0.00    +0.058 C 
ATOM     28  C   UNL     1      35.447 -22.417 -15.361  0.00  0.00    +0.091 C 
ATOM     29  C   UNL     1      36.603 -21.651 -15.468  0.00  0.00    +0.010 C 
ATOM     30  C   UNL     1      34.665 -22.575 -16.494  0.00  0.00    +0.106 C 
BRANCH  28  34
ATOM     31  F   UNL     1      35.671 -22.484 -12.980  0.00  0.00    -0.166 F 
ATOM     32  F   UNL     1      33.724 -22.974 -13.799  0.00  0.00    -0.166 F 
ATOM     33  F   UNL     1      35.373 -24.374 -14.013  0.00  0.00    -0.166 F 
ATOM     34  C   UNL     1      35.062 -23.044 -14.068  0.00  0.00    +0.420 C 
ENDBRANCH  28  34
ENDBRANCH  24  26
ENDBRANCH  21  24
ENDBRANCH  11  18
TORSDOF 4
ENDMDL
MODEL 8
REMARK VINA RESULT:     -11.3      4.727     10.590
REMARK  Name = 24771824
REMARK  4 active torsions:
REMARK  status: ('A' for Active; 'I' for Inactive)
REMARK    1  A    between atoms: C_11  and  C_18
REMARK    2  A    between atoms: C_21  and  O_24
REMARK    3  A    between atoms: O_24  and  C_26
REMARK    4  A    between atoms: C_28  and  C_34
REMARK                            x       y       z     vdW  Elec       q    Type
REMARK                         _______ _______ _______ _____ _____    ______ ____
ROOT
ATOM      1  O   UNL     1      34.754 -14.904 -23.814  0.00  0.00    -0.252 OA
ATOM      2  N   UNL     1      34.482 -16.611 -22.276  0.00  0.00    -0.263 N 
ATOM      3  N   UNL     1      33.427 -14.524 -21.951  0.00  0.00    -0.252 N 
ATOM      4  N   UNL     1      33.430 -12.557 -23.298  0.00  0.00    -0.133 NA
ATOM      5  N   UNL     1      33.028 -11.278 -23.526  0.00  0.00    -0.145 NA
ATOM      6  C   UNL     1      36.429 -18.149 -22.214  0.00  0.00    +0.044 C 
ATOM      7  C   UNL     1      34.971 -17.846 -20.172  0.00  0.00    +0.044 C 
ATOM      8  C   UNL     1      35.321 -17.528 -23.061  0.00  0.00    +0.099 C 
ATOM      9  C   UNL     1      33.898 -17.197 -21.054  0.00  0.00    +0.099 C 
ATOM     10  C   UNL     1      35.842 -18.772 -20.977  0.00  0.00    -0.041 C 
ATOM     11  C   UNL     1      36.058 -20.050 -20.632  0.00  0.00    -0.008 C 
ATOM     12  C   UNL     1      34.260 -15.300 -22.754  0.00  0.00    +0.309 C 
ATOM     13  C   UNL     1      33.005 -13.192 -22.185  0.00  0.00    +0.157 C 
ATOM     14  C   UNL     1      32.172 -12.601 -21.255  0.00  0.00    +0.038 C 
ATOM     15  C   UNL     1      31.763 -11.299 -21.488  0.00  0.00    +0.025 C 
ATOM     16  C   UNL     1      32.214 -10.676 -22.634  0.00  0.00    +0.122 C 
ATOM     17  H   UNL     1      33.094 -14.950 -21.127  0.00  0.00    +0.158 HD
ENDROOT
BRANCH  11  18
ATOM     18  C   UNL     1      35.517 -20.720 -19.440  0.00  0.00    +0.002 C 
ATOM     19  C   UNL     1      34.171 -21.087 -19.398  0.00  0.00    +0.038 C 
ATOM     20  C   UNL     1      36.348 -20.991 -18.353  0.00  0.00    +0.000 C 
ATOM     21  C   UNL     1      33.658 -21.725 -18.268  0.00  0.00    +0.147 C 
ATOM     22  C   UNL     1      35.834 -21.628 -17.224  0.00  0.00    +0.003 C 
ATOM     23  C   UNL     1      34.489 -21.995 -17.182  0.00  0.00    +0.038 C 
BRANCH  21  24
ATOM     24  O   UNL     1      32.345 -22.082 -18.227  0.00  0.00    -0.436 OA
BRANCH  24  26
ATOM     25  N   UNL     1      30.524 -22.367 -16.798  0.00  0.00    -0.210 NA
ATOM     26  C   UNL     1      31.843 -22.552 -17.025  0.00  0.00    +0.230 C 
ATOM     27  C   UNL     1      32.703 -23.177 -16.137  0.00  0.00    +0.058 C 
ATOM     28  C   UNL     1      30.822 -23.471 -14.668  0.00  0.00    +0.091 C 
ATOM     29  C   UNL     1      32.175 -23.642 -14.937  0.00  0.00    +0.010 C 
ATOM     30  C   UNL     1      30.046 -22.832 -15.622  0.00  0.00    +0.106 C 
BRANCH  28  34
ATOM     31  F   UNL     1      28.960 -24.450 -13.528  0.00  0.00    -0.166 F 
ATOM     32  F   UNL     1      30.938 -24.960 -12.800  0.00  0.00    -0.166 F 
ATOM     33  F   UNL     1      30.133 -22.972 -12.447  0.00  0.00    -0.166 F 
ATOM     34  C   UNL     1      30.227 -23.954 -13.392  0.00  0.00    +0.420 C 
ENDBRANCH  28  34
ENDBRANCH  24  26
ENDBRANCH  21  24
ENDBRANCH  11  18
TORSDOF 4
ENDMDL
MODEL 9
REMARK VINA RESULT:     -10.8      7.608     15.568
REMARK  Name = 24771824
REMARK  4 active torsions:
REMARK  status: ('A' for Active; 'I' for Inactive)
REMARK    1  A    between atoms: C_11  and  C_18
REMARK    2  A    between atoms: C_21  and  O_24
REMARK    3  A    between atoms: O_24  and  C_26
REMARK    4  A    between atoms: C_28  and  C_34
REMARK                            x       y       z     vdW  Elec       q    Type
REMARK                         _______ _______ _______ _____ _____    ______ ____
ROOT
ATOM      1  O   UNL     1      34.312  -3.350 -27.722  0.00  0.00    -0.252 OA
ATOM      2  N   UNL     1      33.746  -4.465 -25.776  0.00  0.00    -0.263 N 
ATOM      3  N   UNL     1      35.990  -3.879 -26.212  0.00  0.00    -0.252 N 
ATOM      4  N   UNL     1      36.960  -2.716 -28.054  0.00  0.00    -0.133 NA
ATOM      5  N   UNL     1      38.046  -2.190 -28.683  0.00  0.00    -0.145 NA
ATOM      6  C   UNL     1      31.727  -5.884 -26.049  0.00  0.00    +0.044 C 
ATOM      7  C   UNL     1      33.479  -6.467 -24.323  0.00  0.00    +0.044 C 
ATOM      8  C   UNL     1      32.320  -4.478 -26.132  0.00  0.00    +0.099 C 
ATOM      9  C   UNL     1      34.063  -5.057 -24.462  0.00  0.00    +0.099 C 
ATOM     10  C   UNL     1      32.022  -6.488 -24.703  0.00  0.00    -0.041 C 
ATOM     11  C   UNL     1      31.069  -6.981 -23.901  0.00  0.00    -0.008 C 
ATOM     12  C   UNL     1      34.670  -3.864 -26.659  0.00  0.00    +0.309 C 
ATOM     13  C   UNL     1      37.124  -3.332 -26.864  0.00  0.00    +0.157 C 
ATOM     14  C   UNL     1      38.352  -3.456 -26.245  0.00  0.00    +0.038 C 
ATOM     15  C   UNL     1      39.456  -2.920 -26.885  0.00  0.00    +0.025 C 
ATOM     16  C   UNL     1      39.258  -2.297 -28.102  0.00  0.00    +0.122 C 
ATOM     17  H   UNL     1      36.154  -4.319 -25.347  0.00  0.00    +0.158 HD
ENDROOT
BRANCH  11  18
ATOM     18  C   UNL     1      31.287  -7.584 -22.577  0.00  0.00    +0.002 C 
ATOM     19  C   UNL     1      30.873  -8.893 -22.331  0.00  0.00    +0.038 C 
ATOM     20  C   UNL     1      31.910  -6.848 -21.569  0.00  0.00    +0.000 C 
ATOM     21  C   UNL     1      31.082  -9.466 -21.076  0.00  0.00    +0.147 C 
ATOM     22  C   UNL     1      32.118  -7.420 -20.315  0.00  0.00    +0.003 C 
ATOM     23  C   UNL     1      31.704  -8.730 -20.068  0.00  0.00    +0.038 C 
BRANCH  21  24
ATOM     24  O   UNL     1      30.677 -10.743 -20.835  0.00  0.00    -0.436 OA
BRANCH  24  26
ATOM     25  N   UNL     1      31.740 -11.849 -22.592  0.00  0.00    -0.210 NA
ATOM     26  C   UNL     1      31.500 -11.771 -21.264  0.00  0.00    +0.230 C 
ATOM     27  C   UNL     1      32.024 -12.646 -20.328  0.00  0.00    +0.058 C 
ATOM     28  C   UNL     1      33.119 -13.783 -22.143  0.00  0.00    +0.091 C 
ATOM     29  C   UNL     1      32.848 -13.670 -20.783  0.00  0.00    +0.010 C 
ATOM     30  C   UNL     1      32.546 -12.856 -22.998  0.00  0.00    +0.106 C 
BRANCH  28  34
ATOM     31  F   UNL     1      34.924 -14.441 -23.570  0.00  0.00    -0.166 F 
ATOM     32  F   UNL     1      34.717 -15.504 -21.690  0.00  0.00    -0.166 F 
ATOM     33  F   UNL     1      33.294 -15.855 -23.296  0.00  0.00    -0.166 F 
ATOM     34  C   UNL     1      33.995 -14.868 -22.661  0.00  0.00    +0.420 C 
ENDBRANCH  28  34
ENDBRANCH  24  26
ENDBRANCH  21  24
ENDBRANCH  11  18
TORSDOF 4
ENDMDL
