MODEL 1
REMARK VINA RESULT:     -11.3      0.000      0.000
REMARK  Name = 16744441
REMARK  9 active torsions:
REMARK  status: ('A' for Active; 'I' for Inactive)
REMARK    1  A    between atoms: N_1  and  C_26
REMARK    2  A    between atoms: C_9  and  O_21
REMARK    3  A    between atoms: N_10  and  C_12
REMARK    4  A    between atoms: C_12  and  C_13
REMARK    5  A    between atoms: C_13  and  N_15
REMARK    6  A    between atoms: O_21  and  C_22
REMARK    7  A    between atoms: C_22  and  C_23
REMARK    8  A    between atoms: C_23  and  C_24
REMARK    9  A    between atoms: C_26  and  C_29
REMARK                            x       y       z     vdW  Elec       q    Type
REMARK                         _______ _______ _______ _____ _____    ______ ____
ROOT
ATOM      1  N   UNL     1      34.127 -19.438 -21.279  0.00  0.00    -0.256 N 
ATOM      2  N   UNL     1      34.316 -21.779 -18.017  0.00  0.00    -0.294 NA
ATOM      3  N   UNL     1      32.154 -20.185 -20.560  0.00  0.00    -0.240 NA
ATOM      4  N   UNL     1      35.587 -20.463 -19.632  0.00  0.00    -0.294 NA
ATOM      5  C   UNL     1      33.142 -21.475 -18.623  0.00  0.00    +0.217 C 
ATOM      6  C   UNL     1      33.154 -20.658 -19.749  0.00  0.00    +0.167 C 
ATOM      7  C   UNL     1      34.391 -20.203 -20.180  0.00  0.00    +0.222 C 
ATOM      8  C   UNL     1      32.769 -19.456 -21.467  0.00  0.00    +0.222 C 
ATOM      9  C   UNL     1      35.449 -21.262 -18.551  0.00  0.00    +0.313 C 
ATOM     10  N   UNL     1      31.951 -21.973 -18.122  0.00  0.00    -0.308 N 
ATOM     11  H   UNL     1      31.116 -21.733 -18.586  0.00  0.00    +0.149 HD
ENDROOT
BRANCH  10  12
ATOM     12  C   UNL     1      31.862 -22.825 -16.961  0.00  0.00    +0.066 C 
BRANCH  12  13
ATOM     13  C   UNL     1      30.639 -22.442 -16.138  0.00  0.00    -0.056 C 
BRANCH  13  15
ATOM     14  O   UNL     1      31.555 -24.688 -12.712  0.00  0.00    -0.358 OA
ATOM     15  N   UNL     1      30.825 -22.830 -14.740  0.00  0.00    +0.391 N 
ATOM     16  C   UNL     1      29.964 -23.971 -14.398  0.00  0.00    -0.045 C 
ATOM     17  C   UNL     1      32.231 -23.162 -14.473  0.00  0.00    -0.045 C 
ATOM     18  C   UNL     1      30.183 -24.364 -12.939  0.00  0.00    +0.119 C 
ATOM     19  C   UNL     1      32.397 -23.574 -13.014  0.00  0.00    +0.119 C 
ATOM     20  H   UNL     1      30.560 -22.035 -14.159  0.00  0.00    -0.079 HD
ENDBRANCH  13  15
ENDBRANCH  12  13
ENDBRANCH  10  12
BRANCH   9  21
ATOM     21  O   UNL     1      36.618 -21.599 -17.906  0.00  0.00    -0.400 OA
BRANCH  21  22
ATOM     22  C   UNL     1      36.837 -20.999 -16.639  0.00  0.00    +0.223 C 
BRANCH  22  23
ATOM     23  C   UNL     1      37.182 -22.088 -15.633  0.00  0.00    +0.049 C 
BRANCH  23  24
ATOM     24  C   UNL     1      35.946 -22.569 -14.877  0.00  0.00    +0.004 C 
ATOM     25  C   UNL     1      35.808 -24.082 -14.940  0.00  0.00    +0.000 C 
ENDBRANCH  23  24
ENDBRANCH  22  23
ENDBRANCH  21  22
ENDBRANCH   9  21
BRANCH   1  26
ATOM     26  C   UNL     1      35.086 -18.730 -22.092  0.00  0.00    +0.126 C 
BRANCH  26  29
ATOM     27  F   UNL     1      35.012 -16.603 -20.226  0.00  0.00    -0.204 F 
ATOM     28  F   UNL     1      34.161 -18.030 -24.672  0.00  0.00    -0.204 F 
ATOM     29  C   UNL     1      34.598 -17.350 -22.441  0.00  0.00    +0.053 C 
ATOM     30  C   UNL     1      34.589 -16.348 -21.471  0.00  0.00    +0.140 C 
ATOM     31  C   UNL     1      34.155 -17.072 -23.734  0.00  0.00    +0.140 C 
ATOM     32  C   UNL     1      34.136 -15.068 -21.794  0.00  0.00    +0.030 C 
ATOM     33  C   UNL     1      33.702 -15.794 -24.057  0.00  0.00    +0.030 C 
ATOM     34  C   UNL     1      33.692 -14.792 -23.087  0.00  0.00    +0.005 C 
ENDBRANCH  26  29
ENDBRANCH   1  26
TORSDOF 9
ENDMDL
MODEL 2
REMARK VINA RESULT:     -11.1      1.307      2.168
REMARK  Name = 16744441
REMARK  9 active torsions:
REMARK  status: ('A' for Active; 'I' for Inactive)
REMARK    1  A    between atoms: N_1  and  C_26
REMARK    2  A    between atoms: C_9  and  O_21
REMARK    3  A    between atoms: N_10  and  C_12
REMARK    4  A    between atoms: C_12  and  C_13
REMARK    5  A    between atoms: C_13  and  N_15
REMARK    6  A    between atoms: O_21  and  C_22
REMARK    7  A    between atoms: C_22  and  C_23
REMARK    8  A    between atoms: C_23  and  C_24
REMARK    9  A    between atoms: C_26  and  C_29
REMARK                            x       y       z     vdW  Elec       q    Type
REMARK                         _______ _______ _______ _____ _____    ______ ____
ROOT
ATOM      1  N   UNL     1      34.280 -19.599 -20.841  0.00  0.00    -0.256 N 
ATOM      2  N   UNL     1      34.369 -22.048 -17.655  0.00  0.00    -0.294 NA
ATOM      3  N   UNL     1      32.289 -20.386 -20.222  0.00  0.00    -0.240 NA
ATOM      4  N   UNL     1      35.688 -20.668 -19.176  0.00  0.00    -0.294 NA
ATOM      5  C   UNL     1      33.216 -21.733 -18.294  0.00  0.00    +0.217 C 
ATOM      6  C   UNL     1      33.263 -20.878 -19.390  0.00  0.00    +0.167 C 
ATOM      7  C   UNL     1      34.510 -20.400 -19.759  0.00  0.00    +0.222 C 
ATOM      8  C   UNL     1      32.931 -19.621 -21.081  0.00  0.00    +0.222 C 
ATOM      9  C   UNL     1      35.516 -21.505 -18.129  0.00  0.00    +0.313 C 
ATOM     10  N   UNL     1      32.011 -22.257 -17.855  0.00  0.00    -0.308 N 
ATOM     11  H   UNL     1      31.192 -22.007 -18.342  0.00  0.00    +0.149 HD
ENDROOT
BRANCH  10  12
ATOM     12  C   UNL     1      31.887 -23.148 -16.727  0.00  0.00    +0.066 C 
BRANCH  12  13
ATOM     13  C   UNL     1      31.442 -22.363 -15.501  0.00  0.00    -0.056 C 
BRANCH  13  15
ATOM     14  O   UNL     1      27.711 -24.284 -15.413  0.00  0.00    -0.358 OA
ATOM     15  N   UNL     1      30.117 -22.803 -15.068  0.00  0.00    +0.391 N 
ATOM     16  C   UNL     1      29.089 -22.385 -16.031  0.00  0.00    -0.045 C 
ATOM     17  C   UNL     1      30.082 -24.262 -14.896  0.00  0.00    -0.045 C 
ATOM     18  C   UNL     1      27.717 -22.865 -15.563  0.00  0.00    +0.119 C 
ATOM     19  C   UNL     1      28.688 -24.698 -14.455  0.00  0.00    +0.119 C 
ATOM     20  H   UNL     1      29.921 -22.363 -14.169  0.00  0.00    -0.079 HD
ENDBRANCH  13  15
ENDBRANCH  12  13
ENDBRANCH  10  12
BRANCH   9  21
ATOM     21  O   UNL     1      36.664 -21.855 -17.452  0.00  0.00    -0.400 OA
BRANCH  21  22
ATOM     22  C   UNL     1      36.652 -21.665 -16.046  0.00  0.00    +0.223 C 
BRANCH  22  23
ATOM     23  C   UNL     1      37.265 -22.888 -15.379  0.00  0.00    +0.049 C 
BRANCH  23  24
ATOM     24  C   UNL     1      36.217 -23.709 -14.634  0.00  0.00    +0.004 C 
ATOM     25  C   UNL     1      35.023 -22.857 -14.234  0.00  0.00    +0.000 C 
ENDBRANCH  23  24
ENDBRANCH  22  23
ENDBRANCH  21  22
ENDBRANCH   9  21
BRANCH   1  26
ATOM     26  C   UNL     1      35.263 -18.857 -21.593  0.00  0.00    +0.126 C 
BRANCH  26  29
ATOM     27  F   UNL     1      34.217 -19.669 -24.094  0.00  0.00    -0.204 F 
ATOM     28  F   UNL     1      34.974 -16.092 -21.067  0.00  0.00    -0.204 F 
ATOM     29  C   UNL     1      34.611 -17.903 -22.557  0.00  0.00    +0.053 C 
ATOM     30  C   UNL     1      34.117 -18.371 -23.775  0.00  0.00    +0.140 C 
ATOM     31  C   UNL     1      34.502 -16.550 -22.235  0.00  0.00    +0.140 C 
ATOM     32  C   UNL     1      33.513 -17.487 -24.669  0.00  0.00    +0.030 C 
ATOM     33  C   UNL     1      33.899 -15.666 -23.129  0.00  0.00    +0.030 C 
ATOM     34  C   UNL     1      33.405 -16.134 -24.346  0.00  0.00    +0.005 C 
ENDBRANCH  26  29
ENDBRANCH   1  26
TORSDOF 9
ENDMDL
MODEL 3
REMARK VINA RESULT:     -10.2      2.174      4.468
REMARK  Name = 16744441
REMARK  9 active torsions:
REMARK  status: ('A' for Active; 'I' for Inactive)
REMARK    1  A    between atoms: N_1  and  C_26
REMARK    2  A    between atoms: C_9  and  O_21
REMARK    3  A    between atoms: N_10  and  C_12
REMARK    4  A    between atoms: C_12  and  C_13
REMARK    5  A    between atoms: C_13  and  N_15
REMARK    6  A    between atoms: O_21  and  C_22
REMARK    7  A    between atoms: C_22  and  C_23
REMARK    8  A    between atoms: C_23  and  C_24
REMARK    9  A    between atoms: C_26  and  C_29
REMARK                            x       y       z     vdW  Elec       q    Type
REMARK                         _______ _______ _______ _____ _____    ______ ____
ROOT
ATOM      1  N   UNL     1      34.606 -19.605 -21.047  0.00  0.00    -0.256 N 
ATOM      2  N   UNL     1      34.305 -21.899 -17.759  0.00  0.00    -0.294 NA
ATOM      3  N   UNL     1      36.469 -19.729 -19.830  0.00  0.00    -0.240 NA
ATOM      4  N   UNL     1      33.146 -21.022 -19.720  0.00  0.00    -0.294 NA
ATOM      5  C   UNL     1      35.451 -21.256 -18.092  0.00  0.00    +0.217 C 
ATOM      6  C   UNL     1      35.481 -20.480 -19.245  0.00  0.00    +0.167 C 
ATOM      7  C   UNL     1      34.312 -20.417 -19.988  0.00  0.00    +0.222 C 
ATOM      8  C   UNL     1      35.913 -19.218 -20.909  0.00  0.00    +0.222 C 
ATOM      9  C   UNL     1      33.239 -21.744 -18.582  0.00  0.00    +0.313 C 
ATOM     10  N   UNL     1      36.575 -21.378 -17.290  0.00  0.00    -0.308 N 
ATOM     11  H   UNL     1      37.391 -20.898 -17.561  0.00  0.00    +0.149 HD
ENDROOT
BRANCH  10  12
ATOM     12  C   UNL     1      36.617 -22.164 -16.081  0.00  0.00    +0.066 C 
BRANCH  12  13
ATOM     13  C   UNL     1      38.045 -22.623 -15.819  0.00  0.00    -0.056 C 
BRANCH  13  15
ATOM     14  O   UNL     1      38.484 -25.718 -13.018  0.00  0.00    -0.358 OA
ATOM     15  N   UNL     1      38.048 -23.950 -15.205  0.00  0.00    +0.391 N 
ATOM     16  C   UNL     1      39.404 -24.322 -14.776  0.00  0.00    -0.045 C 
ATOM     17  C   UNL     1      37.127 -23.999 -14.062  0.00  0.00    -0.045 C 
ATOM     18  C   UNL     1      39.380 -25.704 -14.129  0.00  0.00    +0.119 C 
ATOM     19  C   UNL     1      37.157 -25.388 -13.431  0.00  0.00    +0.119 C 
ATOM     20  H   UNL     1      37.733 -24.619 -15.908  0.00  0.00    -0.079 HD
ENDBRANCH  13  15
ENDBRANCH  12  13
ENDBRANCH  10  12
BRANCH   9  21
ATOM     21  O   UNL     1      32.095 -22.410 -18.204  0.00  0.00    -0.400 OA
BRANCH  21  22
ATOM     22  C   UNL     1      31.953 -22.688 -16.819  0.00  0.00    +0.223 C 
BRANCH  22  23
ATOM     23  C   UNL     1      30.523 -22.378 -16.400  0.00  0.00    +0.049 C 
BRANCH  23  24
ATOM     24  C   UNL     1      30.276 -22.732 -14.936  0.00  0.00    +0.004 C 
ATOM     25  C   UNL     1      31.497 -22.443 -14.079  0.00  0.00    +0.000 C 
ENDBRANCH  23  24
ENDBRANCH  22  23
ENDBRANCH  21  22
ENDBRANCH   9  21
BRANCH   1  26
ATOM     26  C   UNL     1      33.718 -19.228 -22.120  0.00  0.00    +0.126 C 
BRANCH  26  29
ATOM     27  F   UNL     1      34.394 -17.114 -20.364  0.00  0.00    -0.204 F 
ATOM     28  F   UNL     1      33.604 -18.470 -24.843  0.00  0.00    -0.204 F 
ATOM     29  C   UNL     1      33.992 -17.826 -22.592  0.00  0.00    +0.053 C 
ATOM     30  C   UNL     1      34.320 -16.831 -21.671  0.00  0.00    +0.140 C 
ATOM     31  C   UNL     1      33.918 -17.520 -23.951  0.00  0.00    +0.140 C 
ATOM     32  C   UNL     1      34.574 -15.531 -22.109  0.00  0.00    +0.030 C 
ATOM     33  C   UNL     1      34.171 -16.221 -24.389  0.00  0.00    +0.030 C 
ATOM     34  C   UNL     1      34.499 -15.226 -23.468  0.00  0.00    +0.005 C 
ENDBRANCH  26  29
ENDBRANCH   1  26
TORSDOF 9
ENDMDL
MODEL 4
REMARK VINA RESULT:     -10.1      3.862      8.173
REMARK  Name = 16744441
REMARK  9 active torsions:
REMARK  status: ('A' for Active; 'I' for Inactive)
REMARK    1  A    between atoms: N_1  and  C_26
REMARK    2  A    between atoms: C_9  and  O_21
REMARK    3  A    between atoms: N_10  and  C_12
REMARK    4  A    between atoms: C_12  and  C_13
REMARK    5  A    between atoms: C_13  and  N_15
REMARK    6  A    between atoms: O_21  and  C_22
REMARK    7  A    between atoms: C_22  and  C_23
REMARK    8  A    between atoms: C_23  and  C_24
REMARK    9  A    between atoms: C_26  and  C_29
REMARK                            x       y       z     vdW  Elec       q    Type
REMARK                         _______ _______ _______ _____ _____    ______ ____
ROOT
ATOM      1  N   UNL     1      35.497 -22.914 -13.265  0.00  0.00    -0.256 N 
ATOM      2  N   UNL     1      32.797 -22.969 -16.242  0.00  0.00    -0.294 NA
ATOM      3  N   UNL     1      33.483 -23.666 -12.675  0.00  0.00    -0.240 NA
ATOM      4  N   UNL     1      35.095 -22.441 -15.613  0.00  0.00    -0.294 NA
ATOM      5  C   UNL     1      32.497 -23.376 -14.985  0.00  0.00    +0.217 C 
ATOM      6  C   UNL     1      33.484 -23.329 -14.005  0.00  0.00    +0.167 C 
ATOM      7  C   UNL     1      34.728 -22.859 -14.392  0.00  0.00    +0.222 C 
ATOM      8  C   UNL     1      34.706 -23.406 -12.260  0.00  0.00    +0.222 C 
ATOM      9  C   UNL     1      34.058 -22.533 -16.474  0.00  0.00    +0.313 C 
ATOM     10  N   UNL     1      31.224 -23.834 -14.686  0.00  0.00    -0.308 N 
ATOM     11  H   UNL     1      31.039 -24.123 -13.763  0.00  0.00    +0.149 HD
ENDROOT
BRANCH  10  12
ATOM     12  C   UNL     1      30.152 -23.911 -15.649  0.00  0.00    +0.066 C 
BRANCH  12  13
ATOM     13  C   UNL     1      28.859 -24.298 -14.946  0.00  0.00    -0.056 C 
BRANCH  13  15
ATOM     14  O   UNL     1      26.585 -21.293 -16.794  0.00  0.00    -0.358 OA
ATOM     15  N   UNL     1      27.730 -23.562 -15.514  0.00  0.00    +0.391 N 
ATOM     16  C   UNL     1      27.516 -22.299 -14.793  0.00  0.00    -0.045 C 
ATOM     17  C   UNL     1      27.947 -23.295 -16.942  0.00  0.00    -0.045 C 
ATOM     18  C   UNL     1      26.342 -21.544 -15.410  0.00  0.00    +0.119 C 
ATOM     19  C   UNL     1      26.764 -22.517 -17.509  0.00  0.00    +0.119 C 
ATOM     20  H   UNL     1      26.897 -24.141 -15.412  0.00  0.00    -0.079 HD
ENDBRANCH  13  15
ENDBRANCH  12  13
ENDBRANCH  10  12
BRANCH   9  21
ATOM     21  O   UNL     1      34.318 -22.125 -17.764  0.00  0.00    -0.400 OA
BRANCH  21  22
ATOM     22  C   UNL     1      35.596 -21.557 -18.002  0.00  0.00    +0.223 C 
BRANCH  22  23
ATOM     23  C   UNL     1      35.567 -20.823 -19.336  0.00  0.00    +0.049 C 
BRANCH  23  24
ATOM     24  C   UNL     1      34.139 -20.586 -19.818  0.00  0.00    +0.004 C 
ATOM     25  C   UNL     1      34.074 -19.456 -20.833  0.00  0.00    +0.000 C 
ENDBRANCH  23  24
ENDBRANCH  22  23
ENDBRANCH  21  22
ENDBRANCH   9  21
BRANCH   1  26
ATOM     26  C   UNL     1      36.885 -22.537 -13.145  0.00  0.00    +0.126 C 
BRANCH  26  29
ATOM     27  F   UNL     1      37.521 -24.735 -11.480  0.00  0.00    -0.204 F 
ATOM     28  F   UNL     1      38.116 -22.627 -15.691  0.00  0.00    -0.204 F 
ATOM     29  C   UNL     1      37.797 -23.654 -13.575  0.00  0.00    +0.053 C 
ATOM     30  C   UNL     1      38.068 -24.708 -12.703  0.00  0.00    +0.140 C 
ATOM     31  C   UNL     1      38.372 -23.636 -14.846  0.00  0.00    +0.140 C 
ATOM     32  C   UNL     1      38.914 -25.743 -13.101  0.00  0.00    +0.030 C 
ATOM     33  C   UNL     1      39.217 -24.670 -15.245  0.00  0.00    +0.030 C 
ATOM     34  C   UNL     1      39.489 -25.724 -14.372  0.00  0.00    +0.005 C 
ENDBRANCH  26  29
ENDBRANCH   1  26
TORSDOF 9
ENDMDL
MODEL 5
REMARK VINA RESULT:     -10.0      3.044      6.239
REMARK  Name = 16744441
REMARK  9 active torsions:
REMARK  status: ('A' for Active; 'I' for Inactive)
REMARK    1  A    between atoms: N_1  and  C_26
REMARK    2  A    between atoms: C_9  and  O_21
REMARK    3  A    between atoms: N_10  and  C_12
REMARK    4  A    between atoms: C_12  and  C_13
REMARK    5  A    between atoms: C_13  and  N_15
REMARK    6  A    between atoms: O_21  and  C_22
REMARK    7  A    between atoms: C_22  and  C_23
REMARK    8  A    between atoms: C_23  and  C_24
REMARK    9  A    between atoms: C_26  and  C_29
REMARK                            x       y       z     vdW  Elec       q    Type
REMARK                         _______ _______ _______ _____ _____    ______ ____
ROOT
ATOM      1  N   UNL     1      34.632 -22.149 -17.217  0.00  0.00    -0.256 N 
ATOM      2  N   UNL     1      34.366 -23.420 -13.413  0.00  0.00    -0.294 NA
ATOM      3  N   UNL     1      36.326 -21.523 -15.911  0.00  0.00    -0.240 NA
ATOM      4  N   UNL     1      33.310 -23.405 -15.613  0.00  0.00    -0.294 NA
ATOM      5  C   UNL     1      35.406 -22.671 -13.855  0.00  0.00    +0.217 C 
ATOM      6  C   UNL     1      35.430 -22.268 -15.186  0.00  0.00    +0.167 C 
ATOM      7  C   UNL     1      34.368 -22.668 -15.982  0.00  0.00    +0.222 C 
ATOM      8  C   UNL     1      35.819 -21.471 -17.126  0.00  0.00    +0.222 C 
ATOM      9  C   UNL     1      33.397 -23.735 -14.306  0.00  0.00    +0.313 C 
ATOM     10  N   UNL     1      36.428 -22.317 -12.989  0.00  0.00    -0.308 N 
ATOM     11  H   UNL     1      37.168 -21.773 -13.343  0.00  0.00    +0.149 HD
ENDROOT
BRANCH  10  12
ATOM     12  C   UNL     1      36.469 -22.699 -11.598  0.00  0.00    +0.066 C 
BRANCH  12  13
ATOM     13  C   UNL     1      37.260 -23.991 -11.445  0.00  0.00    -0.056 C 
BRANCH  13  15
ATOM     14  O   UNL     1      38.433 -26.713 -14.417  0.00  0.00    -0.358 OA
ATOM     15  N   UNL     1      37.427 -24.642 -12.744  0.00  0.00    +0.391 N 
ATOM     16  C   UNL     1      38.848 -24.710 -13.113  0.00  0.00    -0.045 C 
ATOM     17  C   UNL     1      36.846 -25.992 -12.729  0.00  0.00    -0.045 C 
ATOM     18  C   UNL     1      38.998 -25.403 -14.464  0.00  0.00    +0.119 C 
ATOM     19  C   UNL     1      37.044 -26.655 -14.089  0.00  0.00    +0.119 C 
ATOM     20  H   UNL     1      36.936 -24.082 -13.439  0.00  0.00    -0.079 HD
ENDBRANCH  13  15
ENDBRANCH  12  13
ENDBRANCH  10  12
BRANCH   9  21
ATOM     21  O   UNL     1      32.358 -24.493 -13.812  0.00  0.00    -0.400 OA
BRANCH  21  22
ATOM     22  C   UNL     1      31.190 -23.787 -13.425  0.00  0.00    +0.223 C 
BRANCH  22  23
ATOM     23  C   UNL     1      29.971 -24.641 -13.745  0.00  0.00    +0.049 C 
BRANCH  23  24
ATOM     24  C   UNL     1      29.375 -24.285 -15.104  0.00  0.00    +0.004 C 
ATOM     25  C   UNL     1      29.669 -22.842 -15.480  0.00  0.00    +0.000 C 
ENDBRANCH  23  24
ENDBRANCH  22  23
ENDBRANCH  21  22
ENDBRANCH   9  21
BRANCH   1  26
ATOM     26  C   UNL     1      33.826 -22.291 -18.405  0.00  0.00    +0.126 C 
BRANCH  26  29
ATOM     27  F   UNL     1      36.335 -21.697 -19.572  0.00  0.00    -0.204 F 
ATOM     28  F   UNL     1      31.751 -20.530 -19.180  0.00  0.00    -0.204 F 
ATOM     29  C   UNL     1      34.038 -21.141 -19.353  0.00  0.00    +0.053 C 
ATOM     30  C   UNL     1      35.302 -20.905 -19.891  0.00  0.00    +0.140 C 
ATOM     31  C   UNL     1      32.970 -20.310 -19.692  0.00  0.00    +0.140 C 
ATOM     32  C   UNL     1      35.499 -19.839 -20.769  0.00  0.00    +0.030 C 
ATOM     33  C   UNL     1      33.166 -19.244 -20.570  0.00  0.00    +0.030 C 
ATOM     34  C   UNL     1      34.430 -19.008 -21.108  0.00  0.00    +0.005 C 
ENDBRANCH  26  29
ENDBRANCH   1  26
TORSDOF 9
ENDMDL
MODEL 6
REMARK VINA RESULT:      -9.0      1.904      2.454
REMARK  Name = 16744441
REMARK  9 active torsions:
REMARK  status: ('A' for Active; 'I' for Inactive)
REMARK    1  A    between atoms: N_1  and  C_26
REMARK    2  A    between atoms: C_9  and  O_21
REMARK    3  A    between atoms: N_10  and  C_12
REMARK    4  A    between atoms: C_12  and  C_13
REMARK    5  A    between atoms: C_13  and  N_15
REMARK    6  A    between atoms: O_21  and  C_22
REMARK    7  A    between atoms: C_22  and  C_23
REMARK    8  A    between atoms: C_23  and  C_24
REMARK    9  A    between atoms: C_26  and  C_29
REMARK                            x       y       z     vdW  Elec       q    Type
REMARK                         _______ _______ _______ _____ _____    ______ ____
ROOT
ATOM      1  N   UNL     1      34.638 -20.737 -20.270  0.00  0.00    -0.256 N 
ATOM      2  N   UNL     1      34.876 -22.289 -16.570  0.00  0.00    -0.294 NA
ATOM      3  N   UNL     1      32.686 -21.386 -19.411  0.00  0.00    -0.240 NA
ATOM      4  N   UNL     1      36.116 -21.312 -18.431  0.00  0.00    -0.294 NA
ATOM      5  C   UNL     1      33.699 -22.174 -17.233  0.00  0.00    +0.217 C 
ATOM      6  C   UNL     1      33.694 -21.626 -18.511  0.00  0.00    +0.167 C 
ATOM      7  C   UNL     1      34.917 -21.229 -19.027  0.00  0.00    +0.222 C 
ATOM      8  C   UNL     1      33.285 -20.851 -20.455  0.00  0.00    +0.222 C 
ATOM      9  C   UNL     1      35.994 -21.857 -17.201  0.00  0.00    +0.313 C 
ATOM     10  N   UNL     1      32.521 -22.597 -16.638  0.00  0.00    -0.308 N 
ATOM     11  H   UNL     1      31.683 -22.499 -17.148  0.00  0.00    +0.149 HD
ENDROOT
BRANCH  10  12
ATOM     12  C   UNL     1      32.450 -23.173 -15.318  0.00  0.00    +0.066 C 
BRANCH  12  13
ATOM     13  C   UNL     1      31.249 -22.605 -14.575  0.00  0.00    -0.056 C 
BRANCH  13  15
ATOM     14  O   UNL     1      27.194 -23.103 -15.541  0.00  0.00    -0.358 OA
ATOM     15  N   UNL     1      30.021 -22.846 -15.332  0.00  0.00    +0.391 N 
ATOM     16  C   UNL     1      29.317 -24.030 -14.819  0.00  0.00    -0.045 C 
ATOM     17  C   UNL     1      29.138 -21.674 -15.280  0.00  0.00    -0.045 C 
ATOM     18  C   UNL     1      28.035 -24.254 -15.616  0.00  0.00    +0.119 C 
ATOM     19  C   UNL     1      27.860 -21.953 -16.066  0.00  0.00    +0.119 C 
ATOM     20  H   UNL     1      30.282 -23.017 -16.303  0.00  0.00    -0.079 HD
ENDBRANCH  13  15
ENDBRANCH  12  13
ENDBRANCH  10  12
BRANCH   9  21
ATOM     21  O   UNL     1      37.167 -21.997 -16.493  0.00  0.00    -0.400 OA
BRANCH  21  22
ATOM     22  C   UNL     1      37.153 -22.928 -15.423  0.00  0.00    +0.223 C 
BRANCH  22  23
ATOM     23  C   UNL     1      38.529 -23.571 -15.312  0.00  0.00    +0.049 C 
BRANCH  23  24
ATOM     24  C   UNL     1      38.480 -24.874 -14.521  0.00  0.00    +0.004 C 
ATOM     25  C   UNL     1      39.863 -25.288 -14.042  0.00  0.00    +0.000 C 
ENDBRANCH  23  24
ENDBRANCH  22  23
ENDBRANCH  21  22
ENDBRANCH   9  21
BRANCH   1  26
ATOM     26  C   UNL     1      35.580 -20.188 -21.215  0.00  0.00    +0.126 C 
BRANCH  26  29
ATOM     27  F   UNL     1      35.696 -17.721 -19.834  0.00  0.00    -0.204 F 
ATOM     28  F   UNL     1      34.439 -20.009 -23.799  0.00  0.00    -0.204 F 
ATOM     29  C   UNL     1      35.079 -18.896 -21.802  0.00  0.00    +0.053 C 
ATOM     30  C   UNL     1      35.167 -17.715 -21.065  0.00  0.00    +0.140 C 
ATOM     31  C   UNL     1      34.527 -18.879 -23.083  0.00  0.00    +0.140 C 
ATOM     32  C   UNL     1      34.703 -16.518 -21.609  0.00  0.00    +0.030 C 
ATOM     33  C   UNL     1      34.062 -17.682 -23.627  0.00  0.00    +0.030 C 
ATOM     34  C   UNL     1      34.150 -16.501 -22.890  0.00  0.00    +0.005 C 
ENDBRANCH  26  29
ENDBRANCH   1  26
TORSDOF 9
ENDMDL
MODEL 7
REMARK VINA RESULT:      -8.8      3.063      8.230
REMARK  Name = 16744441
REMARK  9 active torsions:
REMARK  status: ('A' for Active; 'I' for Inactive)
REMARK    1  A    between atoms: N_1  and  C_26
REMARK    2  A    between atoms: C_9  and  O_21
REMARK    3  A    between atoms: N_10  and  C_12
REMARK    4  A    between atoms: C_12  and  C_13
REMARK    5  A    between atoms: C_13  and  N_15
REMARK    6  A    between atoms: O_21  and  C_22
REMARK    7  A    between atoms: C_22  and  C_23
REMARK    8  A    between atoms: C_23  and  C_24
REMARK    9  A    between atoms: C_26  and  C_29
REMARK                            x       y       z     vdW  Elec       q    Type
REMARK                         _______ _______ _______ _____ _____    ______ ____
ROOT
ATOM      1  N   UNL     1      32.708 -22.589 -17.912  0.00  0.00    -0.256 N 
ATOM      2  N   UNL     1      35.906 -20.353 -18.877  0.00  0.00    -0.294 NA
ATOM      3  N   UNL     1      32.365 -21.153 -19.582  0.00  0.00    -0.240 NA
ATOM      4  N   UNL     1      35.033 -22.100 -17.412  0.00  0.00    -0.294 NA
ATOM      5  C   UNL     1      34.719 -20.236 -19.521  0.00  0.00    +0.217 C 
ATOM      6  C   UNL     1      33.656 -21.044 -19.133  0.00  0.00    +0.167 C 
ATOM      7  C   UNL     1      33.890 -21.930 -18.093  0.00  0.00    +0.222 C 
ATOM      8  C   UNL     1      31.822 -22.089 -18.831  0.00  0.00    +0.222 C 
ATOM      9  C   UNL     1      35.988 -21.264 -17.878  0.00  0.00    +0.313 C 
ATOM     10  N   UNL     1      34.575 -19.322 -20.553  0.00  0.00    -0.308 N 
ATOM     11  H   UNL     1      33.699 -19.263 -21.000  0.00  0.00    +0.149 HD
ENDROOT
BRANCH  10  12
ATOM     12  C   UNL     1      35.632 -18.453 -21.009  0.00  0.00    +0.066 C 
BRANCH  12  13
ATOM     13  C   UNL     1      35.507 -18.240 -22.512  0.00  0.00    -0.056 C 
BRANCH  13  15
ATOM     14  O   UNL     1      33.255 -14.738 -23.038  0.00  0.00    -0.358 OA
ATOM     15  N   UNL     1      35.143 -16.854 -22.802  0.00  0.00    +0.391 N 
ATOM     16  C   UNL     1      34.200 -16.788 -23.926  0.00  0.00    -0.045 C 
ATOM     17  C   UNL     1      34.560 -16.210 -21.617  0.00  0.00    -0.045 C 
ATOM     18  C   UNL     1      33.826 -15.334 -24.202  0.00  0.00    +0.119 C 
ATOM     19  C   UNL     1      34.177 -14.770 -21.947  0.00  0.00    +0.119 C 
ATOM     20  H   UNL     1      35.994 -16.356 -23.059  0.00  0.00    -0.079 HD
ENDBRANCH  13  15
ENDBRANCH  12  13
ENDBRANCH  10  12
BRANCH   9  21
ATOM     21  O   UNL     1      37.211 -21.347 -17.248  0.00  0.00    -0.400 OA
BRANCH  21  22
ATOM     22  C   UNL     1      37.186 -21.575 -15.848  0.00  0.00    +0.223 C 
BRANCH  22  23
ATOM     23  C   UNL     1      37.898 -22.888 -15.551  0.00  0.00    +0.049 C 
BRANCH  23  24
ATOM     24  C   UNL     1      37.203 -23.667 -14.439  0.00  0.00    +0.004 C 
ATOM     25  C   UNL     1      38.087 -24.783 -13.903  0.00  0.00    +0.000 C 
ENDBRANCH  23  24
ENDBRANCH  22  23
ENDBRANCH  21  22
ENDBRANCH   9  21
BRANCH   1  26
ATOM     26  C   UNL     1      32.434 -23.626 -16.947  0.00  0.00    +0.126 C 
BRANCH  26  29
ATOM     27  F   UNL     1      33.848 -22.963 -14.586  0.00  0.00    -0.204 F 
ATOM     28  F   UNL     1      29.649 -23.149 -16.792  0.00  0.00    -0.204 F 
ATOM     29  C   UNL     1      31.765 -23.069 -15.719  0.00  0.00    +0.053 C 
ATOM     30  C   UNL     1      32.523 -22.764 -14.589  0.00  0.00    +0.140 C 
ATOM     31  C   UNL     1      30.386 -22.859 -15.710  0.00  0.00    +0.140 C 
ATOM     32  C   UNL     1      31.903 -22.249 -13.451  0.00  0.00    +0.030 C 
ATOM     33  C   UNL     1      29.765 -22.344 -14.573  0.00  0.00    +0.030 C 
ATOM     34  C   UNL     1      30.524 -22.040 -13.442  0.00  0.00    +0.005 C 
ENDBRANCH  26  29
ENDBRANCH   1  26
TORSDOF 9
ENDMDL
MODEL 8
REMARK VINA RESULT:      -8.5      3.318      8.432
REMARK  Name = 16744441
REMARK  9 active torsions:
REMARK  status: ('A' for Active; 'I' for Inactive)
REMARK    1  A    between atoms: N_1  and  C_26
REMARK    2  A    between atoms: C_9  and  O_21
REMARK    3  A    between atoms: N_10  and  C_12
REMARK    4  A    between atoms: C_12  and  C_13
REMARK    5  A    between atoms: C_13  and  N_15
REMARK    6  A    between atoms: O_21  and  C_22
REMARK    7  A    between atoms: C_22  and  C_23
REMARK    8  A    between atoms: C_23  and  C_24
REMARK    9  A    between atoms: C_26  and  C_29
REMARK                            x       y       z     vdW  Elec       q    Type
REMARK                         _______ _______ _______ _____ _____    ______ ____
ROOT
ATOM      1  N   UNL     1      32.594 -22.853 -16.595  0.00  0.00    -0.256 N 
ATOM      2  N   UNL     1      36.054 -21.297 -17.925  0.00  0.00    -0.294 NA
ATOM      3  N   UNL     1      32.440 -21.784 -18.545  0.00  0.00    -0.240 NA
ATOM      4  N   UNL     1      34.962 -22.559 -16.144  0.00  0.00    -0.294 NA
ATOM      5  C   UNL     1      34.892 -21.176 -18.614  0.00  0.00    +0.217 C 
ATOM      6  C   UNL     1      33.734 -21.741 -18.091  0.00  0.00    +0.167 C 
ATOM      7  C   UNL     1      33.851 -22.401 -16.878  0.00  0.00    +0.222 C 
ATOM      8  C   UNL     1      31.781 -22.459 -17.625  0.00  0.00    +0.222 C 
ATOM      9  C   UNL     1      36.017 -21.971 -16.750  0.00  0.00    +0.313 C 
ATOM     10  N   UNL     1      34.867 -20.498 -19.822  0.00  0.00    -0.308 N 
ATOM     11  H   UNL     1      34.007 -20.429 -20.297  0.00  0.00    +0.149 HD
ENDROOT
BRANCH  10  12
ATOM     12  C   UNL     1      36.028 -19.888 -20.424  0.00  0.00    +0.066 C 
BRANCH  12  13
ATOM     13  C   UNL     1      35.775 -18.400 -20.629  0.00  0.00    -0.056 C 
BRANCH  13  15
ATOM     14  O   UNL     1      33.425 -17.428 -23.968  0.00  0.00    -0.358 OA
ATOM     15  N   UNL     1      35.361 -18.138 -22.006  0.00  0.00    +0.391 N 
ATOM     16  C   UNL     1      34.308 -19.075 -22.420  0.00  0.00    -0.045 C 
ATOM     17  C   UNL     1      34.891 -16.754 -22.155  0.00  0.00    -0.045 C 
ATOM     18  C   UNL     1      33.885 -18.775 -23.856  0.00  0.00    +0.119 C 
ATOM     19  C   UNL     1      34.453 -16.508 -23.596  0.00  0.00    +0.119 C 
ATOM     20  H   UNL     1      36.174 -18.274 -22.607  0.00  0.00    -0.079 HD
ENDBRANCH  13  15
ENDBRANCH  12  13
ENDBRANCH  10  12
BRANCH   9  21
ATOM     21  O   UNL     1      37.217 -22.066 -16.082  0.00  0.00    -0.400 OA
BRANCH  21  22
ATOM     22  C   UNL     1      37.287 -23.029 -15.042  0.00  0.00    +0.223 C 
BRANCH  22  23
ATOM     23  C   UNL     1      38.587 -23.809 -15.181  0.00  0.00    +0.049 C 
BRANCH  23  24
ATOM     24  C   UNL     1      38.891 -24.626 -13.928  0.00  0.00    +0.004 C 
ATOM     25  C   UNL     1      40.029 -25.606 -14.165  0.00  0.00    +0.000 C 
ENDBRANCH  23  24
ENDBRANCH  22  23
ENDBRANCH  21  22
ENDBRANCH   9  21
BRANCH   1  26
ATOM     26  C   UNL     1      32.188 -23.611 -15.436  0.00  0.00    +0.126 C 
BRANCH  26  29
ATOM     27  F   UNL     1      30.198 -25.515 -16.089  0.00  0.00    -0.204 F 
ATOM     28  F   UNL     1      31.189 -21.293 -14.159  0.00  0.00    -0.204 F 
ATOM     29  C   UNL     1      30.729 -23.409 -15.131  0.00  0.00    +0.053 C 
ATOM     30  C   UNL     1      29.800 -24.389 -15.481  0.00  0.00    +0.140 C 
ATOM     31  C   UNL     1      30.303 -22.240 -14.499  0.00  0.00    +0.140 C 
ATOM     32  C   UNL     1      28.447 -24.201 -15.199  0.00  0.00    +0.030 C 
ATOM     33  C   UNL     1      28.951 -22.052 -14.217  0.00  0.00    +0.030 C 
ATOM     34  C   UNL     1      28.023 -23.032 -14.567  0.00  0.00    +0.005 C 
ENDBRANCH  26  29
ENDBRANCH   1  26
TORSDOF 9
ENDMDL
