MODEL 1
REMARK VINA RESULT:     -13.4      0.000      0.000
REMARK  Name = 11697676
REMARK  7 active torsions:
REMARK  status: ('A' for Active; 'I' for Inactive)
REMARK    1  A    between atoms: N_1  and  C_18
REMARK    2  A    between atoms: N_2  and  C_8
REMARK    3  A    between atoms: C_18  and  C_19
REMARK    4  A    between atoms: C_19  and  C_20
REMARK    5  A    between atoms: C_20  and  C_21
REMARK    6  A    between atoms: C_21  and  O_22
REMARK    7  A    between atoms: O_22  and  C_28
REMARK                            x       y       z     vdW  Elec       q    Type
REMARK                         _______ _______ _______ _____ _____    ______ ____
ROOT
ATOM      1  N   UNL     1      35.031 -21.111 -18.123  0.00  0.00    +0.389 N 
ATOM      2  N   UNL     1      35.551 -22.592 -15.736  0.00  0.00    -0.312 N 
ATOM      3  C   UNL     1      34.267 -22.330 -17.824  0.00  0.00    -0.055 C 
ATOM      4  C   UNL     1      36.401 -21.243 -17.614  0.00  0.00    -0.055 C 
ATOM      5  C   UNL     1      34.202 -22.580 -16.315  0.00  0.00    +0.068 C 
ATOM      6  C   UNL     1      36.407 -21.458 -16.098  0.00  0.00    +0.068 C 
ATOM      7  H   UNL     1      34.582 -20.320 -17.661  0.00  0.00    -0.080 HD
ENDROOT
BRANCH   2   8
ATOM      8  C   UNL     1      35.733 -23.233 -14.506  0.00  0.00    +0.048 C 
ATOM      9  C   UNL     1      36.938 -23.904 -14.157  0.00  0.00    +0.013 C 
ATOM     10  C   UNL     1      34.680 -23.219 -13.566  0.00  0.00    +0.015 C 
ATOM     11  C   UNL     1      37.069 -24.537 -12.899  0.00  0.00    +0.001 C 
ATOM     12  C   UNL     1      38.012 -23.944 -15.061  0.00  0.00    +0.001 C 
ATOM     13  C   UNL     1      34.808 -23.842 -12.327  0.00  0.00    +0.001 C 
ATOM     14  C   UNL     1      35.994 -24.496 -11.995  0.00  0.00    +0.000 C 
ATOM     15  C   UNL     1      38.270 -25.192 -12.580  0.00  0.00    +0.000 C 
ATOM     16  C   UNL     1      39.198 -24.599 -14.728  0.00  0.00    +0.000 C 
ATOM     17  C   UNL     1      39.327 -25.222 -13.490  0.00  0.00    +0.000 C 
ENDBRANCH   2   8
BRANCH   1  18
ATOM     18  C   UNL     1      35.041 -20.853 -19.562  0.00  0.00    -0.077 C 
BRANCH  18  19
ATOM     19  C   UNL     1      33.768 -20.117 -19.978  0.00  0.00    -0.019 C 
BRANCH  19  20
ATOM     20  C   UNL     1      33.995 -19.294 -21.244  0.00  0.00    +0.045 C 
BRANCH  20  21
ATOM     21  C   UNL     1      35.359 -18.616 -21.239  0.00  0.00    +0.208 C 
BRANCH  21  22
ATOM     22  O   UNL     1      35.278 -17.375 -20.553  0.00  0.00    -0.452 OA
BRANCH  22  28
ATOM     23  O   UNL     1      31.605 -11.442 -20.341  0.00  0.00    -0.275 OA
ATOM     24  N   UNL     1      32.861 -13.362 -20.453  0.00  0.00    -0.263 N 
ATOM     25  N   UNL     1      34.081 -15.387 -20.515  0.00  0.00    -0.357 NA
ATOM     26  C   UNL     1      33.640 -14.205 -22.577  0.00  0.00    +0.090 C 
ATOM     27  C   UNL     1      33.114 -12.973 -23.249  0.00  0.00    +0.022 C 
ATOM     28  C   UNL     1      34.735 -16.322 -21.242  0.00  0.00    +0.278 C 
ATOM     29  C   UNL     1      33.536 -14.350 -21.194  0.00  0.00    +0.170 C 
ATOM     30  C   UNL     1      31.905 -12.427 -22.506  0.00  0.00    +0.086 C 
ATOM     31  C   UNL     1      34.335 -15.185 -23.288  0.00  0.00    -0.012 C 
ATOM     32  C   UNL     1      34.885 -16.268 -22.616  0.00  0.00    +0.068 C 
ATOM     33  C   UNL     1      32.128 -12.332 -21.011  0.00  0.00    +0.228 C 
ATOM     34  H   UNL     1      32.914 -13.407 -19.471  0.00  0.00    +0.157 HD
ENDBRANCH  22  28
ENDBRANCH  21  22
ENDBRANCH  20  21
ENDBRANCH  19  20
ENDBRANCH  18  19
ENDBRANCH   1  18
TORSDOF 7
ENDMDL
MODEL 2
REMARK VINA RESULT:     -13.3      3.457     10.570
REMARK  Name = 11697676
REMARK  7 active torsions:
REMARK  status: ('A' for Active; 'I' for Inactive)
REMARK    1  A    between atoms: N_1  and  C_18
REMARK    2  A    between atoms: N_2  and  C_8
REMARK    3  A    between atoms: C_18  and  C_19
REMARK    4  A    between atoms: C_19  and  C_20
REMARK    5  A    between atoms: C_20  and  C_21
REMARK    6  A    between atoms: C_21  and  O_22
REMARK    7  A    between atoms: O_22  and  C_28
REMARK                            x       y       z     vdW  Elec       q    Type
REMARK                         _______ _______ _______ _____ _____    ______ ____
ROOT
ATOM      1  N   UNL     1      35.273 -20.524 -20.058  0.00  0.00    +0.389 N 
ATOM      2  N   UNL     1      34.671 -18.211 -21.623  0.00  0.00    -0.312 N 
ATOM      3  C   UNL     1      33.880 -20.100 -20.252  0.00  0.00    -0.055 C 
ATOM      4  C   UNL     1      36.151 -19.348 -20.015  0.00  0.00    -0.055 C 
ATOM      5  C   UNL     1      33.719 -19.326 -21.563  0.00  0.00    +0.068 C 
ATOM      6  C   UNL     1      36.064 -18.549 -21.318  0.00  0.00    +0.068 C 
ATOM      7  H   UNL     1      35.550 -21.113 -20.843  0.00  0.00    -0.080 HD
ENDROOT
BRANCH   2   8
ATOM      8  C   UNL     1      34.388 -17.151 -22.492  0.00  0.00    +0.048 C 
ATOM      9  C   UNL     1      34.141 -15.826 -22.037  0.00  0.00    +0.013 C 
ATOM     10  C   UNL     1      34.344 -17.400 -23.881  0.00  0.00    +0.015 C 
ATOM     11  C   UNL     1      33.859 -14.791 -22.960  0.00  0.00    +0.001 C 
ATOM     12  C   UNL     1      34.174 -15.532 -20.664  0.00  0.00    +0.001 C 
ATOM     13  C   UNL     1      34.068 -16.381 -24.790  0.00  0.00    +0.001 C 
ATOM     14  C   UNL     1      33.828 -15.086 -24.333  0.00  0.00    +0.000 C 
ATOM     15  C   UNL     1      33.619 -13.493 -22.483  0.00  0.00    +0.000 C 
ATOM     16  C   UNL     1      33.933 -14.236 -20.208  0.00  0.00    +0.000 C 
ATOM     17  C   UNL     1      33.656 -13.218 -21.116  0.00  0.00    +0.000 C 
ENDBRANCH   2   8
BRANCH   1  18
ATOM     18  C   UNL     1      35.404 -21.308 -18.831  0.00  0.00    -0.077 C 
BRANCH  18  19
ATOM     19  C   UNL     1      36.409 -20.650 -17.886  0.00  0.00    -0.019 C 
BRANCH  19  20
ATOM     20  C   UNL     1      36.877 -21.628 -16.810  0.00  0.00    +0.045 C 
BRANCH  20  21
ATOM     21  C   UNL     1      35.807 -21.851 -15.749  0.00  0.00    +0.208 C 
BRANCH  21  22
ATOM     22  O   UNL     1      35.169 -23.102 -15.964  0.00  0.00    -0.452 OA
BRANCH  22  28
ATOM     23  O   UNL     1      28.342 -22.012 -16.932  0.00  0.00    -0.275 OA
ATOM     24  N   UNL     1      30.574 -22.437 -16.593  0.00  0.00    -0.263 N 
ATOM     25  N   UNL     1      32.891 -22.778 -16.265  0.00  0.00    -0.357 NA
ATOM     26  C   UNL     1      31.335 -23.489 -14.558  0.00  0.00    +0.090 C 
ATOM     27  C   UNL     1      29.910 -23.699 -14.144  0.00  0.00    +0.022 C 
ATOM     28  C   UNL     1      33.893 -23.237 -15.482  0.00  0.00    +0.278 C 
ATOM     29  C   UNL     1      31.630 -22.901 -15.787  0.00  0.00    +0.170 C 
ATOM     30  C   UNL     1      29.017 -22.606 -14.709  0.00  0.00    +0.086 C 
ATOM     31  C   UNL     1      32.397 -23.963 -13.787  0.00  0.00    -0.012 C 
ATOM     32  C   UNL     1      33.701 -23.829 -14.247  0.00  0.00    +0.068 C 
ATOM     33  C   UNL     1      29.257 -22.356 -16.183  0.00  0.00    +0.228 C 
ATOM     34  H   UNL     1      30.787 -22.152 -17.511  0.00  0.00    +0.157 HD
ENDBRANCH  22  28
ENDBRANCH  21  22
ENDBRANCH  20  21
ENDBRANCH  19  20
ENDBRANCH  18  19
ENDBRANCH   1  18
TORSDOF 7
ENDMDL
MODEL 3
REMARK VINA RESULT:     -13.2      4.264     13.635
REMARK  Name = 11697676
REMARK  7 active torsions:
REMARK  status: ('A' for Active; 'I' for Inactive)
REMARK    1  A    between atoms: N_1  and  C_18
REMARK    2  A    between atoms: N_2  and  C_8
REMARK    3  A    between atoms: C_18  and  C_19
REMARK    4  A    between atoms: C_19  and  C_20
REMARK    5  A    between atoms: C_20  and  C_21
REMARK    6  A    between atoms: C_21  and  O_22
REMARK    7  A    between atoms: O_22  and  C_28
REMARK                            x       y       z     vdW  Elec       q    Type
REMARK                         _______ _______ _______ _____ _____    ______ ____
ROOT
ATOM      1  N   UNL     1      31.743 -12.368 -21.671  0.00  0.00    +0.389 N 
ATOM      2  N   UNL     1      31.595  -9.606 -22.383  0.00  0.00    -0.312 N 
ATOM      3  C   UNL     1      31.092 -11.405 -20.774  0.00  0.00    -0.055 C 
ATOM      4  C   UNL     1      32.857 -11.721 -22.376  0.00  0.00    -0.055 C 
ATOM      5  C   UNL     1      30.542 -10.211 -21.558  0.00  0.00    +0.068 C 
ATOM      6  C   UNL     1      32.365 -10.537 -23.212  0.00  0.00    +0.068 C 
ATOM      7  H   UNL     1      31.062 -12.692 -22.358  0.00  0.00    -0.080 HD
ENDROOT
BRANCH   2   8
ATOM      8  C   UNL     1      31.421  -8.283 -22.803  0.00  0.00    +0.048 C 
ATOM      9  C   UNL     1      31.591  -7.170 -21.933  0.00  0.00    +0.013 C 
ATOM     10  C   UNL     1      31.063  -8.033 -24.146  0.00  0.00    +0.015 C 
ATOM     11  C   UNL     1      31.402  -5.851 -22.410  0.00  0.00    +0.001 C 
ATOM     12  C   UNL     1      31.946  -7.370 -20.589  0.00  0.00    +0.001 C 
ATOM     13  C   UNL     1      30.879  -6.735 -24.615  0.00  0.00    +0.001 C 
ATOM     14  C   UNL     1      31.048  -5.651 -23.754  0.00  0.00    +0.000 C 
ATOM     15  C   UNL     1      31.576  -4.771 -21.530  0.00  0.00    +0.000 C 
ATOM     16  C   UNL     1      32.114  -6.285 -19.728  0.00  0.00    +0.000 C 
ATOM     17  C   UNL     1      31.929  -4.988 -20.197  0.00  0.00    +0.000 C 
ENDBRANCH   2   8
BRANCH   1  18
ATOM     18  C   UNL     1      32.217 -13.530 -20.919  0.00  0.00    -0.077 C 
BRANCH  18  19
ATOM     19  C   UNL     1      33.722 -13.708 -21.111  0.00  0.00    -0.019 C 
BRANCH  19  20
ATOM     20  C   UNL     1      34.087 -15.182 -21.279  0.00  0.00    +0.045 C 
BRANCH  20  21
ATOM     21  C   UNL     1      34.603 -15.477 -22.681  0.00  0.00    +0.208 C 
BRANCH  21  22
ATOM     22  O   UNL     1      34.301 -16.820 -23.033  0.00  0.00    -0.452 OA
BRANCH  22  28
ATOM     23  O   UNL     1      32.417 -22.121 -18.899  0.00  0.00    -0.275 OA
ATOM     24  N   UNL     1      33.091 -20.417 -20.284  0.00  0.00    -0.263 N 
ATOM     25  N   UNL     1      33.713 -18.602 -21.668  0.00  0.00    -0.357 NA
ATOM     26  C   UNL     1      35.408 -19.747 -20.380  0.00  0.00    +0.090 C 
ATOM     27  C   UNL     1      35.769 -20.899 -19.492  0.00  0.00    +0.022 C 
ATOM     28  C   UNL     1      34.685 -17.793 -22.147  0.00  0.00    +0.278 C 
ATOM     29  C   UNL     1      34.087 -19.558 -20.786  0.00  0.00    +0.170 C 
ATOM     30  C   UNL     1      34.620 -21.239 -18.556  0.00  0.00    +0.086 C 
ATOM     31  C   UNL     1      36.382 -18.899 -20.909  0.00  0.00    -0.012 C 
ATOM     32  C   UNL     1      36.020 -17.898 -21.801  0.00  0.00    +0.068 C 
ATOM     33  C   UNL     1      33.289 -21.335 -19.271  0.00  0.00    +0.228 C 
ATOM     34  H   UNL     1      32.192 -20.359 -20.682  0.00  0.00    +0.157 HD
ENDBRANCH  22  28
ENDBRANCH  21  22
ENDBRANCH  20  21
ENDBRANCH  19  20
ENDBRANCH  18  19
ENDBRANCH   1  18
TORSDOF 7
ENDMDL
MODEL 4
REMARK VINA RESULT:     -13.2      2.239      3.951
REMARK  Name = 11697676
REMARK  7 active torsions:
REMARK  status: ('A' for Active; 'I' for Inactive)
REMARK    1  A    between atoms: N_1  and  C_18
REMARK    2  A    between atoms: N_2  and  C_8
REMARK    3  A    between atoms: C_18  and  C_19
REMARK    4  A    between atoms: C_19  and  C_20
REMARK    5  A    between atoms: C_20  and  C_21
REMARK    6  A    between atoms: C_21  and  O_22
REMARK    7  A    between atoms: O_22  and  C_28
REMARK                            x       y       z     vdW  Elec       q    Type
REMARK                         _______ _______ _______ _____ _____    ______ ____
ROOT
ATOM      1  N   UNL     1      35.092 -21.603 -19.005  0.00  0.00    +0.389 N 
ATOM      2  N   UNL     1      33.678 -22.497 -16.690  0.00  0.00    -0.312 N 
ATOM      3  C   UNL     1      35.551 -21.224 -17.663  0.00  0.00    -0.055 C 
ATOM      4  C   UNL     1      33.628 -21.706 -19.022  0.00  0.00    -0.055 C 
ATOM      5  C   UNL     1      35.126 -22.264 -16.624  0.00  0.00    +0.068 C 
ATOM      6  C   UNL     1      33.139 -22.761 -18.027  0.00  0.00    +0.068 C 
ATOM      7  H   UNL     1      35.489 -22.512 -19.245  0.00  0.00    -0.080 HD
ENDROOT
BRANCH   2   8
ATOM      8  C   UNL     1      33.049 -23.045 -15.567  0.00  0.00    +0.048 C 
ATOM      9  C   UNL     1      31.637 -23.026 -15.389  0.00  0.00    +0.013 C 
ATOM     10  C   UNL     1      33.841 -23.645 -14.564  0.00  0.00    +0.015 C 
ATOM     11  C   UNL     1      31.051 -23.595 -14.234  0.00  0.00    +0.001 C 
ATOM     12  C   UNL     1      30.810 -22.440 -16.361  0.00  0.00    +0.001 C 
ATOM     13  C   UNL     1      33.264 -24.205 -13.427  0.00  0.00    +0.001 C 
ATOM     14  C   UNL     1      31.880 -24.181 -13.263  0.00  0.00    +0.000 C 
ATOM     15  C   UNL     1      29.656 -23.562 -14.084  0.00  0.00    +0.000 C 
ATOM     16  C   UNL     1      29.424 -22.416 -16.196  0.00  0.00    +0.000 C 
ATOM     17  C   UNL     1      28.848 -22.975 -15.059  0.00  0.00    +0.000 C 
ENDBRANCH   2   8
BRANCH   1  18
ATOM     18  C   UNL     1      35.550 -20.630 -19.997  0.00  0.00    -0.077 C 
BRANCH  18  19
ATOM     19  C   UNL     1      34.374 -19.799 -20.507  0.00  0.00    -0.019 C 
BRANCH  19  20
ATOM     20  C   UNL     1      34.755 -19.014 -21.761  0.00  0.00    +0.045 C 
BRANCH  20  21
ATOM     21  C   UNL     1      35.679 -17.848 -21.435  0.00  0.00    +0.208 C 
BRANCH  21  22
ATOM     22  O   UNL     1      35.000 -16.909 -20.614  0.00  0.00    -0.452 OA
BRANCH  22  28
ATOM     23  O   UNL     1      31.356 -10.982 -20.052  0.00  0.00    -0.275 OA
ATOM     24  N   UNL     1      32.603 -12.898 -20.277  0.00  0.00    -0.263 N 
ATOM     25  N   UNL     1      33.814 -14.921 -20.459  0.00  0.00    -0.357 NA
ATOM     26  C   UNL     1      33.388 -13.612 -22.445  0.00  0.00    +0.090 C 
ATOM     27  C   UNL     1      32.871 -12.337 -23.042  0.00  0.00    +0.022 C 
ATOM     28  C   UNL     1      34.466 -15.812 -21.239  0.00  0.00    +0.278 C 
ATOM     29  C   UNL     1      33.277 -13.842 -21.074  0.00  0.00    +0.170 C 
ATOM     30  C   UNL     1      31.661 -11.833 -22.273  0.00  0.00    +0.086 C 
ATOM     31  C   UNL     1      34.081 -14.549 -23.212  0.00  0.00    -0.012 C 
ATOM     32  C   UNL     1      34.623 -15.675 -22.606  0.00  0.00    +0.068 C 
ATOM     33  C   UNL     1      31.878 -11.832 -20.774  0.00  0.00    +0.228 C 
ATOM     34  H   UNL     1      32.651 -13.004 -19.299  0.00  0.00    +0.157 HD
ENDBRANCH  22  28
ENDBRANCH  21  22
ENDBRANCH  20  21
ENDBRANCH  19  20
ENDBRANCH  18  19
ENDBRANCH   1  18
TORSDOF 7
ENDMDL
MODEL 5
REMARK VINA RESULT:     -13.1      3.160     11.414
REMARK  Name = 11697676
REMARK  7 active torsions:
REMARK  status: ('A' for Active; 'I' for Inactive)
REMARK    1  A    between atoms: N_1  and  C_18
REMARK    2  A    between atoms: N_2  and  C_8
REMARK    3  A    between atoms: C_18  and  C_19
REMARK    4  A    between atoms: C_19  and  C_20
REMARK    5  A    between atoms: C_20  and  C_21
REMARK    6  A    between atoms: C_21  and  O_22
REMARK    7  A    between atoms: O_22  and  C_28
REMARK                            x       y       z     vdW  Elec       q    Type
REMARK                         _______ _______ _______ _____ _____    ______ ____
ROOT
ATOM      1  N   UNL     1      35.237 -20.151 -20.351  0.00  0.00    +0.389 N 
ATOM      2  N   UNL     1      34.560 -17.849 -21.900  0.00  0.00    -0.312 N 
ATOM      3  C   UNL     1      33.830 -19.809 -20.596  0.00  0.00    -0.055 C 
ATOM      4  C   UNL     1      36.039 -18.925 -20.251  0.00  0.00    -0.055 C 
ATOM      5  C   UNL     1      33.676 -19.020 -21.899  0.00  0.00    +0.068 C 
ATOM      6  C   UNL     1      35.957 -18.108 -21.543  0.00  0.00    +0.068 C 
ATOM      7  H   UNL     1      35.581 -20.708 -21.134  0.00  0.00    -0.080 HD
ENDROOT
BRANCH   2   8
ATOM      8  C   UNL     1      34.248 -16.791 -22.762  0.00  0.00    +0.048 C 
ATOM      9  C   UNL     1      34.027 -15.463 -22.304  0.00  0.00    +0.013 C 
ATOM     10  C   UNL     1      34.147 -17.046 -24.147  0.00  0.00    +0.015 C 
ATOM     11  C   UNL     1      33.714 -14.430 -23.219  0.00  0.00    +0.001 C 
ATOM     12  C   UNL     1      34.116 -15.163 -20.935  0.00  0.00    +0.001 C 
ATOM     13  C   UNL     1      33.841 -16.030 -25.049  0.00  0.00    +0.001 C 
ATOM     14  C   UNL     1      33.626 -14.731 -24.589  0.00  0.00    +0.000 C 
ATOM     15  C   UNL     1      33.501 -13.128 -22.740  0.00  0.00    +0.000 C 
ATOM     16  C   UNL     1      33.901 -13.863 -20.475  0.00  0.00    +0.000 C 
ATOM     17  C   UNL     1      33.593 -12.848 -21.376  0.00  0.00    +0.000 C 
ENDBRANCH   2   8
BRANCH   1  18
ATOM     18  C   UNL     1      35.366 -20.950 -19.133  0.00  0.00    -0.077 C 
BRANCH  18  19
ATOM     19  C   UNL     1      34.346 -22.087 -19.133  0.00  0.00    -0.019 C 
BRANCH  19  20
ATOM     20  C   UNL     1      33.100 -21.712 -18.333  0.00  0.00    +0.045 C 
BRANCH  20  21
ATOM     21  C   UNL     1      33.014 -22.491 -17.027  0.00  0.00    +0.208 C 
BRANCH  21  22
ATOM     22  O   UNL     1      34.165 -23.311 -16.878  0.00  0.00    -0.452 OA
BRANCH  22  28
ATOM     23  O   UNL     1      34.875 -24.801 -10.096  0.00  0.00    -0.275 OA
ATOM     24  N   UNL     1      34.710 -24.325 -12.337  0.00  0.00    -0.263 N 
ATOM     25  N   UNL     1      34.445 -23.806 -14.629  0.00  0.00    -0.357 NA
ATOM     26  C   UNL     1      36.311 -22.871 -13.410  0.00  0.00    +0.090 C 
ATOM     27  C   UNL     1      37.112 -22.833 -12.144  0.00  0.00    +0.022 C 
ATOM     28  C   UNL     1      34.891 -23.154 -15.726  0.00  0.00    +0.278 C 
ATOM     29  C   UNL     1      35.154 -23.646 -13.487  0.00  0.00    +0.170 C 
ATOM     30  C   UNL     1      36.211 -22.993 -10.930  0.00  0.00    +0.086 C 
ATOM     31  C   UNL     1      36.746 -22.227 -14.569  0.00  0.00    -0.012 C 
ATOM     32  C   UNL     1      36.022 -22.359 -15.748  0.00  0.00    +0.068 C 
ATOM     33  C   UNL     1      35.236 -24.143 -11.072  0.00  0.00    +0.228 C 
ATOM     34  H   UNL     1      33.976 -24.973 -12.440  0.00  0.00    +0.157 HD
ENDBRANCH  22  28
ENDBRANCH  21  22
ENDBRANCH  20  21
ENDBRANCH  19  20
ENDBRANCH  18  19
ENDBRANCH   1  18
TORSDOF 7
ENDMDL
MODEL 6
REMARK VINA RESULT:     -13.1      3.102     11.772
REMARK  Name = 11697676
REMARK  7 active torsions:
REMARK  status: ('A' for Active; 'I' for Inactive)
REMARK    1  A    between atoms: N_1  and  C_18
REMARK    2  A    between atoms: N_2  and  C_8
REMARK    3  A    between atoms: C_18  and  C_19
REMARK    4  A    between atoms: C_19  and  C_20
REMARK    5  A    between atoms: C_20  and  C_21
REMARK    6  A    between atoms: C_21  and  O_22
REMARK    7  A    between atoms: O_22  and  C_28
REMARK                            x       y       z     vdW  Elec       q    Type
REMARK                         _______ _______ _______ _____ _____    ______ ____
ROOT
ATOM      1  N   UNL     1      35.469 -20.069 -20.451  0.00  0.00    +0.389 N 
ATOM      2  N   UNL     1      34.646 -17.781 -21.949  0.00  0.00    -0.312 N 
ATOM      3  C   UNL     1      34.042 -19.774 -20.631  0.00  0.00    -0.055 C 
ATOM      4  C   UNL     1      36.232 -18.817 -20.375  0.00  0.00    -0.055 C 
ATOM      5  C   UNL     1      33.804 -18.983 -21.920  0.00  0.00    +0.068 C 
ATOM      6  C   UNL     1      36.066 -17.994 -21.655  0.00  0.00    +0.068 C 
ATOM      7  H   UNL     1      35.798 -20.608 -21.252  0.00  0.00    -0.080 HD
ENDROOT
BRANCH   2   8
ATOM      8  C   UNL     1      34.261 -16.729 -22.789  0.00  0.00    +0.048 C 
ATOM      9  C   UNL     1      34.000 -15.416 -22.308  0.00  0.00    +0.013 C 
ATOM     10  C   UNL     1      34.124 -16.974 -24.172  0.00  0.00    +0.015 C 
ATOM     11  C   UNL     1      33.613 -14.389 -23.201  0.00  0.00    +0.001 C 
ATOM     12  C   UNL     1      34.123 -15.126 -20.939  0.00  0.00    +0.001 C 
ATOM     13  C   UNL     1      33.744 -15.963 -25.051  0.00  0.00    +0.001 C 
ATOM     14  C   UNL     1      33.491 -14.679 -24.570  0.00  0.00    +0.000 C 
ATOM     15  C   UNL     1      33.362 -13.101 -22.699  0.00  0.00    +0.000 C 
ATOM     16  C   UNL     1      33.870 -13.841 -20.458  0.00  0.00    +0.000 C 
ATOM     17  C   UNL     1      33.489 -12.831 -21.336  0.00  0.00    +0.000 C 
ENDBRANCH   2   8
BRANCH   1  18
ATOM     18  C   UNL     1      35.678 -20.871 -19.245  0.00  0.00    -0.077 C 
BRANCH  18  19
ATOM     19  C   UNL     1      34.542 -21.877 -19.074  0.00  0.00    -0.019 C 
BRANCH  19  20
ATOM     20  C   UNL     1      34.131 -22.002 -17.608  0.00  0.00    +0.045 C 
BRANCH  20  21
ATOM     21  C   UNL     1      33.113 -23.116 -17.401  0.00  0.00    +0.208 C 
BRANCH  21  22
ATOM     22  O   UNL     1      32.654 -23.106 -16.057  0.00  0.00    -0.452 OA
BRANCH  22  28
ATOM     23  O   UNL     1      38.561 -26.486 -14.505  0.00  0.00    -0.275 OA
ATOM     24  N   UNL     1      36.639 -25.319 -14.975  0.00  0.00    -0.263 N 
ATOM     25  N   UNL     1      34.625 -24.200 -15.510  0.00  0.00    -0.357 NA
ATOM     26  C   UNL     1      35.357 -24.289 -13.208  0.00  0.00    +0.090 C 
ATOM     27  C   UNL     1      36.431 -24.655 -12.228  0.00  0.00    +0.022 C 
ATOM     28  C   UNL     1      33.549 -23.495 -15.095  0.00  0.00    +0.278 C 
ATOM     29  C   UNL     1      35.507 -24.594 -14.561  0.00  0.00    +0.170 C 
ATOM     30  C   UNL     1      37.140 -25.930 -12.656  0.00  0.00    +0.086 C 
ATOM     31  C   UNL     1      34.239 -23.548 -12.824  0.00  0.00    -0.012 C 
ATOM     32  C   UNL     1      33.311 -23.150 -13.777  0.00  0.00    +0.068 C 
ATOM     33  C   UNL     1      37.542 -25.916 -14.116  0.00  0.00    +0.228 C 
ATOM     34  H   UNL     1      36.799 -25.408 -15.943  0.00  0.00    +0.157 HD
ENDBRANCH  22  28
ENDBRANCH  21  22
ENDBRANCH  20  21
ENDBRANCH  19  20
ENDBRANCH  18  19
ENDBRANCH   1  18
TORSDOF 7
ENDMDL
MODEL 7
REMARK VINA RESULT:     -13.0      4.282     13.765
REMARK  Name = 11697676
REMARK  7 active torsions:
REMARK  status: ('A' for Active; 'I' for Inactive)
REMARK    1  A    between atoms: N_1  and  C_18
REMARK    2  A    between atoms: N_2  and  C_8
REMARK    3  A    between atoms: C_18  and  C_19
REMARK    4  A    between atoms: C_19  and  C_20
REMARK    5  A    between atoms: C_20  and  C_21
REMARK    6  A    between atoms: C_21  and  O_22
REMARK    7  A    between atoms: O_22  and  C_28
REMARK                            x       y       z     vdW  Elec       q    Type
REMARK                         _______ _______ _______ _____ _____    ______ ____
ROOT
ATOM      1  N   UNL     1      32.086 -12.100 -22.861  0.00  0.00    +0.389 N 
ATOM      2  N   UNL     1      31.829  -9.419 -21.909  0.00  0.00    -0.312 N 
ATOM      3  C   UNL     1      31.399 -11.826 -21.592  0.00  0.00    -0.055 C 
ATOM      4  C   UNL     1      33.173 -11.133 -23.060  0.00  0.00    -0.055 C 
ATOM      5  C   UNL     1      30.801 -10.416 -21.585  0.00  0.00    +0.068 C 
ATOM      6  C   UNL     1      32.633  -9.701 -23.101  0.00  0.00    +0.068 C 
ATOM      7  H   UNL     1      31.417 -12.006 -23.624  0.00  0.00    -0.080 HD
ENDROOT
BRANCH   2   8
ATOM      8  C   UNL     1      31.603  -8.094 -21.521  0.00  0.00    +0.048 C 
ATOM      9  C   UNL     1      31.211  -7.079 -22.438  0.00  0.00    +0.013 C 
ATOM     10  C   UNL     1      31.771  -7.740 -20.164  0.00  0.00    +0.015 C 
ATOM     11  C   UNL     1      30.996  -5.754 -21.992  0.00  0.00    +0.001 C 
ATOM     12  C   UNL     1      31.032  -7.384 -23.797  0.00  0.00    +0.001 C 
ATOM     13  C   UNL     1      31.559  -6.436 -19.725  0.00  0.00    +0.001 C 
ATOM     14  C   UNL     1      31.173  -5.449 -20.632  0.00  0.00    +0.000 C 
ATOM     15  C   UNL     1      30.609  -4.772 -22.918  0.00  0.00    +0.000 C 
ATOM     16  C   UNL     1      30.647  -6.396 -24.703  0.00  0.00    +0.000 C 
ATOM     17  C   UNL     1      30.436  -5.092 -24.265  0.00  0.00    +0.000 C 
ENDBRANCH   2   8
BRANCH   1  18
ATOM     18  C   UNL     1      32.606 -13.467 -22.877  0.00  0.00    -0.077 C 
BRANCH  18  19
ATOM     19  C   UNL     1      33.683 -13.637 -21.807  0.00  0.00    -0.019 C 
BRANCH  19  20
ATOM     20  C   UNL     1      34.084 -15.103 -21.655  0.00  0.00    +0.045 C 
BRANCH  20  21
ATOM     21  C   UNL     1      34.759 -15.635 -22.912  0.00  0.00    +0.208 C 
BRANCH  21  22
ATOM     22  O   UNL     1      34.338 -16.970 -23.158  0.00  0.00    -0.452 OA
BRANCH  22  28
ATOM     23  O   UNL     1      32.337 -22.076 -18.839  0.00  0.00    -0.275 OA
ATOM     24  N   UNL     1      33.049 -20.437 -20.283  0.00  0.00    -0.263 N 
ATOM     25  N   UNL     1      33.711 -18.688 -21.731  0.00  0.00    -0.357 NA
ATOM     26  C   UNL     1      35.377 -19.806 -20.383  0.00  0.00    +0.090 C 
ATOM     27  C   UNL     1      35.712 -20.928 -19.447  0.00  0.00    +0.022 C 
ATOM     28  C   UNL     1      34.699 -17.913 -22.231  0.00  0.00    +0.278 C 
ATOM     29  C   UNL     1      34.063 -19.614 -20.808  0.00  0.00    +0.170 C 
ATOM     30  C   UNL     1      34.550 -21.214 -18.509  0.00  0.00    +0.086 C 
ATOM     31  C   UNL     1      36.369 -18.995 -20.935  0.00  0.00    -0.012 C 
ATOM     32  C   UNL     1      36.029 -18.023 -21.868  0.00  0.00    +0.068 C 
ATOM     33  C   UNL     1      33.224 -21.318 -19.233  0.00  0.00    +0.228 C 
ATOM     34  H   UNL     1      32.155 -20.382 -20.691  0.00  0.00    +0.157 HD
ENDBRANCH  22  28
ENDBRANCH  21  22
ENDBRANCH  20  21
ENDBRANCH  19  20
ENDBRANCH  18  19
ENDBRANCH   1  18
TORSDOF 7
ENDMDL
MODEL 8
REMARK VINA RESULT:     -13.0      2.160      3.853
REMARK  Name = 11697676
REMARK  7 active torsions:
REMARK  status: ('A' for Active; 'I' for Inactive)
REMARK    1  A    between atoms: N_1  and  C_18
REMARK    2  A    between atoms: N_2  and  C_8
REMARK    3  A    between atoms: C_18  and  C_19
REMARK    4  A    between atoms: C_19  and  C_20
REMARK    5  A    between atoms: C_20  and  C_21
REMARK    6  A    between atoms: C_21  and  O_22
REMARK    7  A    between atoms: O_22  and  C_28
REMARK                            x       y       z     vdW  Elec       q    Type
REMARK                         _______ _______ _______ _____ _____    ______ ____
ROOT
ATOM      1  N   UNL     1      34.900 -19.674 -21.311  0.00  0.00    +0.389 N 
ATOM      2  N   UNL     1      34.288 -21.038 -18.878  0.00  0.00    -0.312 N 
ATOM      3  C   UNL     1      35.954 -19.939 -20.324  0.00  0.00    -0.055 C 
ATOM      4  C   UNL     1      33.623 -19.437 -20.627  0.00  0.00    -0.055 C 
ATOM      5  C   UNL     1      35.619 -21.173 -19.482  0.00  0.00    +0.068 C 
ATOM      6  C   UNL     1      33.211 -20.654 -19.795  0.00  0.00    +0.068 C 
ATOM      7  H   UNL     1      34.804 -20.489 -21.917  0.00  0.00    -0.080 HD
ENDROOT
BRANCH   2   8
ATOM      8  C   UNL     1      33.996 -21.815 -17.751  0.00  0.00    +0.048 C 
ATOM      9  C   UNL     1      34.968 -22.136 -16.763  0.00  0.00    +0.013 C 
ATOM     10  C   UNL     1      32.683 -22.306 -17.580  0.00  0.00    +0.015 C 
ATOM     11  C   UNL     1      34.620 -22.927 -15.643  0.00  0.00    +0.001 C 
ATOM     12  C   UNL     1      36.287 -21.671 -16.892  0.00  0.00    +0.001 C 
ATOM     13  C   UNL     1      32.339 -23.083 -16.477  0.00  0.00    +0.001 C 
ATOM     14  C   UNL     1      33.300 -23.391 -15.515  0.00  0.00    +0.000 C 
ATOM     15  C   UNL     1      35.599 -23.228 -14.683  0.00  0.00    +0.000 C 
ATOM     16  C   UNL     1      37.248 -21.980 -15.929  0.00  0.00    +0.000 C 
ATOM     17  C   UNL     1      36.905 -22.758 -14.827  0.00  0.00    +0.000 C 
ENDBRANCH   2   8
BRANCH   1  18
ATOM     18  C   UNL     1      35.256 -18.527 -22.145  0.00  0.00    -0.077 C 
BRANCH  18  19
ATOM     19  C   UNL     1      34.149 -18.242 -23.158  0.00  0.00    -0.019 C 
BRANCH  19  20
ATOM     20  C   UNL     1      34.168 -16.781 -23.602  0.00  0.00    +0.045 C 
BRANCH  20  21
ATOM     21  C   UNL     1      34.465 -15.843 -22.440  0.00  0.00    +0.208 C 
BRANCH  21  22
ATOM     22  O   UNL     1      34.550 -14.505 -22.909  0.00  0.00    -0.452 OA
BRANCH  22  28
ATOM     23  O   UNL     1      31.339  -8.336 -23.515  0.00  0.00    -0.275 OA
ATOM     24  N   UNL     1      32.332 -10.396 -23.301  0.00  0.00    -0.263 N 
ATOM     25  N   UNL     1      33.446 -12.473 -23.093  0.00  0.00    -0.357 NA
ATOM     26  C   UNL     1      31.866 -11.799 -21.392  0.00  0.00    +0.090 C 
ATOM     27  C   UNL     1      30.820 -10.824 -20.943  0.00  0.00    +0.022 C 
ATOM     28  C   UNL     1      33.651 -13.609 -22.391  0.00  0.00    +0.278 C 
ATOM     29  C   UNL     1      32.566 -11.581 -22.579  0.00  0.00    +0.170 C 
ATOM     30  C   UNL     1      31.176  -9.412 -21.379  0.00  0.00    +0.086 C 
ATOM     31  C   UNL     1      32.096 -12.992 -20.706  0.00  0.00    -0.012 C 
ATOM     32  C   UNL     1      33.010 -13.912 -21.203  0.00  0.00    +0.068 C 
ATOM     33  C   UNL     1      31.584  -9.333 -22.835  0.00  0.00    +0.228 C 
ATOM     34  H   UNL     1      32.728 -10.320 -24.200  0.00  0.00    +0.157 HD
ENDBRANCH  22  28
ENDBRANCH  21  22
ENDBRANCH  20  21
ENDBRANCH  19  20
ENDBRANCH  18  19
ENDBRANCH   1  18
TORSDOF 7
ENDMDL
MODEL 9
REMARK VINA RESULT:     -12.6      3.799     11.351
REMARK  Name = 11697676
REMARK  7 active torsions:
REMARK  status: ('A' for Active; 'I' for Inactive)
REMARK    1  A    between atoms: N_1  and  C_18
REMARK    2  A    between atoms: N_2  and  C_8
REMARK    3  A    between atoms: C_18  and  C_19
REMARK    4  A    between atoms: C_19  and  C_20
REMARK    5  A    between atoms: C_20  and  C_21
REMARK    6  A    between atoms: C_21  and  O_22
REMARK    7  A    between atoms: O_22  and  C_28
REMARK                            x       y       z     vdW  Elec       q    Type
REMARK                         _______ _______ _______ _____ _____    ______ ____
ROOT
ATOM      1  N   UNL     1      34.875 -18.666 -21.881  0.00  0.00    +0.389 N 
ATOM      2  N   UNL     1      33.873 -16.220 -22.962  0.00  0.00    -0.312 N 
ATOM      3  C   UNL     1      33.819 -18.684 -22.901  0.00  0.00    -0.055 C 
ATOM      4  C   UNL     1      34.724 -17.482 -21.026  0.00  0.00    -0.055 C 
ATOM      5  C   UNL     1      33.890 -17.436 -23.785  0.00  0.00    +0.068 C 
ATOM      6  C   UNL     1      34.824 -16.195 -21.848  0.00  0.00    +0.068 C 
ATOM      7  H   UNL     1      35.782 -18.624 -22.346  0.00  0.00    -0.080 HD
ENDROOT
BRANCH   2   8
ATOM      8  C   UNL     1      33.483 -15.021 -23.570  0.00  0.00    +0.048 C 
ATOM      9  C   UNL     1      33.023 -13.896 -22.829  0.00  0.00    +0.013 C 
ATOM     10  C   UNL     1      33.545 -14.915 -24.976  0.00  0.00    +0.015 C 
ATOM     11  C   UNL     1      32.640 -12.707 -23.494  0.00  0.00    +0.001 C 
ATOM     12  C   UNL     1      32.944 -13.956 -21.428  0.00  0.00    +0.001 C 
ATOM     13  C   UNL     1      33.169 -13.745 -25.630  0.00  0.00    +0.001 C 
ATOM     14  C   UNL     1      32.721 -12.648 -24.895  0.00  0.00    +0.000 C 
ATOM     15  C   UNL     1      32.190 -11.613 -22.738  0.00  0.00    +0.000 C 
ATOM     16  C   UNL     1      32.494 -12.859 -20.693  0.00  0.00    +0.000 C 
ATOM     17  C   UNL     1      32.118 -11.689 -21.347  0.00  0.00    +0.000 C 
ENDBRANCH   2   8
BRANCH   1  18
ATOM     18  C   UNL     1      34.831 -19.888 -21.078  0.00  0.00    -0.077 C 
BRANCH  18  19
ATOM     19  C   UNL     1      36.020 -19.936 -20.120  0.00  0.00    -0.019 C 
BRANCH  19  20
ATOM     20  C   UNL     1      35.777 -20.932 -18.987  0.00  0.00    +0.045 C 
BRANCH  20  21
ATOM     21  C   UNL     1      34.306 -21.308 -18.874  0.00  0.00    +0.208 C 
BRANCH  21  22
ATOM     22  O   UNL     1      34.180 -22.578 -18.249  0.00  0.00    -0.452 OA
BRANCH  22  28
ATOM     23  O   UNL     1      27.533 -21.825 -16.251  0.00  0.00    -0.275 OA
ATOM     24  N   UNL     1      29.721 -22.137 -16.877  0.00  0.00    -0.263 N 
ATOM     25  N   UNL     1      31.975 -22.362 -17.559  0.00  0.00    -0.357 NA
ATOM     26  C   UNL     1      31.368 -22.884 -15.278  0.00  0.00    +0.090 C 
ATOM     27  C   UNL     1      30.282 -23.079 -14.263  0.00  0.00    +0.022 C 
ATOM     28  C   UNL     1      33.251 -22.684 -17.247  0.00  0.00    +0.278 C 
ATOM     29  C   UNL     1      31.057 -22.457 -16.568  0.00  0.00    +0.170 C 
ATOM     30  C   UNL     1      29.144 -22.097 -14.496  0.00  0.00    +0.086 C 
ATOM     31  C   UNL     1      32.694 -23.220 -15.002  0.00  0.00    -0.012 C 
ATOM     32  C   UNL     1      33.658 -23.111 -15.996  0.00  0.00    +0.068 C 
ATOM     33  C   UNL     1      28.707 -22.040 -15.945  0.00  0.00    +0.228 C 
ATOM     34  H   UNL     1      29.495 -21.971 -17.821  0.00  0.00    +0.157 HD
ENDBRANCH  22  28
ENDBRANCH  21  22
ENDBRANCH  20  21
ENDBRANCH  19  20
ENDBRANCH  18  19
ENDBRANCH   1  18
TORSDOF 7
ENDMDL
