MODEL 1
REMARK VINA RESULT:     -12.3      0.000      0.000
REMARK  Name = 448943
REMARK  5 active torsions:
REMARK  status: ('A' for Active; 'I' for Inactive)
REMARK    1  A    between atoms: N_1  and  C_28
REMARK    2  A    between atoms: C_4  and  C_13
REMARK    3  A    between atoms: C_14  and  C_19
REMARK    4  A    between atoms: C_28  and  C_29
REMARK    5  A    between atoms: C_29  and  C_31
REMARK                            x       y       z     vdW  Elec       q    Type
REMARK                         _______ _______ _______ _____ _____    ______ ____
ROOT
ATOM      1  N   UNL     1      34.037 -21.859 -18.509  0.00  0.00    -0.286 N 
ATOM      2  C   UNL     1      35.092 -21.615 -17.670  0.00  0.00    +0.052 C 
ATOM      3  C   UNL     1      33.004 -22.442 -17.841  0.00  0.00    +0.066 C 
ATOM      4  C   UNL     1      33.390 -22.584 -16.528  0.00  0.00    +0.021 C 
ATOM      5  C   UNL     1      34.709 -22.065 -16.405  0.00  0.00    +0.015 C 
ATOM      6  C   UNL     1      36.342 -21.039 -17.919  0.00  0.00    +0.015 C 
ATOM      7  C   UNL     1      35.617 -21.934 -15.335  0.00  0.00    +0.001 C 
ATOM      8  C   UNL     1      37.227 -20.920 -16.844  0.00  0.00    +0.001 C 
ATOM      9  C   UNL     1      36.871 -21.360 -15.570  0.00  0.00    +0.000 C 
ENDROOT
BRANCH   4  13
ATOM     10  O   UNL     1      30.457 -22.230 -16.188  0.00  0.00    -0.270 OA
ATOM     11  O   UNL     1      31.631 -24.956 -12.704  0.00  0.00    -0.270 OA
ATOM     12  N   UNL     1      30.668 -23.603 -14.327  0.00  0.00    -0.248 N 
ATOM     13  C   UNL     1      32.571 -23.159 -15.505  0.00  0.00    +0.059 C 
ATOM     14  C   UNL     1      32.918 -23.950 -14.474  0.00  0.00    +0.059 C 
ATOM     15  C   UNL     1      31.108 -22.919 -15.421  0.00  0.00    +0.252 C 
ATOM     16  C   UNL     1      31.689 -24.252 -13.698  0.00  0.00    +0.252 C 
ATOM     17  H   UNL     1      29.730 -23.624 -14.027  0.00  0.00    +0.158 HD
BRANCH  14  19
ATOM     18  N   UNL     1      36.064 -25.686 -14.210  0.00  0.00    -0.312 N 
ATOM     19  C   UNL     1      34.201 -24.476 -14.122  0.00  0.00    +0.020 C 
ATOM     20  C   UNL     1      35.011 -24.136 -13.000  0.00  0.00    +0.015 C 
ATOM     21  C   UNL     1      34.878 -25.432 -14.847  0.00  0.00    +0.062 C 
ATOM     22  C   UNL     1      36.172 -24.909 -13.080  0.00  0.00    +0.048 C 
ATOM     23  C   UNL     1      34.864 -23.242 -11.921  0.00  0.00    +0.001 C 
ATOM     24  C   UNL     1      37.197 -24.831 -12.131  0.00  0.00    +0.015 C 
ATOM     25  C   UNL     1      35.883 -23.153 -10.964  0.00  0.00    +0.000 C 
ATOM     26  C   UNL     1      37.031 -23.937 -11.069  0.00  0.00    +0.001 C 
ATOM     27  H   UNL     1      36.741 -26.332 -14.518  0.00  0.00    +0.152 HD
ENDBRANCH  14  19
ENDBRANCH   4  13
BRANCH   1  28
ATOM     28  C   UNL     1      34.008 -21.541 -19.934  0.00  0.00    +0.093 C 
BRANCH  28  29
ATOM     29  C   UNL     1      33.674 -20.074 -20.185  0.00  0.00    +0.001 C 
BRANCH  29  31
ATOM     30  N   UNL     1      35.263 -18.351 -21.059  0.00  0.00    +0.387 N 
ATOM     31  C   UNL     1      34.446 -19.529 -21.380  0.00  0.00    -0.057 C 
ATOM     32  C   UNL     1      33.509 -19.001 -22.468  0.00  0.00    -0.023 C 
ATOM     33  C   UNL     1      34.252 -17.832 -23.105  0.00  0.00    -0.025 C 
ATOM     34  C   UNL     1      35.570 -17.739 -22.355  0.00  0.00    -0.077 C 
ATOM     35  C   UNL     1      36.479 -18.675 -20.321  0.00  0.00    -0.101 C 
ATOM     36  H   UNL     1      34.758 -17.720 -20.438  0.00  0.00    -0.080 HD
ENDBRANCH  29  31
ENDBRANCH  28  29
ENDBRANCH   1  28
TORSDOF 5
ENDMDL
MODEL 2
REMARK VINA RESULT:      -9.6     11.153     17.262
REMARK  Name = 448943
REMARK  5 active torsions:
REMARK  status: ('A' for Active; 'I' for Inactive)
REMARK    1  A    between atoms: N_1  and  C_28
REMARK    2  A    between atoms: C_4  and  C_13
REMARK    3  A    between atoms: C_14  and  C_19
REMARK    4  A    between atoms: C_28  and  C_29
REMARK    5  A    between atoms: C_29  and  C_31
REMARK                            x       y       z     vdW  Elec       q    Type
REMARK                         _______ _______ _______ _____ _____    ______ ____
ROOT
ATOM      1  N   UNL     1      31.991  -9.754 -22.821  0.00  0.00    -0.286 N 
ATOM      2  C   UNL     1      31.750  -9.898 -21.481  0.00  0.00    +0.052 C 
ATOM      3  C   UNL     1      32.012  -8.440 -23.177  0.00  0.00    +0.066 C 
ATOM      4  C   UNL     1      31.779  -7.701 -22.040  0.00  0.00    +0.021 C 
ATOM      5  C   UNL     1      31.611  -8.610 -20.959  0.00  0.00    +0.015 C 
ATOM      6  C   UNL     1      31.644 -11.048 -20.691  0.00  0.00    +0.015 C 
ATOM      7  C   UNL     1      31.355  -8.461 -19.581  0.00  0.00    +0.001 C 
ATOM      8  C   UNL     1      31.389 -10.876 -19.328  0.00  0.00    +0.001 C 
ATOM      9  C   UNL     1      31.246  -9.603 -18.779  0.00  0.00    +0.000 C 
ENDROOT
BRANCH   4  13
ATOM     10  O   UNL     1      31.401  -5.994 -19.634  0.00  0.00    -0.270 OA
ATOM     11  O   UNL     1      31.714  -2.980 -23.065  0.00  0.00    -0.270 OA
ATOM     12  N   UNL     1      31.513  -4.191 -21.093  0.00  0.00    -0.248 N 
ATOM     13  C   UNL     1      31.724  -6.272 -22.005  0.00  0.00    +0.059 C 
ATOM     14  C   UNL     1      31.804  -5.386 -23.015  0.00  0.00    +0.059 C 
ATOM     15  C   UNL     1      31.530  -5.509 -20.745  0.00  0.00    +0.252 C 
ATOM     16  C   UNL     1      31.672  -4.025 -22.437  0.00  0.00    +0.252 C 
ATOM     17  H   UNL     1      31.399  -3.451 -20.453  0.00  0.00    +0.158 HD
BRANCH  14  19
ATOM     18  N   UNL     1      31.624  -6.281 -26.499  0.00  0.00    -0.312 N 
ATOM     19  C   UNL     1      32.003  -5.615 -24.412  0.00  0.00    +0.020 C 
ATOM     20  C   UNL     1      33.129  -5.258 -25.208  0.00  0.00    +0.015 C 
ATOM     21  C   UNL     1      31.095  -6.243 -25.236  0.00  0.00    +0.062 C 
ATOM     22  C   UNL     1      32.866  -5.687 -26.511  0.00  0.00    +0.048 C 
ATOM     23  C   UNL     1      34.350  -4.608 -24.942  0.00  0.00    +0.001 C 
ATOM     24  C   UNL     1      33.766  -5.498 -27.565  0.00  0.00    +0.015 C 
ATOM     25  C   UNL     1      35.262  -4.413 -25.987  0.00  0.00    +0.000 C 
ATOM     26  C   UNL     1      34.973  -4.852 -27.278  0.00  0.00    +0.001 C 
ATOM     27  H   UNL     1      31.181  -6.677 -27.284  0.00  0.00    +0.152 HD
ENDBRANCH  14  19
ENDBRANCH   4  13
BRANCH   1  28
ATOM     28  C   UNL     1      32.201 -10.853 -23.758  0.00  0.00    +0.093 C 
BRANCH  28  29
ATOM     29  C   UNL     1      33.372 -11.741 -23.345  0.00  0.00    +0.001 C 
BRANCH  29  31
ATOM     30  N   UNL     1      33.990 -14.104 -22.802  0.00  0.00    +0.387 N 
ATOM     31  C   UNL     1      33.005 -13.216 -23.435  0.00  0.00    -0.057 C 
ATOM     32  C   UNL     1      32.990 -13.710 -24.882  0.00  0.00    -0.023 C 
ATOM     33  C   UNL     1      33.445 -15.164 -24.816  0.00  0.00    -0.025 C 
ATOM     34  C   UNL     1      33.704 -15.434 -23.344  0.00  0.00    -0.077 C 
ATOM     35  C   UNL     1      33.924 -14.095 -21.345  0.00  0.00    -0.101 C 
ATOM     36  H   UNL     1      34.939 -13.793 -23.008  0.00  0.00    -0.080 HD
ENDBRANCH  29  31
ENDBRANCH  28  29
ENDBRANCH   1  28
TORSDOF 5
ENDMDL
MODEL 3
REMARK VINA RESULT:      -9.3      2.883      5.461
REMARK  Name = 448943
REMARK  5 active torsions:
REMARK  status: ('A' for Active; 'I' for Inactive)
REMARK    1  A    between atoms: N_1  and  C_28
REMARK    2  A    between atoms: C_4  and  C_13
REMARK    3  A    between atoms: C_14  and  C_19
REMARK    4  A    between atoms: C_28  and  C_29
REMARK    5  A    between atoms: C_29  and  C_31
REMARK                            x       y       z     vdW  Elec       q    Type
REMARK                         _______ _______ _______ _____ _____    ______ ____
ROOT
ATOM      1  N   UNL     1      32.897 -22.678 -16.367  0.00  0.00    -0.286 N 
ATOM      2  C   UNL     1      34.163 -22.259 -16.681  0.00  0.00    +0.052 C 
ATOM      3  C   UNL     1      32.859 -23.228 -15.122  0.00  0.00    +0.066 C 
ATOM      4  C   UNL     1      34.132 -23.167 -14.604  0.00  0.00    +0.021 C 
ATOM      5  C   UNL     1      34.968 -22.556 -15.580  0.00  0.00    +0.015 C 
ATOM      6  C   UNL     1      34.661 -21.645 -17.836  0.00  0.00    +0.015 C 
ATOM      7  C   UNL     1      36.337 -22.226 -15.632  0.00  0.00    +0.001 C 
ATOM      8  C   UNL     1      36.021 -21.328 -17.866  0.00  0.00    +0.001 C 
ATOM      9  C   UNL     1      36.848 -21.613 -16.781  0.00  0.00    +0.000 C 
ENDROOT
BRANCH   4  13
ATOM     10  O   UNL     1      32.827 -22.487 -12.020  0.00  0.00    -0.270 OA
ATOM     11  O   UNL     1      36.204 -25.331 -10.814  0.00  0.00    -0.270 OA
ATOM     12  N   UNL     1      34.408 -23.876 -11.039  0.00  0.00    -0.248 N 
ATOM     13  C   UNL     1      34.498 -23.648 -13.308  0.00  0.00    +0.059 C 
ATOM     14  C   UNL     1      35.499 -24.474 -12.952  0.00  0.00    +0.059 C 
ATOM     15  C   UNL     1      33.780 -23.245 -12.072  0.00  0.00    +0.252 C 
ATOM     16  C   UNL     1      35.451 -24.637 -11.477  0.00  0.00    +0.252 C 
ATOM     17  H   UNL     1      34.141 -23.793 -10.095  0.00  0.00    +0.158 HD
BRANCH  14  19
ATOM     18  N   UNL     1      37.331 -26.528 -15.275  0.00  0.00    -0.312 N 
ATOM     19  C   UNL     1      36.463 -25.141 -13.770  0.00  0.00    +0.020 C 
ATOM     20  C   UNL     1      37.872 -24.931 -13.815  0.00  0.00    +0.015 C 
ATOM     21  C   UNL     1      36.163 -26.130 -14.681  0.00  0.00    +0.062 C 
ATOM     22  C   UNL     1      38.391 -25.813 -14.765  0.00  0.00    +0.048 C 
ATOM     23  C   UNL     1      38.756 -24.071 -13.134  0.00  0.00    +0.001 C 
ATOM     24  C   UNL     1      39.755 -25.878 -15.069  0.00  0.00    +0.015 C 
ATOM     25  C   UNL     1      40.124 -24.125 -13.428  0.00  0.00    +0.000 C 
ATOM     26  C   UNL     1      40.614 -25.016 -14.381  0.00  0.00    +0.001 C 
ATOM     27  H   UNL     1      37.403 -27.226 -15.966  0.00  0.00    +0.152 HD
ENDBRANCH  14  19
ENDBRANCH   4  13
BRANCH   1  28
ATOM     28  C   UNL     1      31.734 -22.559 -17.240  0.00  0.00    +0.093 C 
BRANCH  28  29
ATOM     29  C   UNL     1      30.485 -22.135 -16.472  0.00  0.00    +0.001 C 
BRANCH  29  31
ATOM     30  N   UNL     1      28.198 -22.906 -15.813  0.00  0.00    +0.387 N 
ATOM     31  C   UNL     1      29.533 -23.308 -16.278  0.00  0.00    -0.057 C 
ATOM     32  C   UNL     1      30.006 -24.247 -15.168  0.00  0.00    -0.023 C 
ATOM     33  C   UNL     1      28.732 -24.787 -14.528  0.00  0.00    -0.025 C 
ATOM     34  C   UNL     1      27.593 -24.134 -15.292  0.00  0.00    -0.077 C 
ATOM     35  C   UNL     1      27.376 -22.309 -16.860  0.00  0.00    -0.101 C 
ATOM     36  H   UNL     1      28.268 -22.174 -15.107  0.00  0.00    -0.080 HD
ENDBRANCH  29  31
ENDBRANCH  28  29
ENDBRANCH   1  28
TORSDOF 5
ENDMDL
