MODEL 1
REMARK VINA RESULT:     -11.4      0.000      0.000
REMARK  Name = 24751752
REMARK  5 active torsions:
REMARK  status: ('A' for Active; 'I' for Inactive)
REMARK    1  A    between atoms: S_1  and  N_4
REMARK    2  A    between atoms: S_1  and  C_18
REMARK    3  A    between atoms: C_7  and  O_10
REMARK    4  A    between atoms: O_10  and  C_13
REMARK    5  A    between atoms: C_18  and  C_23
REMARK                            x       y       z     vdW  Elec       q    Type
REMARK                         _______ _______ _______ _____ _____    ______ ____
ROOT
ATOM      1  S   UNL     1      34.138 -23.230 -15.718  0.00  0.00    +0.046 S 
ATOM      2  O   UNL     1      34.106 -24.663 -15.907  0.00  0.00    -0.157 OA
ATOM      3  O   UNL     1      33.078 -22.528 -15.031  0.00  0.00    -0.157 OA
ENDROOT
BRANCH   1   4
ATOM      4  N   UNL     1      34.399 -22.483 -17.238  0.00  0.00    -0.159 NA
ATOM      5  C   UNL     1      35.515 -21.492 -17.279  0.00  0.00    +0.099 C 
ATOM      6  C   UNL     1      33.170 -21.974 -17.917  0.00  0.00    +0.099 C 
ATOM      7  C   UNL     1      34.637 -20.666 -19.492  0.00  0.00    +0.170 C 
ATOM      8  C   UNL     1      35.861 -21.171 -18.728  0.00  0.00    +0.063 C 
ATOM      9  C   UNL     1      33.484 -21.659 -19.375  0.00  0.00    +0.063 C 
BRANCH   7  10
ATOM     10  O   UNL     1      34.962 -20.500 -20.867  0.00  0.00    -0.464 OA
BRANCH  10  13
ATOM     11 CL   UNL     1      34.369 -15.120 -22.986  0.00  0.00    -0.081 Cl
ATOM     12  N   UNL     1      35.127 -18.204 -20.581  0.00  0.00    -0.209 NA
ATOM     13  C   UNL     1      34.815 -19.242 -21.389  0.00  0.00    +0.225 C 
ATOM     14  C   UNL     1      34.362 -19.103 -22.690  0.00  0.00    +0.059 C 
ATOM     15  C   UNL     1      34.221 -17.816 -23.197  0.00  0.00    +0.018 C 
ATOM     16  C   UNL     1      34.978 -16.968 -21.107  0.00  0.00    +0.113 C 
ATOM     17  C   UNL     1      34.533 -16.722 -22.397  0.00  0.00    +0.077 C 
ENDBRANCH  10  13
ENDBRANCH   7  10
ENDBRANCH   1   4
BRANCH   1  18
ATOM     18  C   UNL     1      35.674 -22.814 -14.933  0.00  0.00    +0.196 C 
BRANCH  18  23
ATOM     19  O   UNL     1      37.464 -22.302 -12.509  0.00  0.00    -0.273 OA
ATOM     20  O   UNL     1      38.272 -26.447 -14.293  0.00  0.00    -0.252 OA
ATOM     21  N   UNL     1      36.384 -25.068 -14.311  0.00  0.00    -0.283 N 
ATOM     22  N   UNL     1      38.216 -24.363 -13.263  0.00  0.00    -0.238 N 
ATOM     23  C   UNL     1      35.996 -23.768 -13.804  0.00  0.00    +0.151 C 
ATOM     24  C   UNL     1      34.859 -23.885 -12.797  0.00  0.00    +0.031 C 
ATOM     25  C   UNL     1      37.294 -23.357 -13.105  0.00  0.00    +0.247 C 
ATOM     26  C   UNL     1      37.698 -25.410 -13.989  0.00  0.00    +0.307 C 
ATOM     27  H   UNL     1      35.783 -25.651 -14.830  0.00  0.00    +0.151 HD
ATOM     28  H   UNL     1      39.132 -24.337 -12.904  0.00  0.00    +0.159 HD
ENDBRANCH  18  23
ENDBRANCH   1  18
TORSDOF 5
ENDMDL
MODEL 2
REMARK VINA RESULT:     -10.9      1.422      2.034
REMARK  Name = 24751752
REMARK  5 active torsions:
REMARK  status: ('A' for Active; 'I' for Inactive)
REMARK    1  A    between atoms: S_1  and  N_4
REMARK    2  A    between atoms: S_1  and  C_18
REMARK    3  A    between atoms: C_7  and  O_10
REMARK    4  A    between atoms: O_10  and  C_13
REMARK    5  A    between atoms: C_18  and  C_23
REMARK                            x       y       z     vdW  Elec       q    Type
REMARK                         _______ _______ _______ _____ _____    ______ ____
ROOT
ATOM      1  S   UNL     1      34.448 -23.325 -14.965  0.00  0.00    +0.046 S 
ATOM      2  O   UNL     1      33.071 -23.758 -14.892  0.00  0.00    -0.157 OA
ATOM      3  O   UNL     1      35.019 -22.430 -13.984  0.00  0.00    -0.157 OA
ENDROOT
BRANCH   1   4
ATOM      4  N   UNL     1      34.740 -22.686 -16.528  0.00  0.00    -0.159 NA
ATOM      5  C   UNL     1      35.745 -21.584 -16.590  0.00  0.00    +0.099 C 
ATOM      6  C   UNL     1      33.517 -22.377 -17.328  0.00  0.00    +0.099 C 
ATOM      7  C   UNL     1      34.951 -21.053 -18.921  0.00  0.00    +0.170 C 
ATOM      8  C   UNL     1      36.162 -21.351 -18.037  0.00  0.00    +0.063 C 
ATOM      9  C   UNL     1      33.904 -22.155 -18.786  0.00  0.00    +0.063 C 
BRANCH   7  10
ATOM     10  O   UNL     1      35.357 -20.970 -20.283  0.00  0.00    -0.464 OA
BRANCH  10  13
ATOM     11 CL   UNL     1      34.575 -15.848 -22.917  0.00  0.00    -0.081 Cl
ATOM     12  N   UNL     1      36.023 -18.776 -20.637  0.00  0.00    -0.209 NA
ATOM     13  C   UNL     1      35.153 -19.773 -20.916  0.00  0.00    +0.225 C 
ATOM     14  C   UNL     1      34.087 -19.649 -21.791  0.00  0.00    +0.059 C 
ATOM     15  C   UNL     1      33.901 -18.424 -22.422  0.00  0.00    +0.018 C 
ATOM     16  C   UNL     1      35.811 -17.600 -21.268  0.00  0.00    +0.113 C 
ATOM     17  C   UNL     1      34.775 -17.374 -22.161  0.00  0.00    +0.077 C 
ENDBRANCH  10  13
ENDBRANCH   7  10
ENDBRANCH   1   4
BRANCH   1  18
ATOM     18  C   UNL     1      35.474 -24.770 -15.056  0.00  0.00    +0.196 C 
BRANCH  18  23
ATOM     19  O   UNL     1      37.517 -26.951 -14.415  0.00  0.00    -0.273 OA
ATOM     20  O   UNL     1      35.954 -24.993 -10.575  0.00  0.00    -0.252 OA
ATOM     21  N   UNL     1      36.144 -24.216 -12.772  0.00  0.00    -0.283 N 
ATOM     22  N   UNL     1      36.812 -26.286 -12.307  0.00  0.00    -0.238 N 
ATOM     23  C   UNL     1      36.605 -24.711 -14.053  0.00  0.00    +0.151 C 
ATOM     24  C   UNL     1      37.794 -23.904 -14.561  0.00  0.00    +0.031 C 
ATOM     25  C   UNL     1      37.043 -26.121 -13.651  0.00  0.00    +0.247 C 
ATOM     26  C   UNL     1      36.268 -25.154 -11.747  0.00  0.00    +0.307 C 
ATOM     27  H   UNL     1      35.780 -23.310 -12.638  0.00  0.00    +0.151 HD
ATOM     28  H   UNL     1      37.010 -27.112 -11.808  0.00  0.00    +0.159 HD
ENDBRANCH  18  23
ENDBRANCH   1  18
TORSDOF 5
ENDMDL
MODEL 3
REMARK VINA RESULT:     -10.9      1.091      1.146
REMARK  Name = 24751752
REMARK  5 active torsions:
REMARK  status: ('A' for Active; 'I' for Inactive)
REMARK    1  A    between atoms: S_1  and  N_4
REMARK    2  A    between atoms: S_1  and  C_18
REMARK    3  A    between atoms: C_7  and  O_10
REMARK    4  A    between atoms: O_10  and  C_13
REMARK    5  A    between atoms: C_18  and  C_23
REMARK                            x       y       z     vdW  Elec       q    Type
REMARK                         _______ _______ _______ _____ _____    ______ ____
ROOT
ATOM      1  S   UNL     1      33.443 -23.000 -16.630  0.00  0.00    +0.046 S 
ATOM      2  O   UNL     1      33.348 -24.407 -16.947  0.00  0.00    -0.157 OA
ATOM      3  O   UNL     1      32.398 -22.309 -15.908  0.00  0.00    -0.157 OA
ENDROOT
BRANCH   1   4
ATOM      4  N   UNL     1      33.782 -22.134 -18.069  0.00  0.00    -0.159 NA
ATOM      5  C   UNL     1      35.120 -21.474 -18.116  0.00  0.00    +0.099 C 
ATOM      6  C   UNL     1      32.691 -21.230 -18.540  0.00  0.00    +0.099 C 
ATOM      7  C   UNL     1      34.337 -20.136 -20.102  0.00  0.00    +0.170 C 
ATOM      8  C   UNL     1      35.430 -21.048 -19.546  0.00  0.00    +0.063 C 
ATOM      9  C   UNL     1      32.968 -20.800 -19.976  0.00  0.00    +0.063 C 
BRANCH   7  10
ATOM     10  O   UNL     1      34.590 -19.863 -21.476  0.00  0.00    -0.464 OA
BRANCH  10  13
ATOM     11 CL   UNL     1      34.233 -14.279 -23.054  0.00  0.00    -0.081 Cl
ATOM     12  N   UNL     1      34.712 -17.612 -20.925  0.00  0.00    -0.209 NA
ATOM     13  C   UNL     1      34.501 -18.555 -21.872  0.00  0.00    +0.225 C 
ATOM     14  C   UNL     1      34.205 -18.271 -23.195  0.00  0.00    +0.059 C 
ATOM     15  C   UNL     1      34.121 -16.936 -23.572  0.00  0.00    +0.018 C 
ATOM     16  C   UNL     1      34.622 -16.325 -21.328  0.00  0.00    +0.113 C 
ATOM     17  C   UNL     1      34.332 -15.938 -22.626  0.00  0.00    +0.077 C 
ENDBRANCH  10  13
ENDBRANCH   7  10
ENDBRANCH   1   4
BRANCH   1  18
ATOM     18  C   UNL     1      34.973 -22.733 -15.773  0.00  0.00    +0.196 C 
BRANCH  18  23
ATOM     19  O   UNL     1      37.037 -22.619 -13.522  0.00  0.00    -0.273 OA
ATOM     20  O   UNL     1      36.625 -26.884 -15.151  0.00  0.00    -0.252 OA
ATOM     21  N   UNL     1      35.148 -25.073 -15.093  0.00  0.00    -0.283 N 
ATOM     22  N   UNL     1      37.182 -24.824 -14.227  0.00  0.00    -0.238 N 
ATOM     23  C   UNL     1      35.143 -23.702 -14.625  0.00  0.00    +0.151 C 
ATOM     24  C   UNL     1      34.104 -23.498 -13.530  0.00  0.00    +0.031 C 
ATOM     25  C   UNL     1      36.558 -23.613 -14.049  0.00  0.00    +0.247 C 
ATOM     26  C   UNL     1      36.357 -25.727 -14.856  0.00  0.00    +0.307 C 
ATOM     27  H   UNL     1      34.377 -25.499 -15.535  0.00  0.00    +0.151 HD
ATOM     28  H   UNL     1      38.103 -25.021 -13.940  0.00  0.00    +0.159 HD
ENDBRANCH  18  23
ENDBRANCH   1  18
TORSDOF 5
ENDMDL
MODEL 4
REMARK VINA RESULT:     -10.7      2.430      3.223
REMARK  Name = 24751752
REMARK  5 active torsions:
REMARK  status: ('A' for Active; 'I' for Inactive)
REMARK    1  A    between atoms: S_1  and  N_4
REMARK    2  A    between atoms: S_1  and  C_18
REMARK    3  A    between atoms: C_7  and  O_10
REMARK    4  A    between atoms: O_10  and  C_13
REMARK    5  A    between atoms: C_18  and  C_23
REMARK                            x       y       z     vdW  Elec       q    Type
REMARK                         _______ _______ _______ _____ _____    ______ ____
ROOT
ATOM      1  S   UNL     1      33.956 -23.076 -15.965  0.00  0.00    +0.046 S 
ATOM      2  O   UNL     1      34.254 -22.106 -14.934  0.00  0.00    -0.157 OA
ATOM      3  O   UNL     1      34.581 -24.379 -15.989  0.00  0.00    -0.157 OA
ENDROOT
BRANCH   1   4
ATOM      4  N   UNL     1      34.169 -22.334 -17.495  0.00  0.00    -0.159 NA
ATOM      5  C   UNL     1      35.380 -21.470 -17.622  0.00  0.00    +0.099 C 
ATOM      6  C   UNL     1      32.951 -21.682 -18.061  0.00  0.00    +0.099 C 
ATOM      7  C   UNL     1      34.417 -20.513 -19.744  0.00  0.00    +0.170 C 
ATOM      8  C   UNL     1      35.637 -21.163 -19.092  0.00  0.00    +0.063 C 
ATOM      9  C   UNL     1      33.175 -21.377 -19.538  0.00  0.00    +0.063 C 
BRANCH   7  10
ATOM     10  O   UNL     1      34.642 -20.359 -21.141  0.00  0.00    -0.464 OA
BRANCH  10  13
ATOM     11 CL   UNL     1      34.453 -14.907 -23.147  0.00  0.00    -0.081 Cl
ATOM     12  N   UNL     1      34.899 -18.081 -20.782  0.00  0.00    -0.209 NA
ATOM     13  C   UNL     1      34.591 -19.083 -21.637  0.00  0.00    +0.225 C 
ATOM     14  C   UNL     1      34.232 -18.890 -22.961  0.00  0.00    +0.059 C 
ATOM     15  C   UNL     1      34.188 -17.586 -23.440  0.00  0.00    +0.018 C 
ATOM     16  C   UNL     1      34.845 -16.827 -21.283  0.00  0.00    +0.113 C 
ATOM     17  C   UNL     1      34.499 -16.529 -22.592  0.00  0.00    +0.077 C 
ENDBRANCH  10  13
ENDBRANCH   7  10
ENDBRANCH   1   4
BRANCH   1  18
ATOM     18  C   UNL     1      32.197 -23.308 -16.007  0.00  0.00    +0.196 C 
BRANCH  18  23
ATOM     19  O   UNL     1      30.568 -21.692 -13.989  0.00  0.00    -0.273 OA
ATOM     20  O   UNL     1      33.841 -24.115 -11.884  0.00  0.00    -0.252 OA
ATOM     21  N   UNL     1      32.696 -24.435 -13.896  0.00  0.00    -0.283 N 
ATOM     22  N   UNL     1      32.207 -22.653 -12.658  0.00  0.00    -0.238 N 
ATOM     23  C   UNL     1      31.666 -23.768 -14.667  0.00  0.00    +0.151 C 
ATOM     24  C   UNL     1      30.425 -24.641 -14.800  0.00  0.00    +0.031 C 
ATOM     25  C   UNL     1      31.388 -22.570 -13.758  0.00  0.00    +0.247 C 
ATOM     26  C   UNL     1      33.010 -23.768 -12.712  0.00  0.00    +0.307 C 
ATOM     27  H   UNL     1      33.130 -25.273 -14.180  0.00  0.00    +0.151 HD
ATOM     28  H   UNL     1      32.217 -21.997 -11.924  0.00  0.00    +0.159 HD
ENDBRANCH  18  23
ENDBRANCH   1  18
TORSDOF 5
ENDMDL
MODEL 5
REMARK VINA RESULT:     -10.6      9.367     14.413
REMARK  Name = 24751752
REMARK  5 active torsions:
REMARK  status: ('A' for Active; 'I' for Inactive)
REMARK    1  A    between atoms: S_1  and  N_4
REMARK    2  A    between atoms: S_1  and  C_18
REMARK    3  A    between atoms: C_7  and  O_10
REMARK    4  A    between atoms: O_10  and  C_13
REMARK    5  A    between atoms: C_18  and  C_23
REMARK                            x       y       z     vdW  Elec       q    Type
REMARK                         _______ _______ _______ _____ _____    ______ ____
ROOT
ATOM      1  S   UNL     1      31.300  -9.152 -22.341  0.00  0.00    +0.046 S 
ATOM      2  O   UNL     1      29.880  -9.421 -22.287  0.00  0.00    -0.157 OA
ATOM      3  O   UNL     1      31.922  -8.572 -23.510  0.00  0.00    -0.157 OA
ENDROOT
BRANCH   1   4
ATOM      4  N   UNL     1      32.146 -10.581 -21.919  0.00  0.00    -0.159 NA
ATOM      5  C   UNL     1      32.814 -11.285 -23.054  0.00  0.00    +0.099 C 
ATOM      6  C   UNL     1      31.401 -11.523 -21.032  0.00  0.00    +0.099 C 
ATOM      7  C   UNL     1      33.104 -13.301 -21.570  0.00  0.00    +0.170 C 
ATOM      8  C   UNL     1      33.797 -12.314 -22.509  0.00  0.00    +0.063 C 
ATOM      9  C   UNL     1      32.366 -12.556 -20.460  0.00  0.00    +0.063 C 
BRANCH   7  10
ATOM     10  O   UNL     1      34.069 -14.164 -20.979  0.00  0.00    -0.464 OA
BRANCH  10  13
ATOM     11 CL   UNL     1      34.816 -19.413 -23.363  0.00  0.00    -0.081 Cl
ATOM     12  N   UNL     1      34.569 -16.418 -20.748  0.00  0.00    -0.209 NA
ATOM     13  C   UNL     1      34.239 -15.391 -21.564  0.00  0.00    +0.225 C 
ATOM     14  C   UNL     1      34.069 -15.513 -22.933  0.00  0.00    +0.059 C 
ATOM     15  C   UNL     1      34.246 -16.769 -23.502  0.00  0.00    +0.018 C 
ATOM     16  C   UNL     1      34.733 -17.623 -21.336  0.00  0.00    +0.113 C 
ATOM     17  C   UNL     1      34.585 -17.850 -22.695  0.00  0.00    +0.077 C 
ENDBRANCH  10  13
ENDBRANCH   7  10
ENDBRANCH   1   4
BRANCH   1  18
ATOM     18  C   UNL     1      31.722  -8.150 -20.938  0.00  0.00    +0.196 C 
BRANCH  18  23
ATOM     19  O   UNL     1      32.656  -5.857 -19.147  0.00  0.00    -0.273 OA
ATOM     20  O   UNL     1      29.459  -4.426 -22.104  0.00  0.00    -0.252 OA
ATOM     21  N   UNL     1      31.007  -6.175 -22.187  0.00  0.00    -0.283 N 
ATOM     22  N   UNL     1      30.962  -4.870 -20.386  0.00  0.00    -0.238 N 
ATOM     23  C   UNL     1      32.049  -6.731 -21.348  0.00  0.00    +0.151 C 
ATOM     24  C   UNL     1      33.414  -6.616 -22.015  0.00  0.00    +0.031 C 
ATOM     25  C   UNL     1      31.955  -5.788 -20.147  0.00  0.00    +0.247 C 
ATOM     26  C   UNL     1      30.369  -5.077 -21.610  0.00  0.00    +0.307 C 
ATOM     27  H   UNL     1      30.773  -6.535 -23.074  0.00  0.00    +0.151 HD
ATOM     28  H   UNL     1      30.706  -4.153 -19.760  0.00  0.00    +0.159 HD
ENDBRANCH  18  23
ENDBRANCH   1  18
TORSDOF 5
ENDMDL
MODEL 6
REMARK VINA RESULT:     -10.4      2.761      4.573
REMARK  Name = 24751752
REMARK  5 active torsions:
REMARK  status: ('A' for Active; 'I' for Inactive)
REMARK    1  A    between atoms: S_1  and  N_4
REMARK    2  A    between atoms: S_1  and  C_18
REMARK    3  A    between atoms: C_7  and  O_10
REMARK    4  A    between atoms: O_10  and  C_13
REMARK    5  A    between atoms: C_18  and  C_23
REMARK                            x       y       z     vdW  Elec       q    Type
REMARK                         _______ _______ _______ _____ _____    ______ ____
ROOT
ATOM      1  S   UNL     1      33.636 -23.138 -15.861  0.00  0.00    +0.046 S 
ATOM      2  O   UNL     1      33.629 -22.111 -14.843  0.00  0.00    -0.157 OA
ATOM      3  O   UNL     1      34.451 -24.326 -15.740  0.00  0.00    -0.157 OA
ENDROOT
BRANCH   1   4
ATOM      4  N   UNL     1      33.954 -22.405 -17.377  0.00  0.00    -0.159 NA
ATOM      5  C   UNL     1      35.192 -21.571 -17.435  0.00  0.00    +0.099 C 
ATOM      6  C   UNL     1      32.787 -21.724 -18.012  0.00  0.00    +0.099 C 
ATOM      7  C   UNL     1      34.375 -20.595 -19.609  0.00  0.00    +0.170 C 
ATOM      8  C   UNL     1      35.540 -21.273 -18.888  0.00  0.00    +0.063 C 
ATOM      9  C   UNL     1      33.103 -21.427 -19.474  0.00  0.00    +0.063 C 
BRANCH   7  10
ATOM     10  O   UNL     1      34.683 -20.449 -20.991  0.00  0.00    -0.464 OA
BRANCH  10  13
ATOM     11 CL   UNL     1      34.477 -15.026 -23.074  0.00  0.00    -0.081 Cl
ATOM     12  N   UNL     1      34.940 -18.166 -20.667  0.00  0.00    -0.209 NA
ATOM     13  C   UNL     1      34.628 -19.180 -21.505  0.00  0.00    +0.225 C 
ATOM     14  C   UNL     1      34.262 -19.007 -22.829  0.00  0.00    +0.059 C 
ATOM     15  C   UNL     1      34.214 -17.710 -23.327  0.00  0.00    +0.018 C 
ATOM     16  C   UNL     1      34.882 -16.919 -21.185  0.00  0.00    +0.113 C 
ATOM     17  C   UNL     1      34.529 -16.640 -22.496  0.00  0.00    +0.077 C 
ENDBRANCH  10  13
ENDBRANCH   7  10
ENDBRANCH   1   4
BRANCH   1  18
ATOM     18  C   UNL     1      31.959 -23.646 -16.140  0.00  0.00    +0.196 C 
BRANCH  18  23
ATOM     19  O   UNL     1      29.912 -25.651 -15.080  0.00  0.00    -0.273 OA
ATOM     20  O   UNL     1      28.333 -21.361 -14.732  0.00  0.00    -0.252 OA
ATOM     21  N   UNL     1      30.498 -22.242 -14.775  0.00  0.00    -0.283 N 
ATOM     22  N   UNL     1      28.772 -23.637 -14.922  0.00  0.00    -0.238 N 
ATOM     23  C   UNL     1      31.131 -23.541 -14.880  0.00  0.00    +0.151 C 
ATOM     24  C   UNL     1      31.932 -23.867 -13.626  0.00  0.00    +0.031 C 
ATOM     25  C   UNL     1      29.890 -24.433 -14.974  0.00  0.00    +0.247 C 
ATOM     26  C   UNL     1      29.105 -22.308 -14.803  0.00  0.00    +0.307 C 
ATOM     27  H   UNL     1      31.001 -21.398 -14.693  0.00  0.00    +0.151 HD
ATOM     28  H   UNL     1      27.848 -23.975 -14.964  0.00  0.00    +0.159 HD
ENDBRANCH  18  23
ENDBRANCH   1  18
TORSDOF 5
ENDMDL
MODEL 7
REMARK VINA RESULT:     -10.4      2.063      2.796
REMARK  Name = 24751752
REMARK  5 active torsions:
REMARK  status: ('A' for Active; 'I' for Inactive)
REMARK    1  A    between atoms: S_1  and  N_4
REMARK    2  A    between atoms: S_1  and  C_18
REMARK    3  A    between atoms: C_7  and  O_10
REMARK    4  A    between atoms: O_10  and  C_13
REMARK    5  A    between atoms: C_18  and  C_23
REMARK                            x       y       z     vdW  Elec       q    Type
REMARK                         _______ _______ _______ _____ _____    ______ ____
ROOT
ATOM      1  S   UNL     1      33.436 -22.732 -16.898  0.00  0.00    +0.046 S 
ATOM      2  O   UNL     1      33.423 -24.147 -17.196  0.00  0.00    -0.157 OA
ATOM      3  O   UNL     1      32.338 -22.087 -16.212  0.00  0.00    -0.157 OA
ENDROOT
BRANCH   1   4
ATOM      4  N   UNL     1      33.765 -21.871 -18.343  0.00  0.00    -0.159 NA
ATOM      5  C   UNL     1      35.126 -21.264 -18.428  0.00  0.00    +0.099 C 
ATOM      6  C   UNL     1      32.697 -20.921 -18.775  0.00  0.00    +0.099 C 
ATOM      7  C   UNL     1      34.336 -19.883 -20.381  0.00  0.00    +0.170 C 
ATOM      8  C   UNL     1      35.409 -20.841 -19.864  0.00  0.00    +0.063 C 
ATOM      9  C   UNL     1      32.947 -20.493 -20.216  0.00  0.00    +0.063 C 
BRANCH   7  10
ATOM     10  O   UNL     1      34.558 -19.611 -21.760  0.00  0.00    -0.464 OA
BRANCH  10  13
ATOM     11 CL   UNL     1      34.076 -14.099 -23.543  0.00  0.00    -0.081 Cl
ATOM     12  N   UNL     1      34.048 -18.081 -23.428  0.00  0.00    -0.209 NA
ATOM     13  C   UNL     1      34.451 -18.304 -22.157  0.00  0.00    +0.225 C 
ATOM     14  C   UNL     1      34.757 -17.300 -21.253  0.00  0.00    +0.059 C 
ATOM     15  C   UNL     1      34.641 -15.982 -21.680  0.00  0.00    +0.018 C 
ATOM     16  C   UNL     1      33.946 -16.788 -23.808  0.00  0.00    +0.113 C 
ATOM     17  C   UNL     1      34.228 -15.712 -22.980  0.00  0.00    +0.077 C 
ENDBRANCH  10  13
ENDBRANCH   7  10
ENDBRANCH   1   4
BRANCH   1  18
ATOM     18  C   UNL     1      34.928 -22.372 -16.009  0.00  0.00    +0.196 C 
BRANCH  18  23
ATOM     19  O   UNL     1      35.582 -25.248 -15.209  0.00  0.00    -0.273 OA
ATOM     20  O   UNL     1      31.827 -23.760 -13.041  0.00  0.00    -0.252 OA
ATOM     21  N   UNL     1      33.679 -22.641 -13.926  0.00  0.00    -0.283 N 
ATOM     22  N   UNL     1      33.585 -24.858 -14.096  0.00  0.00    -0.238 N 
ATOM     23  C   UNL     1      34.906 -22.973 -14.622  0.00  0.00    +0.151 C 
ATOM     24  C   UNL     1      36.128 -22.586 -13.798  0.00  0.00    +0.031 C 
ATOM     25  C   UNL     1      34.766 -24.495 -14.696  0.00  0.00    +0.247 C 
ATOM     26  C   UNL     1      32.904 -23.760 -13.622  0.00  0.00    +0.307 C 
ATOM     27  H   UNL     1      33.419 -21.720 -13.693  0.00  0.00    +0.151 HD
ATOM     28  H   UNL     1      33.266 -25.786 -14.015  0.00  0.00    +0.159 HD
ENDBRANCH  18  23
ENDBRANCH   1  18
TORSDOF 5
ENDMDL
MODEL 8
REMARK VINA RESULT:     -10.1      8.524     13.324
REMARK  Name = 24751752
REMARK  5 active torsions:
REMARK  status: ('A' for Active; 'I' for Inactive)
REMARK    1  A    between atoms: S_1  and  N_4
REMARK    2  A    between atoms: S_1  and  C_18
REMARK    3  A    between atoms: C_7  and  O_10
REMARK    4  A    between atoms: O_10  and  C_13
REMARK    5  A    between atoms: C_18  and  C_23
REMARK                            x       y       z     vdW  Elec       q    Type
REMARK                         _______ _______ _______ _____ _____    ______ ____
ROOT
ATOM      1  S   UNL     1      31.444 -10.719 -21.606  0.00  0.00    +0.046 S 
ATOM      2  O   UNL     1      31.916 -10.596 -20.245  0.00  0.00    -0.157 OA
ATOM      3  O   UNL     1      30.035 -10.693 -21.929  0.00  0.00    -0.157 OA
ENDROOT
BRANCH   1   4
ATOM      4  N   UNL     1      32.143 -12.118 -22.305  0.00  0.00    -0.159 NA
ATOM      5  C   UNL     1      32.936 -12.971 -21.370  0.00  0.00    +0.099 C 
ATOM      6  C   UNL     1      32.851 -11.896 -23.601  0.00  0.00    +0.099 C 
ATOM      7  C   UNL     1      33.905 -14.172 -23.362  0.00  0.00    +0.170 C 
ATOM      8  C   UNL     1      33.200 -14.326 -22.014  0.00  0.00    +0.063 C 
ATOM      9  C   UNL     1      33.116 -13.237 -24.275  0.00  0.00    +0.063 C 
BRANCH   7  10
ATOM     10  O   UNL     1      34.019 -15.442 -23.993  0.00  0.00    -0.464 OA
BRANCH  10  13
ATOM     11 CL   UNL     1      35.076 -19.939 -20.465  0.00  0.00    -0.081 Cl
ATOM     12  N   UNL     1      34.909 -16.275 -22.019  0.00  0.00    -0.209 NA
ATOM     13  C   UNL     1      34.256 -16.517 -23.179  0.00  0.00    +0.225 C 
ATOM     14  C   UNL     1      33.824 -17.771 -23.577  0.00  0.00    +0.059 C 
ATOM     15  C   UNL     1      34.076 -18.846 -22.732  0.00  0.00    +0.018 C 
ATOM     16  C   UNL     1      35.137 -17.344 -21.224  0.00  0.00    +0.113 C 
ATOM     17  C   UNL     1      34.745 -18.637 -21.531  0.00  0.00    +0.077 C 
ENDBRANCH  10  13
ENDBRANCH   7  10
ENDBRANCH   1   4
BRANCH   1  18
ATOM     18  C   UNL     1      32.255  -9.479 -22.582  0.00  0.00    +0.196 C 
BRANCH  18  23
ATOM     19  O   UNL     1      33.666  -6.802 -23.006  0.00  0.00    -0.273 OA
ATOM     20  O   UNL     1      31.568  -6.919 -18.932  0.00  0.00    -0.252 OA
ATOM     21  N   UNL     1      31.159  -8.036 -20.945  0.00  0.00    -0.283 N 
ATOM     22  N   UNL     1      32.863  -6.610 -20.839  0.00  0.00    -0.238 N 
ATOM     23  C   UNL     1      31.725  -8.097 -22.277  0.00  0.00    +0.151 C 
ATOM     24  C   UNL     1      30.730  -7.609 -23.322  0.00  0.00    +0.031 C 
ATOM     25  C   UNL     1      32.876  -7.100 -22.122  0.00  0.00    +0.247 C 
ATOM     26  C   UNL     1      31.839  -7.157 -20.101  0.00  0.00    +0.307 C 
ATOM     27  H   UNL     1      30.374  -8.561 -20.663  0.00  0.00    +0.151 HD
ATOM     28  H   UNL     1      33.507  -5.951 -20.490  0.00  0.00    +0.159 HD
ENDBRANCH  18  23
ENDBRANCH   1  18
TORSDOF 5
ENDMDL
MODEL 9
REMARK VINA RESULT:     -10.0      9.426     14.794
REMARK  Name = 24751752
REMARK  5 active torsions:
REMARK  status: ('A' for Active; 'I' for Inactive)
REMARK    1  A    between atoms: S_1  and  N_4
REMARK    2  A    between atoms: S_1  and  C_18
REMARK    3  A    between atoms: C_7  and  O_10
REMARK    4  A    between atoms: O_10  and  C_13
REMARK    5  A    between atoms: C_18  and  C_23
REMARK                            x       y       z     vdW  Elec       q    Type
REMARK                         _______ _______ _______ _____ _____    ______ ____
ROOT
ATOM      1  S   UNL     1      31.252  -9.042 -22.087  0.00  0.00    +0.046 S 
ATOM      2  O   UNL     1      31.559  -8.875 -20.684  0.00  0.00    -0.157 OA
ATOM      3  O   UNL     1      29.909  -8.877 -22.598  0.00  0.00    -0.157 OA
ENDROOT
BRANCH   1   4
ATOM      4  N   UNL     1      31.855 -10.560 -22.603  0.00  0.00    -0.159 NA
ATOM      5  C   UNL     1      31.729 -11.668 -21.610  0.00  0.00    +0.099 C 
ATOM      6  C   UNL     1      33.205 -10.526 -23.241  0.00  0.00    +0.099 C 
ATOM      7  C   UNL     1      33.331 -13.030 -22.998  0.00  0.00    +0.170 C 
ATOM      8  C   UNL     1      31.971 -13.004 -22.301  0.00  0.00    +0.063 C 
ATOM      9  C   UNL     1      33.467 -11.848 -23.953  0.00  0.00    +0.063 C 
BRANCH   7  10
ATOM     10  O   UNL     1      33.470 -14.238 -23.739  0.00  0.00    -0.464 OA
BRANCH  10  13
ATOM     11 CL   UNL     1      35.466 -18.927 -20.943  0.00  0.00    -0.081 Cl
ATOM     12  N   UNL     1      34.166 -16.450 -23.780  0.00  0.00    -0.209 NA
ATOM     13  C   UNL     1      33.941 -15.329 -23.058  0.00  0.00    +0.225 C 
ATOM     14  C   UNL     1      34.156 -15.229 -21.694  0.00  0.00    +0.059 C 
ATOM     15  C   UNL     1      34.634 -16.351 -21.026  0.00  0.00    +0.018 C 
ATOM     16  C   UNL     1      34.630 -17.521 -23.097  0.00  0.00    +0.113 C 
ATOM     17  C   UNL     1      34.879 -17.523 -21.734  0.00  0.00    +0.077 C 
ENDBRANCH  10  13
ENDBRANCH   7  10
ENDBRANCH   1   4
BRANCH   1  18
ATOM     18  C   UNL     1      32.329  -7.980 -23.015  0.00  0.00    +0.196 C 
BRANCH  18  23
ATOM     19  O   UNL     1      33.788  -5.342 -23.514  0.00  0.00    -0.273 OA
ATOM     20  O   UNL     1      30.409  -4.793 -20.465  0.00  0.00    -0.252 OA
ATOM     21  N   UNL     1      30.726  -6.325 -22.202  0.00  0.00    -0.283 N 
ATOM     22  N   UNL     1      32.283  -4.776 -21.842  0.00  0.00    -0.238 N 
ATOM     23  C   UNL     1      31.719  -6.611 -23.217  0.00  0.00    +0.151 C 
ATOM     24  C   UNL     1      31.146  -6.428 -24.616  0.00  0.00    +0.031 C 
ATOM     25  C   UNL     1      32.741  -5.515 -22.906  0.00  0.00    +0.247 C 
ATOM     26  C   UNL     1      31.069  -5.241 -21.393  0.00  0.00    +0.307 C 
ATOM     27  H   UNL     1      29.895  -6.843 -22.093  0.00  0.00    +0.151 HD
ATOM     28  H   UNL     1      32.763  -4.011 -21.451  0.00  0.00    +0.159 HD
ENDBRANCH  18  23
ENDBRANCH   1  18
TORSDOF 5
ENDMDL
