MODEL 1
REMARK VINA RESULT:     -10.8      0.000      0.000
REMARK  Name = 11152667
REMARK  4 active torsions:
REMARK  status: ('A' for Active; 'I' for Inactive)
REMARK    1  A    between atoms: C_2  and  C_22
REMARK    2  A    between atoms: C_3  and  N_14
REMARK    3  A    between atoms: C_4  and  C_7
REMARK    4  A    between atoms: N_21  and  C_25
REMARK                            x       y       z     vdW  Elec       q    Type
REMARK                         _______ _______ _______ _____ _____    ______ ____
ROOT
ATOM      1  S   UNL     1      34.043 -22.580 -15.629  0.00  0.00    -0.081 S 
ATOM      2  C   UNL     1      32.937 -23.476 -14.727  0.00  0.00    +0.096 C 
ATOM      3  C   UNL     1      31.744 -23.683 -15.308  0.00  0.00    +0.062 C 
ATOM      4  C   UNL     1      32.896 -22.434 -16.894  0.00  0.00    +0.031 C 
ATOM      5  C   UNL     1      31.712 -23.069 -16.594  0.00  0.00    +0.022 C 
ENDROOT
BRANCH   4   7
ATOM      6  F   UNL     1      36.242 -20.767 -19.945  0.00  0.00    -0.204 F 
ATOM      7  C   UNL     1      33.260 -21.702 -18.084  0.00  0.00    +0.008 C 
ATOM      8  C   UNL     1      34.602 -21.586 -18.447  0.00  0.00    +0.030 C 
ATOM      9  C   UNL     1      32.271 -21.114 -18.870  0.00  0.00    +0.001 C 
ATOM     10  C   UNL     1      34.954 -20.880 -19.597  0.00  0.00    +0.140 C 
ATOM     11  C   UNL     1      32.622 -20.408 -20.020  0.00  0.00    +0.002 C 
ATOM     12  C   UNL     1      33.964 -20.291 -20.384  0.00  0.00    +0.030 C 
ENDBRANCH   4   7
BRANCH   3  14
ATOM     13  O   UNL     1      28.907 -22.852 -14.839  0.00  0.00    -0.253 OA
ATOM     14  N   UNL     1      30.694 -24.387 -14.753  0.00  0.00    -0.268 N 
ATOM     15  N   UNL     1      28.595 -24.941 -13.966  0.00  0.00    -0.313 N 
ATOM     16  C   UNL     1      29.374 -23.952 -14.552  0.00  0.00    +0.301 C 
ATOM     17  H   UNL     1      30.894 -25.306 -14.463  0.00  0.00    +0.156 HD
ATOM     18  H   UNL     1      27.646 -24.767 -13.769  0.00  0.00    +0.146 HD
ATOM     19  H   UNL     1      28.991 -25.814 -13.746  0.00  0.00    +0.146 HD
ENDBRANCH   3  14
BRANCH   2  22
ATOM     20  O   UNL     1      32.544 -24.214 -12.536  0.00  0.00    -0.270 OA
ATOM     21  N   UNL     1      34.756 -24.065 -13.218  0.00  0.00    -0.304 N 
ATOM     22  C   UNL     1      33.385 -23.944 -13.391  0.00  0.00    +0.253 C 
ATOM     23  H   UNL     1      35.350 -23.823 -13.966  0.00  0.00    +0.150 HD
BRANCH  21  25
ATOM     24  N   UNL     1      36.705 -22.505 -11.491  0.00  0.00    +0.385 N 
ATOM     25  C   UNL     1      35.347 -24.532 -11.982  0.00  0.00    +0.051 C 
ATOM     26  C   UNL     1      36.629 -25.325 -12.250  0.00  0.00    +0.015 C 
ATOM     27  C   UNL     1      37.780 -24.404 -12.652  0.00  0.00    -0.022 C 
ATOM     28  C   UNL     1      35.616 -23.367 -11.023  0.00  0.00    -0.062 C 
ATOM     29  C   UNL     1      37.948 -23.258 -11.658  0.00  0.00    -0.082 C 
ATOM     30  H   UNL     1      36.856 -21.762 -10.809  0.00  0.00    -0.084 HD
ATOM     31  H   UNL     1      36.441 -22.118 -12.397  0.00  0.00    -0.084 HD
ENDBRANCH  21  25
ENDBRANCH   2  22
TORSDOF 4
ENDMDL
MODEL 2
REMARK VINA RESULT:     -10.8      1.179      1.562
REMARK  Name = 11152667
REMARK  4 active torsions:
REMARK  status: ('A' for Active; 'I' for Inactive)
REMARK    1  A    between atoms: C_2  and  C_22
REMARK    2  A    between atoms: C_3  and  N_14
REMARK    3  A    between atoms: C_4  and  C_7
REMARK    4  A    between atoms: N_21  and  C_25
REMARK                            x       y       z     vdW  Elec       q    Type
REMARK                         _______ _______ _______ _____ _____    ______ ____
ROOT
ATOM      1  S   UNL     1      34.378 -22.500 -16.148  0.00  0.00    -0.081 S 
ATOM      2  C   UNL     1      33.054 -23.183 -15.359  0.00  0.00    +0.096 C 
ATOM      3  C   UNL     1      31.882 -23.096 -16.008  0.00  0.00    +0.062 C 
ATOM      4  C   UNL     1      33.367 -22.043 -17.453  0.00  0.00    +0.031 C 
ATOM      5  C   UNL     1      32.058 -22.422 -17.251  0.00  0.00    +0.022 C 
ENDROOT
BRANCH   4   7
ATOM      6  F   UNL     1      32.895 -19.466 -21.505  0.00  0.00    -0.204 F 
ATOM      7  C   UNL     1      33.949 -21.345 -18.575  0.00  0.00    +0.008 C 
ATOM      8  C   UNL     1      33.124 -20.730 -19.516  0.00  0.00    +0.030 C 
ATOM      9  C   UNL     1      35.334 -21.285 -18.714  0.00  0.00    +0.001 C 
ATOM     10  C   UNL     1      33.687 -20.055 -20.600  0.00  0.00    +0.140 C 
ATOM     11  C   UNL     1      35.897 -20.610 -19.798  0.00  0.00    +0.002 C 
ATOM     12  C   UNL     1      35.073 -19.995 -20.740  0.00  0.00    +0.030 C 
ENDBRANCH   4   7
BRANCH   3  14
ATOM     13  O   UNL     1      29.092 -22.172 -16.579  0.00  0.00    -0.253 OA
ATOM     14  N   UNL     1      30.674 -23.585 -15.550  0.00  0.00    -0.268 N 
ATOM     15  N   UNL     1      28.408 -23.860 -15.199  0.00  0.00    -0.313 N 
ATOM     16  C   UNL     1      29.385 -23.115 -15.847  0.00  0.00    +0.301 C 
ATOM     17  H   UNL     1      30.723 -24.356 -14.941  0.00  0.00    +0.156 HD
ATOM     18  H   UNL     1      27.458 -23.637 -15.321  0.00  0.00    +0.146 HD
ATOM     19  H   UNL     1      28.667 -24.612 -14.618  0.00  0.00    +0.146 HD
ENDBRANCH   3  14
BRANCH   2  22
ATOM     20  O   UNL     1      32.388 -24.363 -13.445  0.00  0.00    -0.270 OA
ATOM     21  N   UNL     1      34.616 -23.730 -13.571  0.00  0.00    -0.304 N 
ATOM     22  C   UNL     1      33.311 -23.807 -14.036  0.00  0.00    +0.253 C 
ATOM     23  H   UNL     1      35.286 -23.261 -14.120  0.00  0.00    +0.150 HD
BRANCH  21  25
ATOM     24  N   UNL     1      36.466 -22.428 -11.547  0.00  0.00    +0.385 N 
ATOM     25  C   UNL     1      35.029 -24.311 -12.312  0.00  0.00    +0.051 C 
ATOM     26  C   UNL     1      36.274 -25.186 -12.492  0.00  0.00    +0.015 C 
ATOM     27  C   UNL     1      37.525 -24.336 -12.707  0.00  0.00    -0.022 C 
ATOM     28  C   UNL     1      35.272 -23.227 -11.255  0.00  0.00    -0.062 C 
ATOM     29  C   UNL     1      37.663 -23.265 -11.628  0.00  0.00    -0.082 C 
ATOM     30  H   UNL     1      36.592 -21.739 -10.806  0.00  0.00    -0.084 HD
ATOM     31  H   UNL     1      36.333 -21.971 -12.449  0.00  0.00    -0.084 HD
ENDBRANCH  21  25
ENDBRANCH   2  22
TORSDOF 4
ENDMDL
MODEL 3
REMARK VINA RESULT:     -10.7      0.946      1.086
REMARK  Name = 11152667
REMARK  4 active torsions:
REMARK  status: ('A' for Active; 'I' for Inactive)
REMARK    1  A    between atoms: C_2  and  C_22
REMARK    2  A    between atoms: C_3  and  N_14
REMARK    3  A    between atoms: C_4  and  C_7
REMARK    4  A    between atoms: N_21  and  C_25
REMARK                            x       y       z     vdW  Elec       q    Type
REMARK                         _______ _______ _______ _____ _____    ______ ____
ROOT
ATOM      1  S   UNL     1      34.476 -22.593 -15.955  0.00  0.00    -0.081 S 
ATOM      2  C   UNL     1      33.466 -23.471 -14.931  0.00  0.00    +0.096 C 
ATOM      3  C   UNL     1      32.192 -23.591 -15.334  0.00  0.00    +0.062 C 
ATOM      4  C   UNL     1      33.166 -22.332 -17.028  0.00  0.00    +0.031 C 
ATOM      5  C   UNL     1      32.005 -22.919 -16.577  0.00  0.00    +0.022 C 
ENDROOT
BRANCH   4   7
ATOM      6  F   UNL     1      36.161 -20.370 -20.263  0.00  0.00    -0.204 F 
ATOM      7  C   UNL     1      33.391 -21.568 -18.232  0.00  0.00    +0.008 C 
ATOM      8  C   UNL     1      34.693 -21.334 -18.674  0.00  0.00    +0.030 C 
ATOM      9  C   UNL     1      32.308 -21.066 -18.950  0.00  0.00    +0.001 C 
ATOM     10  C   UNL     1      34.911 -20.596 -19.838  0.00  0.00    +0.140 C 
ATOM     11  C   UNL     1      32.526 -20.328 -20.114  0.00  0.00    +0.002 C 
ATOM     12  C   UNL     1      33.827 -20.093 -20.558  0.00  0.00    +0.030 C 
ENDBRANCH   4   7
BRANCH   3  14
ATOM     13  O   UNL     1      29.718 -22.545 -14.012  0.00  0.00    -0.253 OA
ATOM     14  N   UNL     1      31.196 -24.265 -14.654  0.00  0.00    -0.268 N 
ATOM     15  N   UNL     1      29.274 -24.716 -13.455  0.00  0.00    -0.313 N 
ATOM     16  C   UNL     1      30.050 -23.727 -14.047  0.00  0.00    +0.301 C 
ATOM     17  H   UNL     1      31.303 -25.240 -14.586  0.00  0.00    +0.156 HD
ATOM     18  H   UNL     1      28.439 -24.475 -12.994  0.00  0.00    +0.146 HD
ATOM     19  H   UNL     1      29.561 -25.657 -13.497  0.00  0.00    +0.146 HD
ENDBRANCH   3  14
BRANCH   2  22
ATOM     20  O   UNL     1      33.452 -23.971 -12.640  0.00  0.00    -0.270 OA
ATOM     21  N   UNL     1      35.341 -24.582 -13.840  0.00  0.00    -0.304 N 
ATOM     22  C   UNL     1      34.080 -24.021 -13.695  0.00  0.00    +0.253 C 
ATOM     23  H   UNL     1      35.763 -24.572 -14.730  0.00  0.00    +0.150 HD
BRANCH  21  25
ATOM     24  N   UNL     1      38.069 -23.718 -12.831  0.00  0.00    +0.385 N 
ATOM     25  C   UNL     1      36.058 -25.180 -12.735  0.00  0.00    +0.051 C 
ATOM     26  C   UNL     1      36.901 -26.369 -13.204  0.00  0.00    +0.015 C 
ATOM     27  C   UNL     1      38.134 -25.905 -13.978  0.00  0.00    -0.022 C 
ATOM     28  C   UNL     1      36.929 -24.143 -12.015  0.00  0.00    -0.062 C 
ATOM     29  C   UNL     1      38.917 -24.852 -13.199  0.00  0.00    -0.082 C 
ATOM     30  H   UNL     1      38.625 -23.047 -12.299  0.00  0.00    -0.084 HD
ATOM     31  H   UNL     1      37.712 -23.294 -13.686  0.00  0.00    -0.084 HD
ENDBRANCH  21  25
ENDBRANCH   2  22
TORSDOF 4
ENDMDL
MODEL 4
REMARK VINA RESULT:     -10.5      3.673      6.059
REMARK  Name = 11152667
REMARK  4 active torsions:
REMARK  status: ('A' for Active; 'I' for Inactive)
REMARK    1  A    between atoms: C_2  and  C_22
REMARK    2  A    between atoms: C_3  and  N_14
REMARK    3  A    between atoms: C_4  and  C_7
REMARK    4  A    between atoms: N_21  and  C_25
REMARK                            x       y       z     vdW  Elec       q    Type
REMARK                         _______ _______ _______ _____ _____    ______ ____
ROOT
ATOM      1  S   UNL     1      33.308 -20.545 -20.221  0.00  0.00    -0.081 S 
ATOM      2  C   UNL     1      34.217 -21.456 -19.133  0.00  0.00    +0.096 C 
ATOM      3  C   UNL     1      35.483 -21.048 -18.948  0.00  0.00    +0.062 C 
ATOM      4  C   UNL     1      34.654 -19.521 -20.492  0.00  0.00    +0.031 C 
ATOM      5  C   UNL     1      35.750 -19.900 -19.750  0.00  0.00    +0.022 C 
ENDROOT
BRANCH   4   7
ATOM      6  F   UNL     1      34.553 -14.785 -21.410  0.00  0.00    -0.204 F 
ATOM      7  C   UNL     1      34.518 -18.422 -21.419  0.00  0.00    +0.008 C 
ATOM      8  C   UNL     1      34.603 -17.108 -20.958  0.00  0.00    +0.030 C 
ATOM      9  C   UNL     1      34.304 -18.675 -22.772  0.00  0.00    +0.001 C 
ATOM     10  C   UNL     1      34.473 -16.047 -21.853  0.00  0.00    +0.140 C 
ATOM     11  C   UNL     1      34.174 -17.613 -23.668  0.00  0.00    +0.002 C 
ATOM     12  C   UNL     1      34.258 -16.299 -23.208  0.00  0.00    +0.030 C 
ENDBRANCH   4   7
BRANCH   3  14
ATOM     13  O   UNL     1      35.603 -21.097 -15.957  0.00  0.00    -0.253 OA
ATOM     14  N   UNL     1      36.402 -21.643 -18.107  0.00  0.00    -0.268 N 
ATOM     15  N   UNL     1      37.502 -22.344 -16.201  0.00  0.00    -0.313 N 
ATOM     16  C   UNL     1      36.417 -21.637 -16.703  0.00  0.00    +0.301 C 
ATOM     17  H   UNL     1      37.137 -22.129 -18.544  0.00  0.00    +0.156 HD
ATOM     18  H   UNL     1      37.632 -22.420 -15.229  0.00  0.00    +0.146 HD
ATOM     19  H   UNL     1      38.140 -22.769 -16.819  0.00  0.00    +0.146 HD
ENDBRANCH   3  14
BRANCH   2  22
ATOM     20  O   UNL     1      33.392 -23.651 -19.128  0.00  0.00    -0.270 OA
ATOM     21  N   UNL     1      33.128 -22.421 -17.179  0.00  0.00    -0.304 N 
ATOM     22  C   UNL     1      33.537 -22.610 -18.492  0.00  0.00    +0.253 C 
ATOM     23  H   UNL     1      33.289 -21.548 -16.755  0.00  0.00    +0.150 HD
BRANCH  21  25
ATOM     24  N   UNL     1      30.703 -22.036 -15.396  0.00  0.00    +0.385 N 
ATOM     25  C   UNL     1      32.474 -23.459 -16.411  0.00  0.00    +0.051 C 
ATOM     26  C   UNL     1      33.129 -23.623 -15.037  0.00  0.00    +0.015 C 
ATOM     27  C   UNL     1      32.766 -22.466 -14.106  0.00  0.00    -0.022 C 
ATOM     28  C   UNL     1      30.972 -23.180 -16.271  0.00  0.00    -0.062 C 
ATOM     29  C   UNL     1      31.257 -22.243 -14.058  0.00  0.00    -0.082 C 
ATOM     30  H   UNL     1      29.693 -21.908 -15.320  0.00  0.00    -0.084 HD
ATOM     31  H   UNL     1      31.144 -21.211 -15.801  0.00  0.00    -0.084 HD
ENDBRANCH  21  25
ENDBRANCH   2  22
TORSDOF 4
ENDMDL
MODEL 5
REMARK VINA RESULT:     -10.4      3.705      5.448
REMARK  Name = 11152667
REMARK  4 active torsions:
REMARK  status: ('A' for Active; 'I' for Inactive)
REMARK    1  A    between atoms: C_2  and  C_22
REMARK    2  A    between atoms: C_3  and  N_14
REMARK    3  A    between atoms: C_4  and  C_7
REMARK    4  A    between atoms: N_21  and  C_25
REMARK                            x       y       z     vdW  Elec       q    Type
REMARK                         _______ _______ _______ _____ _____    ______ ____
ROOT
ATOM      1  S   UNL     1      33.079 -23.164 -14.977  0.00  0.00    -0.081 S 
ATOM      2  C   UNL     1      34.301 -22.670 -16.027  0.00  0.00    +0.096 C 
ATOM      3  C   UNL     1      33.899 -22.281 -17.247  0.00  0.00    +0.062 C 
ATOM      4  C   UNL     1      31.909 -22.854 -16.190  0.00  0.00    +0.031 C 
ATOM      5  C   UNL     1      32.481 -22.386 -17.352  0.00  0.00    +0.022 C 
ENDROOT
BRANCH   4   7
ATOM      6  F   UNL     1      28.456 -25.502 -14.104  0.00  0.00    -0.204 F 
ATOM      7  C   UNL     1      30.517 -23.099 -15.895  0.00  0.00    +0.008 C 
ATOM      8  C   UNL     1      30.152 -24.204 -15.126  0.00  0.00    +0.030 C 
ATOM      9  C   UNL     1      29.540 -22.230 -16.377  0.00  0.00    +0.001 C 
ATOM     10  C   UNL     1      28.808 -24.440 -14.841  0.00  0.00    +0.140 C 
ATOM     11  C   UNL     1      28.195 -22.466 -16.092  0.00  0.00    +0.002 C 
ATOM     12  C   UNL     1      27.829 -23.571 -15.324  0.00  0.00    +0.030 C 
ENDBRANCH   4   7
BRANCH   3  14
ATOM     13  O   UNL     1      33.306 -20.485 -19.567  0.00  0.00    -0.253 OA
ATOM     14  N   UNL     1      34.725 -21.840 -18.261  0.00  0.00    -0.268 N 
ATOM     15  N   UNL     1      35.495 -20.769 -20.157  0.00  0.00    -0.313 N 
ATOM     16  C   UNL     1      34.399 -20.994 -19.334  0.00  0.00    +0.301 C 
ATOM     17  H   UNL     1      35.657 -22.156 -18.228  0.00  0.00    +0.156 HD
ATOM     18  H   UNL     1      35.404 -20.192 -20.949  0.00  0.00    +0.146 HD
ATOM     19  H   UNL     1      36.362 -21.188 -19.949  0.00  0.00    +0.146 HD
ENDBRANCH   3  14
BRANCH   2  22
ATOM     20  O   UNL     1      36.425 -21.742 -15.667  0.00  0.00    -0.270 OA
ATOM     21  N   UNL     1      36.052 -23.876 -14.837  0.00  0.00    -0.304 N 
ATOM     22  C   UNL     1      35.692 -22.715 -15.505  0.00  0.00    +0.253 C 
ATOM     23  H   UNL     1      35.392 -24.602 -14.760  0.00  0.00    +0.150 HD
BRANCH  21  25
ATOM     24  N   UNL     1      37.028 -26.394 -13.453  0.00  0.00    +0.385 N 
ATOM     25  C   UNL     1      37.362 -24.061 -14.250  0.00  0.00    +0.051 C 
ATOM     26  C   UNL     1      37.390 -23.570 -12.800  0.00  0.00    +0.015 C 
ATOM     27  C   UNL     1      36.649 -24.533 -11.873  0.00  0.00    -0.022 C 
ATOM     28  C   UNL     1      37.807 -25.526 -14.340  0.00  0.00    -0.062 C 
ATOM     29  C   UNL     1      37.135 -25.968 -12.058  0.00  0.00    -0.082 C 
ATOM     30  H   UNL     1      37.378 -27.350 -13.535  0.00  0.00    -0.084 HD
ATOM     31  H   UNL     1      36.049 -26.341 -13.730  0.00  0.00    -0.084 HD
ENDBRANCH  21  25
ENDBRANCH   2  22
TORSDOF 4
ENDMDL
MODEL 6
REMARK VINA RESULT:     -10.3      2.180      3.047
REMARK  Name = 11152667
REMARK  4 active torsions:
REMARK  status: ('A' for Active; 'I' for Inactive)
REMARK    1  A    between atoms: C_2  and  C_22
REMARK    2  A    between atoms: C_3  and  N_14
REMARK    3  A    between atoms: C_4  and  C_7
REMARK    4  A    between atoms: N_21  and  C_25
REMARK                            x       y       z     vdW  Elec       q    Type
REMARK                         _______ _______ _______ _____ _____    ______ ____
ROOT
ATOM      1  S   UNL     1      36.096 -21.457 -17.352  0.00  0.00    -0.081 S 
ATOM      2  C   UNL     1      35.683 -22.493 -16.088  0.00  0.00    +0.096 C 
ATOM      3  C   UNL     1      34.412 -22.924 -16.081  0.00  0.00    +0.062 C 
ATOM      4  C   UNL     1      34.499 -21.559 -17.961  0.00  0.00    +0.031 C 
ATOM      5  C   UNL     1      33.702 -22.375 -17.189  0.00  0.00    +0.022 C 
ENDROOT
BRANCH   4   7
ATOM      6  F   UNL     1      35.805 -18.946 -21.801  0.00  0.00    -0.204 F 
ATOM      7  C   UNL     1      34.160 -20.824 -19.157  0.00  0.00    +0.008 C 
ATOM      8  C   UNL     1      35.167 -20.229 -19.917  0.00  0.00    +0.030 C 
ATOM      9  C   UNL     1      32.828 -20.710 -19.550  0.00  0.00    +0.001 C 
ATOM     10  C   UNL     1      34.839 -19.519 -21.072  0.00  0.00    +0.140 C 
ATOM     11  C   UNL     1      32.500 -20.001 -20.705  0.00  0.00    +0.002 C 
ATOM     12  C   UNL     1      33.506 -19.405 -21.466  0.00  0.00    +0.030 C 
ENDBRANCH   4   7
BRANCH   3  14
ATOM     13  O   UNL     1      32.081 -22.513 -14.248  0.00  0.00    -0.253 OA
ATOM     14  N   UNL     1      33.859 -23.775 -15.145  0.00  0.00    -0.268 N 
ATOM     15  N   UNL     1      32.492 -24.629 -13.491  0.00  0.00    -0.313 N 
ATOM     16  C   UNL     1      32.760 -23.535 -14.304  0.00  0.00    +0.301 C 
ATOM     17  H   UNL     1      34.286 -24.656 -15.056  0.00  0.00    +0.156 HD
ATOM     18  H   UNL     1      31.745 -24.595 -12.851  0.00  0.00    +0.146 HD
ATOM     19  H   UNL     1      33.050 -25.438 -13.554  0.00  0.00    +0.146 HD
ENDBRANCH   3  14
BRANCH   2  22
ATOM     20  O   UNL     1      37.245 -21.927 -14.433  0.00  0.00    -0.270 OA
ATOM     21  N   UNL     1      37.112 -24.163 -15.037  0.00  0.00    -0.304 N 
ATOM     22  C   UNL     1      36.755 -22.825 -15.115  0.00  0.00    +0.253 C 
ATOM     23  H   UNL     1      36.660 -24.808 -15.628  0.00  0.00    +0.150 HD
BRANCH  21  25
ATOM     24  N   UNL     1      36.879 -26.642 -13.301  0.00  0.00    +0.385 N 
ATOM     25  C   UNL     1      38.121 -24.647 -14.120  0.00  0.00    +0.051 C 
ATOM     26  C   UNL     1      37.975 -23.992 -12.744  0.00  0.00    +0.015 C 
ATOM     27  C   UNL     1      36.772 -24.553 -11.986  0.00  0.00    -0.022 C 
ATOM     28  C   UNL     1      38.077 -26.176 -14.005  0.00  0.00    -0.062 C 
ATOM     29  C   UNL     1      36.797 -26.079 -11.954  0.00  0.00    -0.082 C 
ATOM     30  H   UNL     1      36.910 -27.660 -13.234  0.00  0.00    -0.084 HD
ATOM     31  H   UNL     1      36.060 -26.338 -13.826  0.00  0.00    -0.084 HD
ENDBRANCH  21  25
ENDBRANCH   2  22
TORSDOF 4
ENDMDL
MODEL 7
REMARK VINA RESULT:     -10.0      2.380      5.814
REMARK  Name = 11152667
REMARK  4 active torsions:
REMARK  status: ('A' for Active; 'I' for Inactive)
REMARK    1  A    between atoms: C_2  and  C_22
REMARK    2  A    between atoms: C_3  and  N_14
REMARK    3  A    between atoms: C_4  and  C_7
REMARK    4  A    between atoms: N_21  and  C_25
REMARK                            x       y       z     vdW  Elec       q    Type
REMARK                         _______ _______ _______ _____ _____    ______ ____
ROOT
ATOM      1  S   UNL     1      32.398 -22.127 -17.572  0.00  0.00    -0.081 S 
ATOM      2  C   UNL     1      32.772 -22.964 -16.158  0.00  0.00    +0.096 C 
ATOM      3  C   UNL     1      34.073 -23.002 -15.831  0.00  0.00    +0.062 C 
ATOM      4  C   UNL     1      34.058 -21.770 -17.802  0.00  0.00    +0.031 C 
ATOM      5  C   UNL     1      34.843 -22.295 -16.801  0.00  0.00    +0.022 C 
ENDROOT
BRANCH   4   7
ATOM      6  F   UNL     1      32.932 -19.314 -21.800  0.00  0.00    -0.204 F 
ATOM      7  C   UNL     1      34.452 -20.997 -18.957  0.00  0.00    +0.008 C 
ATOM      8  C   UNL     1      33.482 -20.519 -19.838  0.00  0.00    +0.030 C 
ATOM      9  C   UNL     1      35.800 -20.730 -19.188  0.00  0.00    +0.001 C 
ATOM     10  C   UNL     1      33.863 -19.772 -20.953  0.00  0.00    +0.140 C 
ATOM     11  C   UNL     1      36.180 -19.983 -20.303  0.00  0.00    +0.002 C 
ATOM     12  C   UNL     1      35.212 -19.504 -21.185  0.00  0.00    +0.030 C 
ENDBRANCH   4   7
BRANCH   3  14
ATOM     13  O   UNL     1      35.378 -25.684 -15.575  0.00  0.00    -0.253 OA
ATOM     14  N   UNL     1      34.603 -23.628 -14.720  0.00  0.00    -0.268 N 
ATOM     15  N   UNL     1      35.621 -25.190 -13.357  0.00  0.00    -0.313 N 
ATOM     16  C   UNL     1      35.207 -24.894 -14.649  0.00  0.00    +0.301 C 
ATOM     17  H   UNL     1      34.551 -23.127 -13.875  0.00  0.00    +0.156 HD
ATOM     18  H   UNL     1      36.062 -26.049 -13.167  0.00  0.00    +0.146 HD
ATOM     19  H   UNL     1      35.474 -24.540 -12.632  0.00  0.00    +0.146 HD
ENDBRANCH   3  14
BRANCH   2  22
ATOM     20  O   UNL     1      31.849 -24.133 -14.347  0.00  0.00    -0.270 OA
ATOM     21  N   UNL     1      30.386 -23.433 -16.006  0.00  0.00    -0.304 N 
ATOM     22  C   UNL     1      31.636 -23.572 -15.419  0.00  0.00    +0.253 C 
ATOM     23  H   UNL     1      30.319 -22.966 -16.870  0.00  0.00    +0.150 HD
BRANCH  21  25
ATOM     24  N   UNL     1      27.561 -22.967 -17.012  0.00  0.00    +0.385 N 
ATOM     25  C   UNL     1      29.179 -23.950 -15.397  0.00  0.00    +0.051 C 
ATOM     26  C   UNL     1      28.664 -23.004 -14.308  0.00  0.00    +0.015 C 
ATOM     27  C   UNL     1      28.030 -21.752 -14.912  0.00  0.00    -0.022 C 
ATOM     28  C   UNL     1      28.096 -24.210 -16.451  0.00  0.00    -0.062 C 
ATOM     29  C   UNL     1      26.992 -22.111 -15.972  0.00  0.00    -0.082 C 
ATOM     30  H   UNL     1      26.832 -23.195 -17.689  0.00  0.00    -0.084 HD
ATOM     31  H   UNL     1      28.326 -22.462 -17.459  0.00  0.00    -0.084 HD
ENDBRANCH  21  25
ENDBRANCH   2  22
TORSDOF 4
ENDMDL
MODEL 8
REMARK VINA RESULT:      -9.3      2.865      6.800
REMARK  Name = 11152667
REMARK  4 active torsions:
REMARK  status: ('A' for Active; 'I' for Inactive)
REMARK    1  A    between atoms: C_2  and  C_22
REMARK    2  A    between atoms: C_3  and  N_14
REMARK    3  A    between atoms: C_4  and  C_7
REMARK    4  A    between atoms: N_21  and  C_25
REMARK                            x       y       z     vdW  Elec       q    Type
REMARK                         _______ _______ _______ _____ _____    ______ ____
ROOT
ATOM      1  S   UNL     1      34.154 -24.041 -13.084  0.00  0.00    -0.081 S 
ATOM      2  C   UNL     1      33.072 -23.280 -14.129  0.00  0.00    +0.096 C 
ATOM      3  C   UNL     1      33.577 -22.898 -15.312  0.00  0.00    +0.062 C 
ATOM      4  C   UNL     1      35.399 -23.875 -14.249  0.00  0.00    +0.031 C 
ATOM      5  C   UNL     1      34.957 -23.248 -15.393  0.00  0.00    +0.022 C 
ENDROOT
BRANCH   4   7
ATOM      6  F   UNL     1      39.938 -24.863 -15.557  0.00  0.00    -0.204 F 
ATOM      7  C   UNL     1      36.717 -24.379 -13.939  0.00  0.00    +0.008 C 
ATOM      8  C   UNL     1      37.710 -24.377 -14.917  0.00  0.00    +0.030 C 
ATOM      9  C   UNL     1      36.993 -24.864 -12.662  0.00  0.00    +0.001 C 
ATOM     10  C   UNL     1      38.983 -24.863 -14.617  0.00  0.00    +0.140 C 
ATOM     11  C   UNL     1      38.266 -25.349 -12.362  0.00  0.00    +0.002 C 
ATOM     12  C   UNL     1      39.261 -25.349 -13.340  0.00  0.00    +0.030 C 
ENDBRANCH   4   7
BRANCH   3  14
ATOM     13  O   UNL     1      33.281 -23.610 -18.205  0.00  0.00    -0.253 OA
ATOM     14  N   UNL     1      32.875 -22.261 -16.315  0.00  0.00    -0.268 N 
ATOM     15  N   UNL     1      31.971 -21.746 -18.377  0.00  0.00    -0.313 N 
ATOM     16  C   UNL     1      32.766 -22.634 -17.665  0.00  0.00    +0.301 C 
ATOM     17  H   UNL     1      32.391 -21.445 -16.053  0.00  0.00    +0.156 HD
ATOM     18  H   UNL     1      31.811 -21.891 -19.338  0.00  0.00    +0.146 HD
ATOM     19  H   UNL     1      31.568 -20.971 -17.922  0.00  0.00    +0.146 HD
ENDBRANCH   3  14
BRANCH   2  22
ATOM     20  O   UNL     1      31.489 -22.595 -12.540  0.00  0.00    -0.270 OA
ATOM     21  N   UNL     1      30.678 -23.527 -14.504  0.00  0.00    -0.304 N 
ATOM     22  C   UNL     1      31.680 -23.106 -13.641  0.00  0.00    +0.253 C 
ATOM     23  H   UNL     1      30.933 -23.926 -15.367  0.00  0.00    +0.150 HD
BRANCH  21  25
ATOM     24  N   UNL     1      28.383 -24.613 -16.166  0.00  0.00    +0.385 N 
ATOM     25  C   UNL     1      29.272 -23.402 -14.183  0.00  0.00    +0.051 C 
ATOM     26  C   UNL     1      28.698 -22.091 -14.727  0.00  0.00    +0.015 C 
ATOM     27  C   UNL     1      28.523 -22.148 -16.244  0.00  0.00    -0.022 C 
ATOM     28  C   UNL     1      28.477 -24.605 -14.704  0.00  0.00    -0.062 C 
ATOM     29  C   UNL     1      27.751 -23.394 -16.669  0.00  0.00    -0.082 C 
ATOM     30  H   UNL     1      27.828 -25.419 -16.458  0.00  0.00    -0.084 HD
ATOM     31  H   UNL     1      29.327 -24.666 -16.548  0.00  0.00    -0.084 HD
ENDBRANCH  21  25
ENDBRANCH   2  22
TORSDOF 4
ENDMDL
MODEL 9
REMARK VINA RESULT:      -9.0     12.063     15.160
REMARK  Name = 11152667
REMARK  4 active torsions:
REMARK  status: ('A' for Active; 'I' for Inactive)
REMARK    1  A    between atoms: C_2  and  C_22
REMARK    2  A    between atoms: C_3  and  N_14
REMARK    3  A    between atoms: C_4  and  C_7
REMARK    4  A    between atoms: N_21  and  C_25
REMARK                            x       y       z     vdW  Elec       q    Type
REMARK                         _______ _______ _______ _____ _____    ______ ____
ROOT
ATOM      1  S   UNL     1      33.122 -11.749 -23.596  0.00  0.00    -0.081 S 
ATOM      2  C   UNL     1      32.166 -10.719 -22.666  0.00  0.00    +0.096 C 
ATOM      3  C   UNL     1      31.646 -11.256 -21.551  0.00  0.00    +0.062 C 
ATOM      4  C   UNL     1      32.854 -13.015 -22.473  0.00  0.00    +0.031 C 
ATOM      5  C   UNL     1      32.050 -12.617 -21.428  0.00  0.00    +0.022 C 
ENDROOT
BRANCH   4   7
ATOM      6  F   UNL     1      35.214 -16.913 -20.887  0.00  0.00    -0.204 F 
ATOM      7  C   UNL     1      33.462 -14.302 -22.715  0.00  0.00    +0.008 C 
ATOM      8  C   UNL     1      34.056 -15.000 -21.663  0.00  0.00    +0.030 C 
ATOM      9  C   UNL     1      33.454 -14.846 -23.998  0.00  0.00    +0.001 C 
ATOM     10  C   UNL     1      34.642 -16.243 -21.897  0.00  0.00    +0.140 C 
ATOM     11  C   UNL     1      34.040 -16.090 -24.231  0.00  0.00    +0.002 C 
ATOM     12  C   UNL     1      34.635 -16.788 -23.181  0.00  0.00    +0.030 C 
ENDBRANCH   4   7
BRANCH   3  14
ATOM     13  O   UNL     1      32.302  -9.052 -19.634  0.00  0.00    -0.253 OA
ATOM     14  N   UNL     1      30.838 -10.597 -20.646  0.00  0.00    -0.268 N 
ATOM     15  N   UNL     1      30.109  -9.149 -19.001  0.00  0.00    -0.313 N 
ATOM     16  C   UNL     1      31.194  -9.565 -19.763  0.00  0.00    +0.301 C 
ATOM     17  H   UNL     1      29.898 -10.887 -20.615  0.00  0.00    +0.156 HD
ATOM     18  H   UNL     1      30.220  -8.428 -18.340  0.00  0.00    +0.146 HD
ATOM     19  H   UNL     1      29.230  -9.575 -19.122  0.00  0.00    +0.146 HD
ENDBRANCH   3  14
BRANCH   2  22
ATOM     20  O   UNL     1      31.162  -9.107 -24.043  0.00  0.00    -0.270 OA
ATOM     21  N   UNL     1      32.794  -8.366 -22.570  0.00  0.00    -0.304 N 
ATOM     22  C   UNL     1      31.994  -9.330 -23.166  0.00  0.00    +0.253 C 
ATOM     23  H   UNL     1      33.432  -8.646 -21.874  0.00  0.00    +0.150 HD
BRANCH  21  25
ATOM     24  N   UNL     1      33.050  -6.032 -20.647  0.00  0.00    +0.385 N 
ATOM     25  C   UNL     1      32.725  -6.966 -22.931  0.00  0.00    +0.051 C 
ATOM     26  C   UNL     1      31.277  -6.467 -22.928  0.00  0.00    +0.015 C 
ATOM     27  C   UNL     1      30.748  -6.304 -21.503  0.00  0.00    -0.022 C 
ATOM     28  C   UNL     1      33.598  -6.113 -22.003  0.00  0.00    -0.062 C 
ATOM     29  C   UNL     1      31.699  -5.471 -20.649  0.00  0.00    -0.082 C 
ATOM     30  H   UNL     1      33.655  -5.438 -20.079  0.00  0.00    -0.084 HD
ATOM     31  H   UNL     1      33.004  -6.975 -20.263  0.00  0.00    -0.084 HD
ENDBRANCH  21  25
ENDBRANCH   2  22
TORSDOF 4
ENDMDL
