MODEL 1
REMARK VINA RESULT:     -12.1      0.000      0.000
REMARK  Name = 54736485
REMARK  5 active torsions:
REMARK  status: ('A' for Active; 'I' for Inactive)
REMARK    1  A    between atoms: C_3  and  C_16
REMARK    2  A    between atoms: C_4  and  O_12
REMARK    3  A    between atoms: C_10  and  O_14
REMARK    4  A    between atoms: C_16  and  C_17
REMARK    5  A    between atoms: C_16  and  C_23
REMARK                            x       y       z     vdW  Elec       q    Type
REMARK                         _______ _______ _______ _____ _____    ______ ____
ROOT
ATOM      1  O   UNL     1      36.434 -19.618 -19.929  0.00  0.00    -0.421 OA
ATOM      2  O   UNL     1      37.213 -18.106 -21.439  0.00  0.00    -0.245 OA
ATOM      3  C   UNL     1      34.907 -18.671 -21.613  0.00  0.00    +0.091 A 
ATOM      4  C   UNL     1      33.892 -19.401 -21.111  0.00  0.00    +0.139 A 
ATOM      5  C   UNL     1      34.101 -20.296 -19.971  0.00  0.00    +0.068 A 
ATOM      6  C   UNL     1      36.268 -18.760 -21.008  0.00  0.00    +0.345 A 
ATOM      7  C   UNL     1      35.372 -20.379 -19.412  0.00  0.00    +0.155 A 
ATOM      8  C   UNL     1      33.086 -21.083 -19.407  0.00  0.00    +0.009 C 
ATOM      9  C   UNL     1      35.657 -21.208 -18.326  0.00  0.00    +0.075 C 
ATOM     10  C   UNL     1      34.639 -21.982 -17.779  0.00  0.00    +0.142 C 
ATOM     11  C   UNL     1      33.354 -21.919 -18.318  0.00  0.00    +0.037 C 
ENDROOT
BRANCH   4  12
ATOM     12  O   UNL     1      32.601 -19.383 -21.595  0.00  0.00    -0.506 OA
ATOM     13  H   UNL     1      32.421 -19.010 -22.434  0.00  0.00    +0.292 HD
ENDBRANCH   4  12
BRANCH  10  14
ATOM     14  O   UNL     1      34.893 -22.796 -16.720  0.00  0.00    -0.471 OA
ATOM     15  C   UNL     1      35.840 -22.334 -15.757  0.00  0.00    +0.252 C 
ENDBRANCH  10  14
BRANCH   3  16
ATOM     16  C   UNL     1      34.813 -17.729 -22.782  0.00  0.00    +0.054 C 
BRANCH  16  17
ATOM     17  C   UNL     1      34.448 -16.329 -22.322  0.00  0.00    -0.018 C 
ATOM     18  C   UNL     1      34.279 -15.309 -23.257  0.00  0.00    -0.004 C 
ATOM     19  C   UNL     1      34.282 -16.064 -20.962  0.00  0.00    -0.004 C 
ATOM     20  C   UNL     1      33.945 -14.023 -22.835  0.00  0.00    -0.000 C 
ATOM     21  C   UNL     1      33.947 -14.778 -20.539  0.00  0.00    -0.000 C 
ATOM     22  C   UNL     1      33.779 -13.757 -21.475  0.00  0.00    -0.000 C 
ENDBRANCH  16  17
BRANCH  16  23
ATOM     23  C   UNL     1      33.852 -18.302 -23.844  0.00  0.00    +0.009 C 
ATOM     24  C   UNL     1      34.358 -19.598 -24.467  0.00  0.00    +0.001 C 
ENDBRANCH  16  23
ENDBRANCH   3  16
TORSDOF 5
ENDMDL
MODEL 2
REMARK VINA RESULT:     -11.1      2.334      7.006
REMARK  Name = 54736485
REMARK  5 active torsions:
REMARK  status: ('A' for Active; 'I' for Inactive)
REMARK    1  A    between atoms: C_3  and  C_16
REMARK    2  A    between atoms: C_4  and  O_12
REMARK    3  A    between atoms: C_10  and  O_14
REMARK    4  A    between atoms: C_16  and  C_17
REMARK    5  A    between atoms: C_16  and  C_23
REMARK                            x       y       z     vdW  Elec       q    Type
REMARK                         _______ _______ _______ _____ _____    ______ ____
ROOT
ATOM      1  O   UNL     1      33.672 -16.633 -24.182  0.00  0.00    -0.421 OA
ATOM      2  O   UNL     1      34.201 -18.840 -24.337  0.00  0.00    -0.245 OA
ATOM      3  C   UNL     1      34.611 -17.807 -22.231  0.00  0.00    +0.091 A 
ATOM      4  C   UNL     1      34.541 -16.673 -21.508  0.00  0.00    +0.139 A 
ATOM      5  C   UNL     1      34.027 -15.435 -22.098  0.00  0.00    +0.068 A 
ATOM      6  C   UNL     1      34.156 -17.822 -23.652  0.00  0.00    +0.345 A 
ATOM      7  C   UNL     1      33.606 -15.452 -23.424  0.00  0.00    +0.155 A 
ATOM      8  C   UNL     1      33.934 -14.223 -21.398  0.00  0.00    +0.009 C 
ATOM      9  C   UNL     1      33.104 -14.317 -24.062  0.00  0.00    +0.075 C 
ATOM     10  C   UNL     1      33.019 -13.123 -23.353  0.00  0.00    +0.142 C 
ATOM     11  C   UNL     1      33.433 -13.076 -22.022  0.00  0.00    +0.037 C 
ENDROOT
BRANCH   4  12
ATOM     12  O   UNL     1      34.931 -16.560 -20.191  0.00  0.00    -0.506 OA
ATOM     13  H   UNL     1      35.646 -17.071 -19.868  0.00  0.00    +0.292 HD
ENDBRANCH   4  12
BRANCH  10  14
ATOM     14  O   UNL     1      32.532 -12.004 -23.955  0.00  0.00    -0.471 OA
ATOM     15  C   UNL     1      32.525 -10.803 -23.184  0.00  0.00    +0.252 C 
ENDBRANCH  10  14
BRANCH   3  16
ATOM     16  C   UNL     1      35.128 -19.130 -21.736  0.00  0.00    +0.054 C 
BRANCH  16  17
ATOM     17  C   UNL     1      34.139 -19.778 -20.785  0.00  0.00    -0.018 C 
ATOM     18  C   UNL     1      32.775 -19.513 -20.909  0.00  0.00    -0.004 C 
ATOM     19  C   UNL     1      34.594 -20.638 -19.785  0.00  0.00    -0.004 C 
ATOM     20  C   UNL     1      31.866 -20.107 -20.035  0.00  0.00    -0.000 C 
ATOM     21  C   UNL     1      33.685 -21.232 -18.910  0.00  0.00    -0.000 C 
ATOM     22  C   UNL     1      32.320 -20.967 -19.035  0.00  0.00    -0.000 C 
ENDBRANCH  16  17
BRANCH  16  23
ATOM     23  C   UNL     1      36.538 -18.952 -21.137  0.00  0.00    +0.009 C 
ATOM     24  C   UNL     1      37.474 -18.161 -22.043  0.00  0.00    +0.001 C 
ENDBRANCH  16  23
ENDBRANCH   3  16
TORSDOF 5
ENDMDL
MODEL 3
REMARK VINA RESULT:     -10.2      5.957      9.090
REMARK  Name = 54736485
REMARK  5 active torsions:
REMARK  status: ('A' for Active; 'I' for Inactive)
REMARK    1  A    between atoms: C_3  and  C_16
REMARK    2  A    between atoms: C_4  and  O_12
REMARK    3  A    between atoms: C_10  and  O_14
REMARK    4  A    between atoms: C_16  and  C_17
REMARK    5  A    between atoms: C_16  and  C_23
REMARK                            x       y       z     vdW  Elec       q    Type
REMARK                         _______ _______ _______ _____ _____    ______ ____
ROOT
ATOM      1  O   UNL     1      32.332 -22.565 -17.172  0.00  0.00    -0.421 OA
ATOM      2  O   UNL     1      34.411 -22.556 -18.093  0.00  0.00    -0.245 OA
ATOM      3  C   UNL     1      34.313 -22.757 -15.723  0.00  0.00    +0.091 A 
ATOM      4  C   UNL     1      33.520 -22.829 -14.637  0.00  0.00    +0.139 A 
ATOM      5  C   UNL     1      32.062 -22.767 -14.766  0.00  0.00    +0.068 A 
ATOM      6  C   UNL     1      33.716 -22.620 -17.084  0.00  0.00    +0.345 A 
ATOM      7  C   UNL     1      31.509 -22.636 -16.035  0.00  0.00    +0.155 A 
ATOM      8  C   UNL     1      31.185 -22.833 -13.673  0.00  0.00    +0.009 C 
ATOM      9  C   UNL     1      30.131 -22.569 -16.245  0.00  0.00    +0.075 C 
ATOM     10  C   UNL     1      29.275 -22.635 -15.150  0.00  0.00    +0.142 C 
ATOM     11  C   UNL     1      29.801 -22.767 -13.866  0.00  0.00    +0.037 C 
ENDROOT
BRANCH   4  12
ATOM     12  O   UNL     1      33.975 -22.962 -13.343  0.00  0.00    -0.506 OA
ATOM     13  H   UNL     1      33.368 -22.953 -12.630  0.00  0.00    +0.292 HD
ENDBRANCH   4  12
BRANCH  10  14
ATOM     14  O   UNL     1      27.928 -22.572 -15.331  0.00  0.00    -0.471 OA
ATOM     15  C   UNL     1      27.445 -22.716 -16.667  0.00  0.00    +0.252 C 
ENDBRANCH  10  14
BRANCH   3  16
ATOM     16  C   UNL     1      35.817 -22.800 -15.713  0.00  0.00    +0.054 C 
BRANCH  16  17
ATOM     17  C   UNL     1      36.322 -23.895 -14.791  0.00  0.00    -0.018 C 
ATOM     18  C   UNL     1      35.963 -25.222 -15.022  0.00  0.00    -0.004 C 
ATOM     19  C   UNL     1      37.145 -23.573 -13.711  0.00  0.00    -0.004 C 
ATOM     20  C   UNL     1      36.426 -26.229 -14.175  0.00  0.00    -0.000 C 
ATOM     21  C   UNL     1      37.608 -24.579 -12.864  0.00  0.00    -0.000 C 
ATOM     22  C   UNL     1      37.249 -25.908 -13.096  0.00  0.00    -0.000 C 
ENDBRANCH  16  17
BRANCH  16  23
ATOM     23  C   UNL     1      36.381 -21.403 -15.381  0.00  0.00    +0.009 C 
ATOM     24  C   UNL     1      37.030 -20.723 -16.581  0.00  0.00    +0.001 C 
ENDBRANCH  16  23
ENDBRANCH   3  16
TORSDOF 5
ENDMDL
MODEL 4
REMARK VINA RESULT:      -9.9      2.405      6.987
REMARK  Name = 54736485
REMARK  5 active torsions:
REMARK  status: ('A' for Active; 'I' for Inactive)
REMARK    1  A    between atoms: C_3  and  C_16
REMARK    2  A    between atoms: C_4  and  O_12
REMARK    3  A    between atoms: C_10  and  O_14
REMARK    4  A    between atoms: C_16  and  C_17
REMARK    5  A    between atoms: C_16  and  C_23
REMARK                            x       y       z     vdW  Elec       q    Type
REMARK                         _______ _______ _______ _____ _____    ______ ____
ROOT
ATOM      1  O   UNL     1      34.410 -15.396 -21.272  0.00  0.00    -0.421 OA
ATOM      2  O   UNL     1      35.229 -17.066 -19.963  0.00  0.00    -0.245 OA
ATOM      3  C   UNL     1      34.675 -17.661 -22.200  0.00  0.00    +0.091 A 
ATOM      4  C   UNL     1      34.204 -17.235 -23.388  0.00  0.00    +0.139 A 
ATOM      5  C   UNL     1      33.800 -15.841 -23.581  0.00  0.00    +0.068 A 
ATOM      6  C   UNL     1      34.800 -16.711 -21.056  0.00  0.00    +0.345 A 
ATOM      7  C   UNL     1      33.915 -14.959 -22.512  0.00  0.00    +0.155 A 
ATOM      8  C   UNL     1      33.300 -15.340 -24.792  0.00  0.00    +0.009 C 
ATOM      9  C   UNL     1      33.552 -13.615 -22.611  0.00  0.00    +0.075 C 
ATOM     10  C   UNL     1      33.057 -13.134 -23.819  0.00  0.00    +0.142 C 
ATOM     11  C   UNL     1      32.931 -13.996 -24.909  0.00  0.00    +0.037 C 
ENDROOT
BRANCH   4  12
ATOM     12  O   UNL     1      34.057 -18.033 -24.503  0.00  0.00    -0.506 OA
ATOM     13  H   UNL     1      34.779 -18.543 -24.812  0.00  0.00    +0.292 HD
ENDBRANCH   4  12
BRANCH  10  14
ATOM     14  O   UNL     1      32.697 -11.828 -23.939  0.00  0.00    -0.471 OA
ATOM     15  C   UNL     1      32.221 -11.175 -22.762  0.00  0.00    +0.252 C 
ENDBRANCH  10  14
BRANCH   3  16
ATOM     16  C   UNL     1      35.109 -19.067 -21.884  0.00  0.00    +0.054 C 
BRANCH  16  17
ATOM     17  C   UNL     1      34.148 -19.724 -20.910  0.00  0.00    -0.018 C 
ATOM     18  C   UNL     1      34.636 -20.555 -19.901  0.00  0.00    -0.004 C 
ATOM     19  C   UNL     1      32.777 -19.498 -21.024  0.00  0.00    -0.004 C 
ATOM     20  C   UNL     1      33.754 -21.159 -19.006  0.00  0.00    -0.000 C 
ATOM     21  C   UNL     1      31.894 -20.102 -20.129  0.00  0.00    -0.000 C 
ATOM     22  C   UNL     1      32.382 -20.933 -19.121  0.00  0.00    -0.000 C 
ENDBRANCH  16  17
BRANCH  16  23
ATOM     23  C   UNL     1      36.575 -19.069 -21.404  0.00  0.00    +0.009 C 
ATOM     24  C   UNL     1      37.465 -18.128 -22.208  0.00  0.00    +0.001 C 
ENDBRANCH  16  23
ENDBRANCH   3  16
TORSDOF 5
ENDMDL
MODEL 5
REMARK VINA RESULT:      -9.2      2.572      8.899
REMARK  Name = 54736485
REMARK  5 active torsions:
REMARK  status: ('A' for Active; 'I' for Inactive)
REMARK    1  A    between atoms: C_3  and  C_16
REMARK    2  A    between atoms: C_4  and  O_12
REMARK    3  A    between atoms: C_10  and  O_14
REMARK    4  A    between atoms: C_16  and  C_17
REMARK    5  A    between atoms: C_16  and  C_23
REMARK                            x       y       z     vdW  Elec       q    Type
REMARK                         _______ _______ _______ _____ _____    ______ ____
ROOT
ATOM      1  O   UNL     1      36.573 -21.212 -17.357  0.00  0.00    -0.421 OA
ATOM      2  O   UNL     1      37.673 -21.764 -15.444  0.00  0.00    -0.245 OA
ATOM      3  C   UNL     1      35.396 -22.443 -15.580  0.00  0.00    +0.091 A 
ATOM      4  C   UNL     1      34.275 -22.460 -16.326  0.00  0.00    +0.139 A 
ATOM      5  C   UNL     1      34.244 -21.837 -17.651  0.00  0.00    +0.068 A 
ATOM      6  C   UNL     1      36.635 -21.792 -16.097  0.00  0.00    +0.345 A 
ATOM      7  C   UNL     1      35.400 -21.228 -18.129  0.00  0.00    +0.155 A 
ATOM      8  C   UNL     1      33.107 -21.819 -18.472  0.00  0.00    +0.009 C 
ATOM      9  C   UNL     1      35.455 -20.612 -19.380  0.00  0.00    +0.075 C 
ATOM     10  C   UNL     1      34.319 -20.602 -20.182  0.00  0.00    +0.142 C 
ATOM     11  C   UNL     1      33.146 -21.206 -19.729  0.00  0.00    +0.037 C 
ENDROOT
BRANCH   4  12
ATOM     12  O   UNL     1      33.085 -23.040 -15.939  0.00  0.00    -0.506 OA
ATOM     13  H   UNL     1      32.650 -22.744 -15.165  0.00  0.00    +0.292 HD
ENDBRANCH   4  12
BRANCH  10  14
ATOM     14  O   UNL     1      34.350 -20.008 -21.405  0.00  0.00    -0.471 OA
ATOM     15  C   UNL     1      34.632 -18.609 -21.440  0.00  0.00    +0.252 C 
ENDBRANCH  10  14
BRANCH   3  16
ATOM     16  C   UNL     1      35.542 -23.039 -14.206  0.00  0.00    +0.054 C 
BRANCH  16  17
ATOM     17  C   UNL     1      36.292 -24.357 -14.264  0.00  0.00    -0.018 C 
ATOM     18  C   UNL     1      37.518 -24.492 -13.614  0.00  0.00    -0.004 C 
ATOM     19  C   UNL     1      35.754 -25.435 -14.969  0.00  0.00    -0.004 C 
ATOM     20  C   UNL     1      38.208 -25.703 -13.667  0.00  0.00    -0.000 C 
ATOM     21  C   UNL     1      36.444 -26.646 -15.022  0.00  0.00    -0.000 C 
ATOM     22  C   UNL     1      37.671 -26.780 -14.372  0.00  0.00    -0.000 C 
ENDBRANCH  16  17
BRANCH  16  23
ATOM     23  C   UNL     1      34.160 -23.142 -13.528  0.00  0.00    +0.009 C 
ATOM     24  C   UNL     1      34.220 -23.788 -12.148  0.00  0.00    +0.001 C 
ENDBRANCH  16  23
ENDBRANCH   3  16
TORSDOF 5
ENDMDL
