MODEL 1
REMARK VINA RESULT:     -12.8      0.000      0.000
REMARK  Name = 45275554
REMARK  11 active torsions:
REMARK  status: ('A' for Active; 'I' for Inactive)
REMARK    1  A    between atoms: N_1  and  C_25
REMARK    2  A    between atoms: C_2  and  C_8
REMARK    3  A    between atoms: C_8  and  N_10
REMARK    4  A    between atoms: C_11  and  C_14
REMARK    5  A    between atoms: C_15  and  O_23
REMARK    6  A    between atoms: C_19  and  N_20
REMARK    7  A    between atoms: C_25  and  C_26
REMARK    8  A    between atoms: C_26  and  C_27
REMARK    9  A    between atoms: C_27  and  C_29
REMARK   10  A    between atoms: C_27  and  O_35
REMARK   11  A    between atoms: O_35  and  C_38
REMARK                            x       y       z     vdW  Elec       q    Type
REMARK                         _______ _______ _______ _____ _____    ______ ____
ROOT
ATOM      1  N   UNL     1      33.515 -20.955 -18.882  0.00  0.00    +0.387 N 
ATOM      2  C   UNL     1      35.377 -19.695 -20.764  0.00  0.00    +0.015 C 
ATOM      3  C   UNL     1      33.930 -19.218 -20.594  0.00  0.00    -0.021 C 
ATOM      4  C   UNL     1      35.847 -20.388 -19.481  0.00  0.00    -0.021 C 
ATOM      5  C   UNL     1      34.874 -21.487 -19.052  0.00  0.00    -0.077 C 
ATOM      6  C   UNL     1      33.020 -20.357 -20.128  0.00  0.00    -0.077 C 
ATOM      7  H   UNL     1      33.551 -20.222 -18.173  0.00  0.00    -0.080 HD
ENDROOT
BRANCH   2   8
ATOM      8  C   UNL     1      36.297 -18.535 -21.131  0.00  0.00    +0.089 C 
BRANCH   8  10
ATOM      9  O   UNL     1      34.729 -16.243 -20.400  0.00  0.00    -0.270 OA
ATOM     10  N   UNL     1      35.646 -17.623 -22.024  0.00  0.00    -0.301 N 
ATOM     11  C   UNL     1      34.903 -16.532 -21.581  0.00  0.00    +0.249 C 
ATOM     12  H   UNL     1      35.729 -17.774 -22.993  0.00  0.00    +0.150 HD
BRANCH  11  14
ATOM     13 CL   UNL     1      33.092 -11.895 -22.967  0.00  0.00    -0.081 Cl
ATOM     14  C   UNL     1      34.270 -15.696 -22.633  0.00  0.00    +0.088 C 
ATOM     15  C   UNL     1      33.946 -16.237 -23.878  0.00  0.00    +0.144 C 
ATOM     16  C   UNL     1      34.000 -14.354 -22.364  0.00  0.00    +0.020 C 
ATOM     17  C   UNL     1      33.353 -15.435 -24.853  0.00  0.00    +0.052 C 
ATOM     18  C   UNL     1      33.407 -13.553 -23.340  0.00  0.00    +0.071 C 
ATOM     19  C   UNL     1      33.083 -14.093 -24.584  0.00  0.00    +0.055 C 
BRANCH  19  20
ATOM     20  N   UNL     1      32.482 -13.306 -25.592  0.00  0.00    -0.356 N 
ATOM     21  H   UNL     1      33.045 -12.807 -26.228  0.00  0.00    +0.142 HD
ATOM     22  H   UNL     1      31.501 -13.257 -25.659  0.00  0.00    +0.142 HD
ENDBRANCH  19  20
BRANCH  15  23
ATOM     23  O   UNL     1      34.201 -17.545 -24.161  0.00  0.00    -0.471 OA
ATOM     24  C   UNL     1      33.079 -18.376 -24.449  0.00  0.00    +0.252 C 
ENDBRANCH  15  23
ENDBRANCH  11  14
ENDBRANCH   8  10
ENDBRANCH   2   8
BRANCH   1  25
ATOM     25  C   UNL     1      32.607 -22.006 -18.422  0.00  0.00    -0.073 C 
BRANCH  25  26
ATOM     26  C   UNL     1      33.390 -23.095 -17.689  0.00  0.00    +0.026 C 
BRANCH  26  27
ATOM     27  C   UNL     1      33.704 -22.730 -16.229  0.00  0.00    +0.191 C 
BRANCH  27  29
ATOM     28  F   UNL     1      29.694 -24.254 -12.567  0.00  0.00    -0.204 F 
ATOM     29  C   UNL     1      32.630 -23.138 -15.248  0.00  0.00    +0.017 C 
ATOM     30  C   UNL     1      31.313 -22.721 -15.443  0.00  0.00    +0.001 C 
ATOM     31  C   UNL     1      32.955 -23.932 -14.148  0.00  0.00    +0.001 C 
ATOM     32  C   UNL     1      30.322 -23.097 -14.537  0.00  0.00    +0.029 C 
ATOM     33  C   UNL     1      31.963 -24.309 -13.243  0.00  0.00    +0.029 C 
ATOM     34  C   UNL     1      30.646 -23.892 -13.438  0.00  0.00    +0.140 C 
ENDBRANCH  27  29
BRANCH  27  35
ATOM     35  O   UNL     1      34.921 -23.374 -15.844  0.00  0.00    -0.434 OA
BRANCH  35  38
ATOM     36  O   UNL     1      35.982 -21.332 -15.767  0.00  0.00    -0.227 OA
ATOM     37  N   UNL     1      37.128 -23.293 -15.414  0.00  0.00    -0.295 N 
ATOM     38  C   UNL     1      36.003 -22.554 -15.684  0.00  0.00    +0.399 C 
ATOM     39  H   UNL     1      37.072 -24.275 -15.360  0.00  0.00    +0.148 HD
ATOM     40  H   UNL     1      37.991 -22.841 -15.273  0.00  0.00    +0.148 HD
ENDBRANCH  35  38
ENDBRANCH  27  35
ENDBRANCH  26  27
ENDBRANCH  25  26
ENDBRANCH   1  25
TORSDOF 11
ENDMDL
MODEL 2
REMARK VINA RESULT:     -12.6      4.531      7.951
REMARK  Name = 45275554
REMARK  11 active torsions:
REMARK  status: ('A' for Active; 'I' for Inactive)
REMARK    1  A    between atoms: N_1  and  C_25
REMARK    2  A    between atoms: C_2  and  C_8
REMARK    3  A    between atoms: C_8  and  N_10
REMARK    4  A    between atoms: C_11  and  C_14
REMARK    5  A    between atoms: C_15  and  O_23
REMARK    6  A    between atoms: C_19  and  N_20
REMARK    7  A    between atoms: C_25  and  C_26
REMARK    8  A    between atoms: C_26  and  C_27
REMARK    9  A    between atoms: C_27  and  C_29
REMARK   10  A    between atoms: C_27  and  O_35
REMARK   11  A    between atoms: O_35  and  C_38
REMARK                            x       y       z     vdW  Elec       q    Type
REMARK                         _______ _______ _______ _____ _____    ______ ____
ROOT
ATOM      1  N   UNL     1      33.896 -15.529 -21.607  0.00  0.00    +0.387 N 
ATOM      2  C   UNL     1      33.563 -12.903 -22.867  0.00  0.00    +0.015 C 
ATOM      3  C   UNL     1      33.830 -14.176 -23.677  0.00  0.00    -0.021 C 
ATOM      4  C   UNL     1      32.898 -13.267 -21.535  0.00  0.00    -0.021 C 
ATOM      5  C   UNL     1      33.702 -14.328 -20.783  0.00  0.00    -0.077 C 
ATOM      6  C   UNL     1      34.604 -15.208 -22.853  0.00  0.00    -0.077 C 
ATOM      7  H   UNL     1      32.976 -15.894 -21.852  0.00  0.00    -0.080 HD
ENDROOT
BRANCH   2   8
ATOM      8  C   UNL     1      32.706 -11.920 -23.659  0.00  0.00    +0.089 C 
BRANCH   8  10
ATOM      9  O   UNL     1      30.514 -10.680 -22.279  0.00  0.00    -0.270 OA
ATOM     10  N   UNL     1      32.705 -10.626 -23.044  0.00  0.00    -0.301 N 
ATOM     11  C   UNL     1      31.592 -10.100 -22.392  0.00  0.00    +0.249 C 
ATOM     12  H   UNL     1      33.527 -10.086 -23.083  0.00  0.00    +0.150 HD
BRANCH  11  14
ATOM     13 CL   UNL     1      33.137  -5.224 -23.124  0.00  0.00    -0.081 Cl
ATOM     14  C   UNL     1      31.744  -8.735 -21.828  0.00  0.00    +0.088 C 
ATOM     15  C   UNL     1      31.337  -8.450 -20.524  0.00  0.00    +0.144 C 
ATOM     16  C   UNL     1      32.299  -7.730 -22.620  0.00  0.00    +0.020 C 
ATOM     17  C   UNL     1      31.485  -7.161 -20.013  0.00  0.00    +0.052 C 
ATOM     18  C   UNL     1      32.447  -6.441 -22.109  0.00  0.00    +0.071 C 
ATOM     19  C   UNL     1      32.041  -6.156 -20.805  0.00  0.00    +0.055 C 
BRANCH  19  20
ATOM     20  N   UNL     1      32.179  -4.860 -20.260  0.00  0.00    -0.356 N 
ATOM     21  H   UNL     1      31.465  -4.486 -19.693  0.00  0.00    +0.142 HD
ATOM     22  H   UNL     1      32.988  -4.331 -20.446  0.00  0.00    +0.142 HD
ENDBRANCH  19  20
BRANCH  15  23
ATOM     23  O   UNL     1      30.791  -9.418 -19.734  0.00  0.00    -0.471 OA
ATOM     24  C   UNL     1      31.514  -9.776 -18.558  0.00  0.00    +0.252 C 
ENDBRANCH  15  23
ENDBRANCH  11  14
ENDBRANCH   8  10
ENDBRANCH   2   8
BRANCH   1  25
ATOM     25  C   UNL     1      34.622 -16.554 -20.855  0.00  0.00    -0.073 C 
BRANCH  25  26
ATOM     26  C   UNL     1      35.479 -17.394 -21.803  0.00  0.00    +0.026 C 
BRANCH  26  27
ATOM     27  C   UNL     1      34.837 -18.746 -22.154  0.00  0.00    +0.191 C 
BRANCH  27  29
ATOM     28  F   UNL     1      33.993 -22.111 -17.707  0.00  0.00    -0.204 F 
ATOM     29  C   UNL     1      34.611 -19.647 -20.963  0.00  0.00    +0.017 C 
ATOM     30  C   UNL     1      35.701 -20.154 -20.255  0.00  0.00    +0.001 C 
ATOM     31  C   UNL     1      33.312 -19.973 -20.571  0.00  0.00    +0.001 C 
ATOM     32  C   UNL     1      35.493 -20.986 -19.156  0.00  0.00    +0.029 C 
ATOM     33  C   UNL     1      33.104 -20.805 -19.471  0.00  0.00    +0.029 C 
ATOM     34  C   UNL     1      34.194 -21.311 -18.763  0.00  0.00    +0.140 C 
ENDBRANCH  27  29
BRANCH  27  35
ATOM     35  O   UNL     1      33.571 -18.509 -22.774  0.00  0.00    -0.434 OA
BRANCH  35  38
ATOM     36  O   UNL     1      33.123 -17.653 -24.864  0.00  0.00    -0.227 OA
ATOM     37  N   UNL     1      34.118 -19.708 -24.598  0.00  0.00    -0.295 N 
ATOM     38  C   UNL     1      33.562 -18.539 -24.140  0.00  0.00    +0.399 C 
ATOM     39  H   UNL     1      34.453 -20.378 -23.958  0.00  0.00    +0.148 HD
ATOM     40  H   UNL     1      34.183 -19.876 -25.566  0.00  0.00    +0.148 HD
ENDBRANCH  35  38
ENDBRANCH  27  35
ENDBRANCH  26  27
ENDBRANCH  25  26
ENDBRANCH   1  25
TORSDOF 11
ENDMDL
MODEL 3
REMARK VINA RESULT:     -12.4      2.810      3.808
REMARK  Name = 45275554
REMARK  11 active torsions:
REMARK  status: ('A' for Active; 'I' for Inactive)
REMARK    1  A    between atoms: N_1  and  C_25
REMARK    2  A    between atoms: C_2  and  C_8
REMARK    3  A    between atoms: C_8  and  N_10
REMARK    4  A    between atoms: C_11  and  C_14
REMARK    5  A    between atoms: C_15  and  O_23
REMARK    6  A    between atoms: C_19  and  N_20
REMARK    7  A    between atoms: C_25  and  C_26
REMARK    8  A    between atoms: C_26  and  C_27
REMARK    9  A    between atoms: C_27  and  C_29
REMARK   10  A    between atoms: C_27  and  O_35
REMARK   11  A    between atoms: O_35  and  C_38
REMARK                            x       y       z     vdW  Elec       q    Type
REMARK                         _______ _______ _______ _____ _____    ______ ____
ROOT
ATOM      1  N   UNL     1      33.503 -22.380 -17.756  0.00  0.00    +0.387 N 
ATOM      2  C   UNL     1      34.366 -20.415 -19.754  0.00  0.00    +0.015 C 
ATOM      3  C   UNL     1      35.357 -21.292 -18.981  0.00  0.00    -0.021 C 
ATOM      4  C   UNL     1      33.001 -21.110 -19.819  0.00  0.00    -0.021 C 
ATOM      5  C   UNL     1      32.519 -21.520 -18.427  0.00  0.00    -0.077 C 
ATOM      6  C   UNL     1      34.795 -21.697 -17.616  0.00  0.00    -0.077 C 
ATOM      7  H   UNL     1      33.645 -23.207 -18.336  0.00  0.00    -0.080 HD
ENDROOT
BRANCH   2   8
ATOM      8  C   UNL     1      34.889 -20.099 -21.152  0.00  0.00    +0.089 C 
BRANCH   8  10
ATOM      9  O   UNL     1      36.428 -17.926 -22.226  0.00  0.00    -0.270 OA
ATOM     10  N   UNL     1      34.384 -18.842 -21.618  0.00  0.00    -0.301 N 
ATOM     11  C   UNL     1      35.206 -17.840 -22.128  0.00  0.00    +0.249 C 
ATOM     12  H   UNL     1      33.414 -18.681 -21.579  0.00  0.00    +0.150 HD
BRANCH  11  14
ATOM     13 CL   UNL     1      33.771 -13.034 -20.887  0.00  0.00    -0.081 Cl
ATOM     14  C   UNL     1      34.532 -16.585 -22.547  0.00  0.00    +0.088 C 
ATOM     15  C   UNL     1      33.975 -16.463 -23.820  0.00  0.00    +0.144 C 
ATOM     16  C   UNL     1      34.462 -15.519 -21.650  0.00  0.00    +0.020 C 
ATOM     17  C   UNL     1      33.347 -15.275 -24.196  0.00  0.00    +0.052 C 
ATOM     18  C   UNL     1      33.834 -14.331 -22.027  0.00  0.00    +0.071 C 
ATOM     19  C   UNL     1      33.277 -14.210 -23.299  0.00  0.00    +0.055 C 
BRANCH  19  20
ATOM     20  N   UNL     1      32.635 -13.019 -23.709  0.00  0.00    -0.356 N 
ATOM     21  H   UNL     1      31.727 -12.813 -23.386  0.00  0.00    +0.142 HD
ATOM     22  H   UNL     1      33.094 -12.396 -24.316  0.00  0.00    +0.142 HD
ENDBRANCH  19  20
BRANCH  15  23
ATOM     23  O   UNL     1      34.033 -17.493 -24.711  0.00  0.00    -0.471 OA
ATOM     24  C   UNL     1      32.911 -18.370 -24.761  0.00  0.00    +0.252 C 
ENDBRANCH  15  23
ENDBRANCH  11  14
ENDBRANCH   8  10
ENDBRANCH   2   8
BRANCH   1  25
ATOM     25  C   UNL     1      33.005 -22.806 -16.448  0.00  0.00    -0.073 C 
BRANCH  25  26
ATOM     26  C   UNL     1      34.115 -22.700 -15.402  0.00  0.00    +0.026 C 
BRANCH  26  27
ATOM     27  C   UNL     1      34.190 -23.926 -14.478  0.00  0.00    +0.191 C 
BRANCH  27  29
ATOM     28  F   UNL     1      39.434 -25.785 -13.553  0.00  0.00    -0.204 F 
ATOM     29  C   UNL     1      35.595 -24.424 -14.230  0.00  0.00    +0.017 C 
ATOM     30  C   UNL     1      36.505 -23.627 -13.536  0.00  0.00    +0.001 C 
ATOM     31  C   UNL     1      35.981 -25.681 -14.696  0.00  0.00    +0.001 C 
ATOM     32  C   UNL     1      37.801 -24.086 -13.307  0.00  0.00    +0.029 C 
ATOM     33  C   UNL     1      37.278 -26.141 -14.466  0.00  0.00    +0.029 C 
ATOM     34  C   UNL     1      38.188 -25.343 -13.772  0.00  0.00    +0.140 C 
ENDBRANCH  27  29
BRANCH  27  35
ATOM     35  O   UNL     1      33.611 -23.589 -13.215  0.00  0.00    -0.434 OA
BRANCH  35  38
ATOM     36  O   UNL     1      31.496 -22.802 -12.766  0.00  0.00    -0.227 OA
ATOM     37  N   UNL     1      31.841 -24.941 -13.534  0.00  0.00    -0.295 N 
ATOM     38  C   UNL     1      32.252 -23.692 -13.137  0.00  0.00    +0.399 C 
ATOM     39  H   UNL     1      32.504 -25.609 -13.822  0.00  0.00    +0.148 HD
ATOM     40  H   UNL     1      30.883 -25.168 -13.533  0.00  0.00    +0.148 HD
ENDBRANCH  35  38
ENDBRANCH  27  35
ENDBRANCH  26  27
ENDBRANCH  25  26
ENDBRANCH   1  25
TORSDOF 11
ENDMDL
MODEL 4
REMARK VINA RESULT:     -12.3      2.170      2.939
REMARK  Name = 45275554
REMARK  11 active torsions:
REMARK  status: ('A' for Active; 'I' for Inactive)
REMARK    1  A    between atoms: N_1  and  C_25
REMARK    2  A    between atoms: C_2  and  C_8
REMARK    3  A    between atoms: C_8  and  N_10
REMARK    4  A    between atoms: C_11  and  C_14
REMARK    5  A    between atoms: C_15  and  O_23
REMARK    6  A    between atoms: C_19  and  N_20
REMARK    7  A    between atoms: C_25  and  C_26
REMARK    8  A    between atoms: C_26  and  C_27
REMARK    9  A    between atoms: C_27  and  C_29
REMARK   10  A    between atoms: C_27  and  O_35
REMARK   11  A    between atoms: O_35  and  C_38
REMARK                            x       y       z     vdW  Elec       q    Type
REMARK                         _______ _______ _______ _____ _____    ______ ____
ROOT
ATOM      1  N   UNL     1      33.569 -21.098 -18.939  0.00  0.00    +0.387 N 
ATOM      2  C   UNL     1      35.430 -19.723 -20.740  0.00  0.00    +0.015 C 
ATOM      3  C   UNL     1      33.964 -19.303 -20.595  0.00  0.00    -0.021 C 
ATOM      4  C   UNL     1      35.894 -20.432 -19.462  0.00  0.00    -0.021 C 
ATOM      5  C   UNL     1      34.951 -21.576 -19.087  0.00  0.00    -0.077 C 
ATOM      6  C   UNL     1      33.084 -20.486 -20.183  0.00  0.00    -0.077 C 
ATOM      7  H   UNL     1      33.561 -20.383 -18.212  0.00  0.00    -0.080 HD
ENDROOT
BRANCH   2   8
ATOM      8  C   UNL     1      36.316 -18.521 -21.052  0.00  0.00    +0.089 C 
BRANCH   8  10
ATOM      9  O   UNL     1      34.719 -16.240 -20.352  0.00  0.00    -0.270 OA
ATOM     10  N   UNL     1      35.665 -17.622 -21.958  0.00  0.00    -0.301 N 
ATOM     11  C   UNL     1      34.907 -16.535 -21.530  0.00  0.00    +0.249 C 
ATOM     12  H   UNL     1      35.758 -17.779 -22.925  0.00  0.00    +0.150 HD
BRANCH  11  14
ATOM     13 CL   UNL     1      33.088 -11.920 -22.975  0.00  0.00    -0.081 Cl
ATOM     14  C   UNL     1      34.275 -15.713 -22.592  0.00  0.00    +0.088 C 
ATOM     15  C   UNL     1      33.957 -16.269 -23.832  0.00  0.00    +0.144 C 
ATOM     16  C   UNL     1      34.000 -14.369 -22.340  0.00  0.00    +0.020 C 
ATOM     17  C   UNL     1      33.365 -15.480 -24.819  0.00  0.00    +0.052 C 
ATOM     18  C   UNL     1      33.409 -13.580 -23.327  0.00  0.00    +0.071 C 
ATOM     19  C   UNL     1      33.091 -14.136 -24.566  0.00  0.00    +0.055 C 
BRANCH  19  20
ATOM     20  N   UNL     1      32.491 -13.362 -25.585  0.00  0.00    -0.356 N 
ATOM     21  H   UNL     1      31.544 -13.505 -25.819  0.00  0.00    +0.142 HD
ATOM     22  H   UNL     1      33.017 -12.680 -26.060  0.00  0.00    +0.142 HD
ENDBRANCH  19  20
BRANCH  15  23
ATOM     23  O   UNL     1      34.217 -17.580 -24.100  0.00  0.00    -0.471 OA
ATOM     24  C   UNL     1      33.110 -18.396 -24.477  0.00  0.00    +0.252 C 
ENDBRANCH  15  23
ENDBRANCH  11  14
ENDBRANCH   8  10
ENDBRANCH   2   8
BRANCH   1  25
ATOM     25  C   UNL     1      32.689 -22.194 -18.531  0.00  0.00    -0.073 C 
BRANCH  25  26
ATOM     26  C   UNL     1      31.764 -21.733 -17.404  0.00  0.00    +0.026 C 
BRANCH  26  27
ATOM     27  C   UNL     1      31.460 -22.843 -16.385  0.00  0.00    +0.191 C 
BRANCH  27  29
ATOM     28  F   UNL     1      35.658 -23.839 -12.752  0.00  0.00    -0.204 F 
ATOM     29  C   UNL     1      32.585 -23.110 -15.412  0.00  0.00    +0.017 C 
ATOM     30  C   UNL     1      33.907 -23.105 -15.856  0.00  0.00    +0.001 C 
ATOM     31  C   UNL     1      32.300 -23.362 -14.069  0.00  0.00    +0.001 C 
ATOM     32  C   UNL     1      34.945 -23.351 -14.958  0.00  0.00    +0.029 C 
ATOM     33  C   UNL     1      33.339 -23.608 -13.171  0.00  0.00    +0.029 C 
ATOM     34  C   UNL     1      34.661 -23.603 -13.615  0.00  0.00    +0.140 C 
ENDBRANCH  27  29
BRANCH  27  35
ATOM     35  O   UNL     1      30.303 -22.474 -15.631  0.00  0.00    -0.434 OA
BRANCH  35  38
ATOM     36  O   UNL     1      28.392 -22.141 -16.871  0.00  0.00    -0.227 OA
ATOM     37  N   UNL     1      28.793 -24.134 -15.796  0.00  0.00    -0.295 N 
ATOM     38  C   UNL     1      29.102 -22.847 -16.164  0.00  0.00    +0.399 C 
ATOM     39  H   UNL     1      29.411 -24.645 -15.226  0.00  0.00    +0.148 HD
ATOM     40  H   UNL     1      27.953 -24.545 -16.105  0.00  0.00    +0.148 HD
ENDBRANCH  35  38
ENDBRANCH  27  35
ENDBRANCH  26  27
ENDBRANCH  25  26
ENDBRANCH   1  25
TORSDOF 11
ENDMDL
MODEL 5
REMARK VINA RESULT:     -12.3      4.780      8.042
REMARK  Name = 45275554
REMARK  11 active torsions:
REMARK  status: ('A' for Active; 'I' for Inactive)
REMARK    1  A    between atoms: N_1  and  C_25
REMARK    2  A    between atoms: C_2  and  C_8
REMARK    3  A    between atoms: C_8  and  N_10
REMARK    4  A    between atoms: C_11  and  C_14
REMARK    5  A    between atoms: C_15  and  O_23
REMARK    6  A    between atoms: C_19  and  N_20
REMARK    7  A    between atoms: C_25  and  C_26
REMARK    8  A    between atoms: C_26  and  C_27
REMARK    9  A    between atoms: C_27  and  C_29
REMARK   10  A    between atoms: C_27  and  O_35
REMARK   11  A    between atoms: O_35  and  C_38
REMARK                            x       y       z     vdW  Elec       q    Type
REMARK                         _______ _______ _______ _____ _____    ______ ____
ROOT
ATOM      1  N   UNL     1      33.818 -15.172 -22.166  0.00  0.00    +0.387 N 
ATOM      2  C   UNL     1      32.575 -12.537 -21.837  0.00  0.00    +0.015 C 
ATOM      3  C   UNL     1      32.664 -13.241 -23.195  0.00  0.00    -0.021 C 
ATOM      4  C   UNL     1      32.608 -13.578 -20.712  0.00  0.00    -0.021 C 
ATOM      5  C   UNL     1      33.810 -14.512 -20.853  0.00  0.00    -0.077 C 
ATOM      6  C   UNL     1      33.866 -14.187 -23.254  0.00  0.00    -0.077 C 
ATOM      7  H   UNL     1      32.950 -15.700 -22.257  0.00  0.00    -0.080 HD
ENDROOT
BRANCH   2   8
ATOM      8  C   UNL     1      31.320 -11.673 -21.749  0.00  0.00    +0.089 C 
BRANCH   8  10
ATOM      9  O   UNL     1      31.157  -9.253 -20.213  0.00  0.00    -0.270 OA
ATOM     10  N   UNL     1      31.576 -10.344 -22.218  0.00  0.00    -0.301 N 
ATOM     11  C   UNL     1      31.474  -9.222 -21.401  0.00  0.00    +0.249 C 
ATOM     12  H   UNL     1      31.837 -10.219 -23.159  0.00  0.00    +0.150 HD
BRANCH  11  14
ATOM     13 CL   UNL     1      30.054  -4.294 -22.039  0.00  0.00    -0.081 Cl
ATOM     14  C   UNL     1      31.746  -7.911 -22.044  0.00  0.00    +0.088 C 
ATOM     15  C   UNL     1      32.841  -7.745 -22.893  0.00  0.00    +0.144 C 
ATOM     16  C   UNL     1      30.893  -6.838 -21.789  0.00  0.00    +0.020 C 
ATOM     17  C   UNL     1      33.082  -6.506 -23.486  0.00  0.00    +0.052 C 
ATOM     18  C   UNL     1      31.134  -5.598 -22.382  0.00  0.00    +0.071 C 
ATOM     19  C   UNL     1      32.228  -5.433 -23.231  0.00  0.00    +0.055 C 
BRANCH  19  20
ATOM     20  N   UNL     1      32.498  -4.190 -23.847  0.00  0.00    -0.356 N 
ATOM     21  H   UNL     1      31.962  -3.897 -24.621  0.00  0.00    +0.142 HD
ATOM     22  H   UNL     1      33.220  -3.617 -23.504  0.00  0.00    +0.142 HD
ENDBRANCH  19  20
BRANCH  15  23
ATOM     23  O   UNL     1      33.688  -8.781 -23.154  0.00  0.00    -0.471 OA
ATOM     24  C   UNL     1      34.847  -8.489 -23.932  0.00  0.00    +0.252 C 
ENDBRANCH  15  23
ENDBRANCH  11  14
ENDBRANCH   8  10
ENDBRANCH   2   8
BRANCH   1  25
ATOM     25  C   UNL     1      34.945 -16.100 -22.266  0.00  0.00    -0.073 C 
BRANCH  25  26
ATOM     26  C   UNL     1      34.848 -17.166 -21.174  0.00  0.00    +0.026 C 
BRANCH  26  27
ATOM     27  C   UNL     1      34.636 -18.582 -21.733  0.00  0.00    +0.191 C 
BRANCH  27  29
ATOM     28  F   UNL     1      33.815 -22.513 -17.773  0.00  0.00    -0.204 F 
ATOM     29  C   UNL     1      34.416 -19.635 -20.672  0.00  0.00    +0.017 C 
ATOM     30  C   UNL     1      35.510 -20.252 -20.064  0.00  0.00    +0.001 C 
ATOM     31  C   UNL     1      33.119 -19.991 -20.301  0.00  0.00    +0.001 C 
ATOM     32  C   UNL     1      35.307 -21.224 -19.085  0.00  0.00    +0.029 C 
ATOM     33  C   UNL     1      32.916 -20.963 -19.321  0.00  0.00    +0.029 C 
ATOM     34  C   UNL     1      34.010 -21.580 -18.713  0.00  0.00    +0.140 C 
ENDBRANCH  27  29
BRANCH  27  35
ATOM     35  O   UNL     1      33.492 -18.574 -22.590  0.00  0.00    -0.434 OA
BRANCH  35  38
ATOM     36  O   UNL     1      34.473 -19.762 -24.300  0.00  0.00    -0.227 OA
ATOM     37  N   UNL     1      33.015 -18.035 -24.722  0.00  0.00    -0.295 N 
ATOM     38  C   UNL     1      33.729 -18.873 -23.901  0.00  0.00    +0.399 C 
ATOM     39  H   UNL     1      32.435 -17.342 -24.333  0.00  0.00    +0.148 HD
ATOM     40  H   UNL     1      33.083 -18.129 -25.700  0.00  0.00    +0.148 HD
ENDBRANCH  35  38
ENDBRANCH  27  35
ENDBRANCH  26  27
ENDBRANCH  25  26
ENDBRANCH   1  25
TORSDOF 11
ENDMDL
MODEL 6
REMARK VINA RESULT:     -12.3      2.481      3.762
REMARK  Name = 45275554
REMARK  11 active torsions:
REMARK  status: ('A' for Active; 'I' for Inactive)
REMARK    1  A    between atoms: N_1  and  C_25
REMARK    2  A    between atoms: C_2  and  C_8
REMARK    3  A    between atoms: C_8  and  N_10
REMARK    4  A    between atoms: C_11  and  C_14
REMARK    5  A    between atoms: C_15  and  O_23
REMARK    6  A    between atoms: C_19  and  N_20
REMARK    7  A    between atoms: C_25  and  C_26
REMARK    8  A    between atoms: C_26  and  C_27
REMARK    9  A    between atoms: C_27  and  C_29
REMARK   10  A    between atoms: C_27  and  O_35
REMARK   11  A    between atoms: O_35  and  C_38
REMARK                            x       y       z     vdW  Elec       q    Type
REMARK                         _______ _______ _______ _____ _____    ______ ____
ROOT
ATOM      1  N   UNL     1      34.126 -21.358 -19.434  0.00  0.00    +0.387 N 
ATOM      2  C   UNL     1      35.149 -19.020 -20.878  0.00  0.00    +0.015 C 
ATOM      3  C   UNL     1      36.069 -20.115 -20.328  0.00  0.00    -0.021 C 
ATOM      4  C   UNL     1      33.751 -19.598 -21.131  0.00  0.00    -0.021 C 
ATOM      5  C   UNL     1      33.208 -20.305 -19.889  0.00  0.00    -0.077 C 
ATOM      6  C   UNL     1      35.448 -20.806 -19.112  0.00  0.00    -0.077 C 
ATOM      7  H   UNL     1      34.241 -22.026 -20.196  0.00  0.00    -0.080 HD
ENDROOT
BRANCH   2   8
ATOM      8  C   UNL     1      35.727 -18.405 -22.148  0.00  0.00    +0.089 C 
BRANCH   8  10
ATOM      9  O   UNL     1      33.743 -17.590 -24.057  0.00  0.00    -0.270 OA
ATOM     10  N   UNL     1      35.229 -17.077 -22.350  0.00  0.00    -0.301 N 
ATOM     11  C   UNL     1      34.261 -16.769 -23.303  0.00  0.00    +0.249 C 
ATOM     12  H   UNL     1      35.586 -16.350 -21.790  0.00  0.00    +0.150 HD
BRANCH  11  14
ATOM     13 CL   UNL     1      32.579 -12.912 -26.302  0.00  0.00    -0.081 Cl
ATOM     14  C   UNL     1      33.869 -15.341 -23.406  0.00  0.00    +0.088 C 
ATOM     15  C   UNL     1      33.906 -14.506 -22.289  0.00  0.00    +0.144 C 
ATOM     16  C   UNL     1      33.458 -14.836 -24.640  0.00  0.00    +0.020 C 
ATOM     17  C   UNL     1      33.533 -13.167 -22.406  0.00  0.00    +0.052 C 
ATOM     18  C   UNL     1      33.084 -13.497 -24.757  0.00  0.00    +0.071 C 
ATOM     19  C   UNL     1      33.122 -12.663 -23.639  0.00  0.00    +0.055 C 
BRANCH  19  20
ATOM     20  N   UNL     1      32.749 -11.302 -23.727  0.00  0.00    -0.356 N 
ATOM     21  H   UNL     1      31.817 -11.036 -23.554  0.00  0.00    +0.142 HD
ATOM     22  H   UNL     1      33.421 -10.622 -23.959  0.00  0.00    +0.142 HD
ENDBRANCH  19  20
BRANCH  15  23
ATOM     23  O   UNL     1      34.305 -14.980 -21.074  0.00  0.00    -0.471 OA
ATOM     24  C   UNL     1      33.463 -14.691 -19.960  0.00  0.00    +0.252 C 
ENDBRANCH  15  23
ENDBRANCH  11  14
ENDBRANCH   8  10
ENDBRANCH   2   8
BRANCH   1  25
ATOM     25  C   UNL     1      33.568 -22.059 -18.276  0.00  0.00    -0.073 C 
BRANCH  25  26
ATOM     26  C   UNL     1      34.571 -22.050 -17.122  0.00  0.00    +0.026 C 
BRANCH  26  27
ATOM     27  C   UNL     1      34.198 -23.025 -15.994  0.00  0.00    +0.191 C 
BRANCH  27  29
ATOM     28  F   UNL     1      38.636 -25.429 -13.478  0.00  0.00    -0.204 F 
ATOM     29  C   UNL     1      35.387 -23.669 -15.320  0.00  0.00    +0.017 C 
ATOM     30  C   UNL     1      35.271 -24.948 -14.774  0.00  0.00    +0.001 C 
ATOM     31  C   UNL     1      36.600 -22.985 -15.245  0.00  0.00    +0.001 C 
ATOM     32  C   UNL     1      36.368 -25.542 -14.152  0.00  0.00    +0.029 C 
ATOM     33  C   UNL     1      37.698 -23.581 -14.622  0.00  0.00    +0.029 C 
ATOM     34  C   UNL     1      37.582 -24.859 -14.076  0.00  0.00    +0.140 C 
ENDBRANCH  27  29
BRANCH  27  35
ATOM     35  O   UNL     1      33.456 -22.317 -14.998  0.00  0.00    -0.434 OA
BRANCH  35  38
ATOM     36  O   UNL     1      31.487 -23.341 -15.609  0.00  0.00    -0.227 OA
ATOM     37  N   UNL     1      31.769 -22.435 -13.514  0.00  0.00    -0.295 N 
ATOM     38  C   UNL     1      32.179 -22.751 -14.786  0.00  0.00    +0.399 C 
ATOM     39  H   UNL     1      32.378 -21.960 -12.904  0.00  0.00    +0.148 HD
ATOM     40  H   UNL     1      30.865 -22.685 -13.213  0.00  0.00    +0.148 HD
ENDBRANCH  35  38
ENDBRANCH  27  35
ENDBRANCH  26  27
ENDBRANCH  25  26
ENDBRANCH   1  25
TORSDOF 11
ENDMDL
MODEL 7
REMARK VINA RESULT:     -12.2      3.198      4.418
REMARK  Name = 45275554
REMARK  11 active torsions:
REMARK  status: ('A' for Active; 'I' for Inactive)
REMARK    1  A    between atoms: N_1  and  C_25
REMARK    2  A    between atoms: C_2  and  C_8
REMARK    3  A    between atoms: C_8  and  N_10
REMARK    4  A    between atoms: C_11  and  C_14
REMARK    5  A    between atoms: C_15  and  O_23
REMARK    6  A    between atoms: C_19  and  N_20
REMARK    7  A    between atoms: C_25  and  C_26
REMARK    8  A    between atoms: C_26  and  C_27
REMARK    9  A    between atoms: C_27  and  C_29
REMARK   10  A    between atoms: C_27  and  O_35
REMARK   11  A    between atoms: O_35  and  C_38
REMARK                            x       y       z     vdW  Elec       q    Type
REMARK                         _______ _______ _______ _____ _____    ______ ____
ROOT
ATOM      1  N   UNL     1      34.428 -22.598 -16.770  0.00  0.00    +0.387 N 
ATOM      2  C   UNL     1      34.728 -20.960 -19.184  0.00  0.00    +0.015 C 
ATOM      3  C   UNL     1      35.901 -21.269 -18.248  0.00  0.00    -0.021 C 
ATOM      4  C   UNL     1      33.665 -22.058 -19.061  0.00  0.00    -0.021 C 
ATOM      5  C   UNL     1      33.260 -22.280 -17.603  0.00  0.00    -0.077 C 
ATOM      6  C   UNL     1      35.421 -21.517 -16.816  0.00  0.00    -0.077 C 
ATOM      7  H   UNL     1      34.862 -23.441 -17.146  0.00  0.00    -0.080 HD
ENDROOT
BRANCH   2   8
ATOM      8  C   UNL     1      35.201 -20.813 -20.626  0.00  0.00    +0.089 C 
BRANCH   8  10
ATOM      9  O   UNL     1      36.467 -18.244 -20.417  0.00  0.00    -0.270 OA
ATOM     10  N   UNL     1      34.740 -19.583 -21.197  0.00  0.00    -0.301 N 
ATOM     11  C   UNL     1      35.420 -18.377 -21.046  0.00  0.00    +0.249 C 
ATOM     12  H   UNL     1      33.906 -19.591 -21.721  0.00  0.00    +0.150 HD
BRANCH  11  14
ATOM     13 CL   UNL     1      33.855 -13.480 -20.530  0.00  0.00    -0.081 Cl
ATOM     14  C   UNL     1      34.798 -17.186 -21.679  0.00  0.00    +0.088 C 
ATOM     15  C   UNL     1      34.387 -17.216 -23.012  0.00  0.00    +0.144 C 
ATOM     16  C   UNL     1      34.627 -16.026 -20.923  0.00  0.00    +0.020 C 
ATOM     17  C   UNL     1      33.807 -16.087 -23.589  0.00  0.00    +0.052 C 
ATOM     18  C   UNL     1      34.046 -14.897 -21.500  0.00  0.00    +0.071 C 
ATOM     19  C   UNL     1      33.636 -14.928 -22.833  0.00  0.00    +0.055 C 
BRANCH  19  20
ATOM     20  N   UNL     1      33.044 -13.799 -23.444  0.00  0.00    -0.356 N 
ATOM     21  H   UNL     1      32.472 -13.196 -22.915  0.00  0.00    +0.142 HD
ATOM     22  H   UNL     1      33.204 -13.616 -24.398  0.00  0.00    +0.142 HD
ENDBRANCH  19  20
BRANCH  15  23
ATOM     23  O   UNL     1      34.546 -18.340 -23.768  0.00  0.00    -0.471 OA
ATOM     24  C   UNL     1      33.406 -18.799 -24.491  0.00  0.00    +0.252 C 
ENDBRANCH  15  23
ENDBRANCH  11  14
ENDBRANCH   8  10
ENDBRANCH   2   8
BRANCH   1  25
ATOM     25  C   UNL     1      34.017 -22.858 -15.390  0.00  0.00    -0.073 C 
BRANCH  25  26
ATOM     26  C   UNL     1      35.085 -22.352 -14.419  0.00  0.00    +0.026 C 
BRANCH  26  27
ATOM     27  C   UNL     1      35.532 -23.420 -13.409  0.00  0.00    +0.191 C 
BRANCH  27  29
ATOM     28  F   UNL     1      40.487 -25.817 -14.643  0.00  0.00    -0.204 F 
ATOM     29  C   UNL     1      36.860 -24.062 -13.739  0.00  0.00    +0.017 C 
ATOM     30  C   UNL     1      37.687 -23.493 -14.708  0.00  0.00    +0.001 C 
ATOM     31  C   UNL     1      37.257 -25.223 -13.076  0.00  0.00    +0.001 C 
ATOM     32  C   UNL     1      38.912 -24.086 -15.013  0.00  0.00    +0.029 C 
ATOM     33  C   UNL     1      38.483 -25.816 -13.382  0.00  0.00    +0.029 C 
ATOM     34  C   UNL     1      39.310 -25.247 -14.350  0.00  0.00    +0.140 C 
ENDBRANCH  27  29
BRANCH  27  35
ATOM     35  O   UNL     1      35.644 -22.816 -12.118  0.00  0.00    -0.434 OA
BRANCH  35  38
ATOM     36  O   UNL     1      34.487 -24.510 -11.073  0.00  0.00    -0.227 OA
ATOM     37  N   UNL     1      36.079 -23.280  -9.959  0.00  0.00    -0.295 N 
ATOM     38  C   UNL     1      35.325 -23.616 -11.057  0.00  0.00    +0.399 C 
ATOM     39  H   UNL     1      36.736 -22.550 -10.018  0.00  0.00    +0.148 HD
ATOM     40  H   UNL     1      35.961 -23.771  -9.114  0.00  0.00    +0.148 HD
ENDBRANCH  35  38
ENDBRANCH  27  35
ENDBRANCH  26  27
ENDBRANCH  25  26
ENDBRANCH   1  25
TORSDOF 11
ENDMDL
MODEL 8
REMARK VINA RESULT:     -12.1      4.620     10.940
REMARK  Name = 45275554
REMARK  11 active torsions:
REMARK  status: ('A' for Active; 'I' for Inactive)
REMARK    1  A    between atoms: N_1  and  C_25
REMARK    2  A    between atoms: C_2  and  C_8
REMARK    3  A    between atoms: C_8  and  N_10
REMARK    4  A    between atoms: C_11  and  C_14
REMARK    5  A    between atoms: C_15  and  O_23
REMARK    6  A    between atoms: C_19  and  N_20
REMARK    7  A    between atoms: C_25  and  C_26
REMARK    8  A    between atoms: C_26  and  C_27
REMARK    9  A    between atoms: C_27  and  C_29
REMARK   10  A    between atoms: C_27  and  O_35
REMARK   11  A    between atoms: O_35  and  C_38
REMARK                            x       y       z     vdW  Elec       q    Type
REMARK                         _______ _______ _______ _____ _____    ______ ____
ROOT
ATOM      1  N   UNL     1      34.845 -19.455 -20.324  0.00  0.00    +0.387 N 
ATOM      2  C   UNL     1      33.544 -21.736 -19.019  0.00  0.00    +0.015 C 
ATOM      3  C   UNL     1      34.988 -21.325 -18.710  0.00  0.00    -0.021 C 
ATOM      4  C   UNL     1      32.759 -20.523 -19.531  0.00  0.00    -0.021 C 
ATOM      5  C   UNL     1      33.479 -19.846 -20.699  0.00  0.00    -0.077 C 
ATOM      6  C   UNL     1      35.634 -20.620 -19.906  0.00  0.00    -0.077 C 
ATOM      7  H   UNL     1      34.783 -18.816 -19.532  0.00  0.00    -0.080 HD
ENDROOT
BRANCH   2   8
ATOM      8  C   UNL     1      32.874 -22.346 -17.792  0.00  0.00    +0.089 C 
BRANCH   8  10
ATOM      9  O   UNL     1      32.351 -22.736 -14.996  0.00  0.00    -0.270 OA
ATOM     10  N   UNL     1      33.837 -22.651 -16.777  0.00  0.00    -0.301 N 
ATOM     11  C   UNL     1      33.494 -22.825 -15.438  0.00  0.00    +0.249 C 
ATOM     12  H   UNL     1      34.782 -22.742 -17.037  0.00  0.00    +0.150 HD
BRANCH  11  14
ATOM     13 CL   UNL     1      34.959 -24.375 -10.732  0.00  0.00    -0.081 Cl
ATOM     14  C   UNL     1      34.612 -23.112 -14.504  0.00  0.00    +0.088 C 
ATOM     15  C   UNL     1      35.939 -22.947 -14.904  0.00  0.00    +0.144 C 
ATOM     16  C   UNL     1      34.323 -23.552 -13.212  0.00  0.00    +0.020 C 
ATOM     17  C   UNL     1      36.975 -23.223 -14.013  0.00  0.00    +0.052 C 
ATOM     18  C   UNL     1      35.360 -23.829 -12.321  0.00  0.00    +0.071 C 
ATOM     19  C   UNL     1      36.686 -23.664 -12.721  0.00  0.00    +0.055 C 
BRANCH  19  20
ATOM     20  N   UNL     1      37.758 -23.935 -11.841  0.00  0.00    -0.356 N 
ATOM     21  H   UNL     1      37.585 -24.381 -10.979  0.00  0.00    +0.142 HD
ATOM     22  H   UNL     1      38.675 -23.680 -12.088  0.00  0.00    +0.142 HD
ENDBRANCH  19  20
BRANCH  15  23
ATOM     23  O   UNL     1      36.242 -22.518 -16.162  0.00  0.00    -0.471 OA
ATOM     24  C   UNL     1      37.229 -21.496 -16.276  0.00  0.00    +0.252 C 
ENDBRANCH  15  23
ENDBRANCH  11  14
ENDBRANCH   8  10
ENDBRANCH   2   8
BRANCH   1  25
ATOM     25  C   UNL     1      35.502 -18.763 -21.434  0.00  0.00    -0.073 C 
BRANCH  25  26
ATOM     26  C   UNL     1      35.214 -17.263 -21.364  0.00  0.00    +0.026 C 
BRANCH  26  27
ATOM     27  C   UNL     1      34.148 -16.809 -22.374  0.00  0.00    +0.191 C 
BRANCH  27  29
ATOM     28  F   UNL     1      33.321 -11.231 -22.487  0.00  0.00    -0.204 F 
ATOM     29  C   UNL     1      33.926 -15.315 -22.404  0.00  0.00    +0.017 C 
ATOM     30  C   UNL     1      33.898 -14.590 -21.213  0.00  0.00    +0.001 C 
ATOM     31  C   UNL     1      33.750 -14.660 -23.624  0.00  0.00    +0.001 C 
ATOM     32  C   UNL     1      33.694 -13.211 -21.240  0.00  0.00    +0.029 C 
ATOM     33  C   UNL     1      33.546 -13.280 -23.651  0.00  0.00    +0.029 C 
ATOM     34  C   UNL     1      33.518 -12.556 -22.459  0.00  0.00    +0.140 C 
ENDBRANCH  27  29
BRANCH  27  35
ATOM     35  O   UNL     1      34.547 -17.222 -23.684  0.00  0.00    -0.434 OA
BRANCH  35  38
ATOM     36  O   UNL     1      32.729 -17.344 -25.091  0.00  0.00    -0.227 OA
ATOM     37  N   UNL     1      33.752 -19.239 -24.286  0.00  0.00    -0.295 N 
ATOM     38  C   UNL     1      33.598 -17.881 -24.414  0.00  0.00    +0.399 C 
ATOM     39  H   UNL     1      34.475 -19.603 -23.726  0.00  0.00    +0.148 HD
ATOM     40  H   UNL     1      33.140 -19.850 -24.758  0.00  0.00    +0.148 HD
ENDBRANCH  35  38
ENDBRANCH  27  35
ENDBRANCH  26  27
ENDBRANCH  25  26
ENDBRANCH   1  25
TORSDOF 11
ENDMDL
MODEL 9
REMARK VINA RESULT:     -12.1      4.072     10.617
REMARK  Name = 45275554
REMARK  11 active torsions:
REMARK  status: ('A' for Active; 'I' for Inactive)
REMARK    1  A    between atoms: N_1  and  C_25
REMARK    2  A    between atoms: C_2  and  C_8
REMARK    3  A    between atoms: C_8  and  N_10
REMARK    4  A    between atoms: C_11  and  C_14
REMARK    5  A    between atoms: C_15  and  O_23
REMARK    6  A    between atoms: C_19  and  N_20
REMARK    7  A    between atoms: C_25  and  C_26
REMARK    8  A    between atoms: C_26  and  C_27
REMARK    9  A    between atoms: C_27  and  C_29
REMARK   10  A    between atoms: C_27  and  O_35
REMARK   11  A    between atoms: O_35  and  C_38
REMARK                            x       y       z     vdW  Elec       q    Type
REMARK                         _______ _______ _______ _____ _____    ______ ____
ROOT
ATOM      1  N   UNL     1      34.961 -17.538 -22.768  0.00  0.00    +0.387 N 
ATOM      2  C   UNL     1      34.821 -19.556 -20.645  0.00  0.00    +0.015 C 
ATOM      3  C   UNL     1      34.389 -19.846 -22.086  0.00  0.00    -0.021 C 
ATOM      4  C   UNL     1      35.848 -18.418 -20.633  0.00  0.00    -0.021 C 
ATOM      5  C   UNL     1      35.331 -17.193 -21.388  0.00  0.00    -0.077 C 
ATOM      6  C   UNL     1      33.920 -18.572 -22.794  0.00  0.00    -0.077 C 
ATOM      7  H   UNL     1      35.789 -17.912 -23.231  0.00  0.00    -0.080 HD
ENDROOT
BRANCH   2   8
ATOM      8  C   UNL     1      35.381 -20.808 -19.978  0.00  0.00    +0.089 C 
BRANCH   8  10
ATOM      9  O   UNL     1      33.688 -23.089 -19.557  0.00  0.00    -0.270 OA
ATOM     10  N   UNL     1      34.655 -21.126 -18.785  0.00  0.00    -0.301 N 
ATOM     11  C   UNL     1      33.854 -22.259 -18.666  0.00  0.00    +0.249 C 
ATOM     12  H   UNL     1      34.726 -20.517 -18.015  0.00  0.00    +0.150 HD
BRANCH  11  14
ATOM     13 CL   UNL     1      29.353 -22.332 -16.130  0.00  0.00    -0.081 Cl
ATOM     14  C   UNL     1      33.147 -22.433 -17.373  0.00  0.00    +0.088 C 
ATOM     15  C   UNL     1      33.854 -22.709 -16.202  0.00  0.00    +0.144 C 
ATOM     16  C   UNL     1      31.757 -22.318 -17.337  0.00  0.00    +0.020 C 
ATOM     17  C   UNL     1      33.171 -22.871 -14.996  0.00  0.00    +0.052 C 
ATOM     18  C   UNL     1      31.074 -22.480 -16.131  0.00  0.00    +0.071 C 
ATOM     19  C   UNL     1      31.782 -22.756 -14.961  0.00  0.00    +0.055 C 
BRANCH  19  20
ATOM     20  N   UNL     1      31.118 -22.925 -13.725  0.00  0.00    -0.356 N 
ATOM     21  H   UNL     1      30.516 -22.221 -13.389  0.00  0.00    +0.142 HD
ATOM     22  H   UNL     1      31.256 -23.746 -13.200  0.00  0.00    +0.142 HD
ENDBRANCH  19  20
BRANCH  15  23
ATOM     23  O   UNL     1      35.212 -22.826 -16.216  0.00  0.00    -0.471 OA
ATOM     24  C   UNL     1      35.831 -23.316 -15.028  0.00  0.00    +0.252 C 
ENDBRANCH  15  23
ENDBRANCH  11  14
ENDBRANCH   8  10
ENDBRANCH   2   8
BRANCH   1  25
ATOM     25  C   UNL     1      34.517 -16.346 -23.492  0.00  0.00    -0.073 C 
BRANCH  25  26
ATOM     26  C   UNL     1      34.090 -15.259 -22.506  0.00  0.00    +0.026 C 
BRANCH  26  27
ATOM     27  C   UNL     1      33.055 -14.286 -23.095  0.00  0.00    +0.191 C 
BRANCH  27  29
ATOM     28  F   UNL     1      31.158 -10.453 -19.419  0.00  0.00    -0.204 F 
ATOM     29  C   UNL     1      32.547 -13.259 -22.110  0.00  0.00    +0.017 C 
ATOM     30  C   UNL     1      31.940 -12.091 -22.572  0.00  0.00    +0.001 C 
ATOM     31  C   UNL     1      32.685 -13.480 -20.740  0.00  0.00    +0.001 C 
ATOM     32  C   UNL     1      31.471 -11.143 -21.663  0.00  0.00    +0.029 C 
ATOM     33  C   UNL     1      32.215 -12.531 -19.831  0.00  0.00    +0.029 C 
ATOM     34  C   UNL     1      31.608 -11.363 -20.293  0.00  0.00    +0.140 C 
ENDBRANCH  27  29
BRANCH  27  35
ATOM     35  O   UNL     1      33.650 -13.589 -24.192  0.00  0.00    -0.434 OA
BRANCH  35  38
ATOM     36  O   UNL     1      33.056 -14.943 -25.957  0.00  0.00    -0.227 OA
ATOM     37  N   UNL     1      32.629 -12.684 -25.981  0.00  0.00    -0.295 N 
ATOM     38  C   UNL     1      33.109 -13.842 -25.421  0.00  0.00    +0.399 C 
ATOM     39  H   UNL     1      32.704 -11.832 -25.493  0.00  0.00    +0.148 HD
ATOM     40  H   UNL     1      32.207 -12.706 -26.871  0.00  0.00    +0.148 HD
ENDBRANCH  35  38
ENDBRANCH  27  35
ENDBRANCH  26  27
ENDBRANCH  25  26
ENDBRANCH   1  25
TORSDOF 11
ENDMDL
