MODEL 1
REMARK VINA RESULT:     -11.5      0.000      0.000
REMARK  Name = 5280373
REMARK  4 active torsions:
REMARK  status: ('A' for Active; 'I' for Inactive)
REMARK    1  A    between atoms: C_4  and  C_12
REMARK    2  A    between atoms: C_7  and  O_20
REMARK    3  A    between atoms: C_11  and  O_22
REMARK    4  A    between atoms: C_17  and  O_18
REMARK                            x       y       z     vdW  Elec       q    Type
REMARK                         _______ _______ _______ _____ _____    ______ ____
ROOT
ATOM      1  O   UNL     1      36.452 -19.649 -19.657  0.00  0.00    -0.450 OA
ATOM      2  O   UNL     1      32.572 -19.812 -20.908  0.00  0.00    -0.286 OA
ATOM      3  C   UNL     1      34.237 -20.617 -19.451  0.00  0.00    +0.107 C 
ATOM      4  C   UNL     1      34.739 -18.864 -21.188  0.00  0.00    +0.077 C 
ATOM      5  C   UNL     1      35.570 -20.511 -19.058  0.00  0.00    +0.154 C 
ATOM      6  C   UNL     1      33.743 -19.770 -20.553  0.00  0.00    +0.204 C 
ATOM      7  C   UNL     1      33.381 -21.512 -18.803  0.00  0.00    +0.143 C 
ATOM      8  C   UNL     1      35.987 -18.880 -20.696  0.00  0.00    +0.183 C 
ATOM      9  C   UNL     1      36.058 -21.301 -18.016  0.00  0.00    +0.074 C 
ATOM     10  C   UNL     1      33.871 -22.301 -17.760  0.00  0.00    +0.073 C 
ATOM     11  C   UNL     1      35.206 -22.195 -17.368  0.00  0.00    +0.140 C 
ENDROOT
BRANCH   4  12
ATOM     12  C   UNL     1      34.388 -17.994 -22.323  0.00  0.00    +0.006 C 
ATOM     13  C   UNL     1      33.830 -18.542 -23.480  0.00  0.00    +0.003 C 
ATOM     14  C   UNL     1      34.613 -16.617 -22.246  0.00  0.00    +0.003 C 
ATOM     15  C   UNL     1      33.499 -17.718 -24.555  0.00  0.00    +0.037 C 
ATOM     16  C   UNL     1      34.281 -15.794 -23.320  0.00  0.00    +0.037 C 
ATOM     17  C   UNL     1      33.725 -16.343 -24.475  0.00  0.00    +0.139 C 
BRANCH  17  18
ATOM     18  O   UNL     1      33.401 -15.539 -25.525  0.00  0.00    -0.471 OA
ATOM     19  C   UNL     1      33.094 -14.178 -25.229  0.00  0.00    +0.252 C 
ENDBRANCH  17  18
ENDBRANCH   4  12
BRANCH   7  20
ATOM     20  O   UNL     1      32.071 -21.655 -19.144  0.00  0.00    -0.505 OA
ATOM     21  H   UNL     1      31.695 -21.103 -19.802  0.00  0.00    +0.292 HD
ENDBRANCH   7  20
BRANCH  11  22
ATOM     22  O   UNL     1      35.678 -22.969 -16.352  0.00  0.00    -0.505 OA
ATOM     23  H   UNL     1      36.533 -22.809 -16.000  0.00  0.00    +0.292 HD
ENDBRANCH  11  22
TORSDOF 4
ENDMDL
MODEL 2
REMARK VINA RESULT:     -11.3      1.959      7.699
REMARK  Name = 5280373
REMARK  4 active torsions:
REMARK  status: ('A' for Active; 'I' for Inactive)
REMARK    1  A    between atoms: C_4  and  C_12
REMARK    2  A    between atoms: C_7  and  O_20
REMARK    3  A    between atoms: C_11  and  O_22
REMARK    4  A    between atoms: C_17  and  O_18
REMARK                            x       y       z     vdW  Elec       q    Type
REMARK                         _______ _______ _______ _____ _____    ______ ____
ROOT
ATOM      1  O   UNL     1      33.774 -16.947 -24.336  0.00  0.00    -0.450 OA
ATOM      2  O   UNL     1      34.459 -15.830 -20.472  0.00  0.00    -0.286 OA
ATOM      3  C   UNL     1      33.896 -15.190 -22.667  0.00  0.00    +0.107 C 
ATOM      4  C   UNL     1      34.404 -17.586 -22.080  0.00  0.00    +0.077 C 
ATOM      5  C   UNL     1      33.663 -15.631 -23.970  0.00  0.00    +0.154 C 
ATOM      6  C   UNL     1      34.275 -16.172 -21.634  0.00  0.00    +0.204 C 
ATOM      7  C   UNL     1      33.766 -13.835 -22.349  0.00  0.00    +0.143 C 
ATOM      8  C   UNL     1      34.148 -17.850 -23.371  0.00  0.00    +0.183 C 
ATOM      9  C   UNL     1      33.301 -14.719 -24.962  0.00  0.00    +0.074 C 
ATOM     10  C   UNL     1      33.403 -12.926 -23.344  0.00  0.00    +0.073 C 
ATOM     11  C   UNL     1      33.171 -13.367 -24.647  0.00  0.00    +0.140 C 
ENDROOT
BRANCH   4  12
ATOM     12  C   UNL     1      34.813 -18.659 -21.160  0.00  0.00    +0.006 C 
ATOM     13  C   UNL     1      36.147 -18.772 -20.763  0.00  0.00    +0.003 C 
ATOM     14  C   UNL     1      33.867 -19.569 -20.679  0.00  0.00    +0.003 C 
ATOM     15  C   UNL     1      36.535 -19.789 -19.892  0.00  0.00    +0.037 C 
ATOM     16  C   UNL     1      34.255 -20.585 -19.808  0.00  0.00    +0.037 C 
ATOM     17  C   UNL     1      35.588 -20.697 -19.414  0.00  0.00    +0.139 C 
BRANCH  17  18
ATOM     18  O   UNL     1      35.967 -21.689 -18.563  0.00  0.00    -0.471 OA
ATOM     19  C   UNL     1      36.353 -21.302 -17.245  0.00  0.00    +0.252 C 
ENDBRANCH  17  18
ENDBRANCH   4  12
BRANCH   7  20
ATOM     20  O   UNL     1      33.980 -13.351 -21.094  0.00  0.00    -0.505 OA
ATOM     21  H   UNL     1      33.891 -12.434 -20.924  0.00  0.00    +0.292 HD
ENDBRANCH   7  20
BRANCH  11  22
ATOM     22  O   UNL     1      32.819 -12.475 -25.613  0.00  0.00    -0.505 OA
ATOM     23  H   UNL     1      31.929 -12.187 -25.683  0.00  0.00    +0.292 HD
ENDBRANCH  11  22
TORSDOF 4
ENDMDL
MODEL 3
REMARK VINA RESULT:     -10.8      4.338      7.353
REMARK  Name = 5280373
REMARK  4 active torsions:
REMARK  status: ('A' for Active; 'I' for Inactive)
REMARK    1  A    between atoms: C_4  and  C_12
REMARK    2  A    between atoms: C_7  and  O_20
REMARK    3  A    between atoms: C_11  and  O_22
REMARK    4  A    between atoms: C_17  and  O_18
REMARK                            x       y       z     vdW  Elec       q    Type
REMARK                         _______ _______ _______ _____ _____    ______ ____
ROOT
ATOM      1  O   UNL     1      34.060 -14.440 -20.761  0.00  0.00    -0.450 OA
ATOM      2  O   UNL     1      32.503 -13.431 -24.394  0.00  0.00    -0.286 OA
ATOM      3  C   UNL     1      33.661 -15.010 -23.086  0.00  0.00    +0.107 C 
ATOM      4  C   UNL     1      32.912 -12.800 -22.135  0.00  0.00    +0.077 C 
ATOM      5  C   UNL     1      34.164 -15.305 -21.819  0.00  0.00    +0.154 C 
ATOM      6  C   UNL     1      32.985 -13.717 -23.306  0.00  0.00    +0.204 C 
ATOM      7  C   UNL     1      33.794 -15.930 -24.128  0.00  0.00    +0.143 C 
ATOM      8  C   UNL     1      33.447 -13.231 -20.982  0.00  0.00    +0.183 C 
ATOM      9  C   UNL     1      34.805 -16.524 -21.589  0.00  0.00    +0.074 C 
ATOM     10  C   UNL     1      34.435 -17.148 -23.895  0.00  0.00    +0.073 C 
ATOM     11  C   UNL     1      34.938 -17.444 -22.627  0.00  0.00    +0.140 C 
ENDROOT
BRANCH   4  12
ATOM     12  C   UNL     1      32.300 -11.465 -22.227  0.00  0.00    +0.006 C 
ATOM     13  C   UNL     1      32.824 -10.512 -23.104  0.00  0.00    +0.003 C 
ATOM     14  C   UNL     1      31.192 -11.146 -21.438  0.00  0.00    +0.003 C 
ATOM     15  C   UNL     1      32.244  -9.248 -23.191  0.00  0.00    +0.037 C 
ATOM     16  C   UNL     1      30.612  -9.882 -21.525  0.00  0.00    +0.037 C 
ATOM     17  C   UNL     1      31.137  -8.932 -22.401  0.00  0.00    +0.139 C 
BRANCH  17  18
ATOM     18  O   UNL     1      30.571  -7.697 -22.487  0.00  0.00    -0.471 OA
ATOM     19  C   UNL     1      31.134  -6.667 -21.674  0.00  0.00    +0.252 C 
ENDBRANCH  17  18
ENDBRANCH   4  12
BRANCH   7  20
ATOM     20  O   UNL     1      33.320 -15.693 -25.383  0.00  0.00    -0.505 OA
ATOM     21  H   UNL     1      33.016 -14.837 -25.616  0.00  0.00    +0.292 HD
ENDBRANCH   7  20
BRANCH  11  22
ATOM     22  O   UNL     1      35.564 -18.632 -22.407  0.00  0.00    -0.505 OA
ATOM     23  H   UNL     1      35.575 -19.287 -23.078  0.00  0.00    +0.292 HD
ENDBRANCH  11  22
TORSDOF 4
ENDMDL
MODEL 4
REMARK VINA RESULT:     -10.1      2.496      5.281
REMARK  Name = 5280373
REMARK  4 active torsions:
REMARK  status: ('A' for Active; 'I' for Inactive)
REMARK    1  A    between atoms: C_4  and  C_12
REMARK    2  A    between atoms: C_7  and  O_20
REMARK    3  A    between atoms: C_11  and  O_22
REMARK    4  A    between atoms: C_17  and  O_18
REMARK                            x       y       z     vdW  Elec       q    Type
REMARK                         _______ _______ _______ _____ _____    ______ ____
ROOT
ATOM      1  O   UNL     1      33.248 -23.445 -15.791  0.00  0.00    -0.450 OA
ATOM      2  O   UNL     1      36.593 -21.582 -17.202  0.00  0.00    -0.286 OA
ATOM      3  C   UNL     1      35.602 -22.914 -15.532  0.00  0.00    +0.107 C 
ATOM      4  C   UNL     1      34.271 -22.030 -17.479  0.00  0.00    +0.077 C 
ATOM      5  C   UNL     1      34.431 -23.538 -15.104  0.00  0.00    +0.154 C 
ATOM      6  C   UNL     1      35.580 -22.121 -16.776  0.00  0.00    +0.204 C 
ATOM      7  C   UNL     1      36.781 -23.044 -14.793  0.00  0.00    +0.143 C 
ATOM      8  C   UNL     1      33.234 -22.687 -16.937  0.00  0.00    +0.183 C 
ATOM      9  C   UNL     1      34.431 -24.295 -13.931  0.00  0.00    +0.074 C 
ATOM     10  C   UNL     1      36.778 -23.802 -13.620  0.00  0.00    +0.073 C 
ATOM     11  C   UNL     1      35.605 -24.427 -13.191  0.00  0.00    +0.140 C 
ENDROOT
BRANCH   4  12
ATOM     12  C   UNL     1      34.100 -21.240 -18.709  0.00  0.00    +0.006 C 
ATOM     13  C   UNL     1      32.819 -20.935 -19.175  0.00  0.00    +0.003 C 
ATOM     14  C   UNL     1      35.220 -20.791 -19.415  0.00  0.00    +0.003 C 
ATOM     15  C   UNL     1      32.658 -20.186 -20.340  0.00  0.00    +0.037 C 
ATOM     16  C   UNL     1      35.058 -20.043 -20.579  0.00  0.00    +0.037 C 
ATOM     17  C   UNL     1      33.778 -19.740 -21.043  0.00  0.00    +0.139 C 
BRANCH  17  18
ATOM     18  O   UNL     1      33.620 -19.009 -22.180  0.00  0.00    -0.471 OA
ATOM     19  C   UNL     1      34.719 -18.194 -22.585  0.00  0.00    +0.252 C 
ENDBRANCH  17  18
ENDBRANCH   4  12
BRANCH   7  20
ATOM     20  O   UNL     1      37.952 -22.458 -15.166  0.00  0.00    -0.505 OA
ATOM     21  H   UNL     1      38.661 -22.396 -14.556  0.00  0.00    +0.292 HD
ENDBRANCH   7  20
BRANCH  11  22
ATOM     22  O   UNL     1      35.609 -25.163 -12.046  0.00  0.00    -0.505 OA
ATOM     23  H   UNL     1      36.133 -24.892 -11.318  0.00  0.00    +0.292 HD
ENDBRANCH  11  22
TORSDOF 4
ENDMDL
MODEL 5
REMARK VINA RESULT:     -10.1      2.136      7.911
REMARK  Name = 5280373
REMARK  4 active torsions:
REMARK  status: ('A' for Active; 'I' for Inactive)
REMARK    1  A    between atoms: C_4  and  C_12
REMARK    2  A    between atoms: C_7  and  O_20
REMARK    3  A    between atoms: C_11  and  O_22
REMARK    4  A    between atoms: C_17  and  O_18
REMARK                            x       y       z     vdW  Elec       q    Type
REMARK                         _______ _______ _______ _____ _____    ______ ____
ROOT
ATOM      1  O   UNL     1      33.879 -13.893 -21.081  0.00  0.00    -0.450 OA
ATOM      2  O   UNL     1      34.072 -16.796 -23.942  0.00  0.00    -0.286 OA
ATOM      3  C   UNL     1      33.591 -14.556 -23.398  0.00  0.00    +0.107 C 
ATOM      4  C   UNL     1      34.323 -16.213 -21.647  0.00  0.00    +0.077 C 
ATOM      5  C   UNL     1      33.554 -13.602 -22.381  0.00  0.00    +0.154 C 
ATOM      6  C   UNL     1      33.998 -15.936 -23.074  0.00  0.00    +0.204 C 
ATOM      7  C   UNL     1      33.251 -14.203 -24.707  0.00  0.00    +0.143 C 
ATOM      8  C   UNL     1      34.237 -15.186 -20.787  0.00  0.00    +0.183 C 
ATOM      9  C   UNL     1      33.175 -12.290 -22.667  0.00  0.00    +0.074 C 
ATOM     10  C   UNL     1      32.872 -12.889 -24.989  0.00  0.00    +0.073 C 
ATOM     11  C   UNL     1      32.835 -11.936 -23.972  0.00  0.00    +0.140 C 
ENDROOT
BRANCH   4  12
ATOM     12  C   UNL     1      34.705 -17.555 -21.181  0.00  0.00    +0.006 C 
ATOM     13  C   UNL     1      36.052 -17.891 -21.036  0.00  0.00    +0.003 C 
ATOM     14  C   UNL     1      33.719 -18.499 -20.881  0.00  0.00    +0.003 C 
ATOM     15  C   UNL     1      36.414 -19.163 -20.595  0.00  0.00    +0.037 C 
ATOM     16  C   UNL     1      34.080 -19.771 -20.440  0.00  0.00    +0.037 C 
ATOM     17  C   UNL     1      35.428 -20.104 -20.297  0.00  0.00    +0.139 C 
BRANCH  17  18
ATOM     18  O   UNL     1      35.781 -21.346 -19.866  0.00  0.00    -0.471 OA
ATOM     19  C   UNL     1      35.798 -21.563 -18.456  0.00  0.00    +0.252 C 
ENDBRANCH  17  18
ENDBRANCH   4  12
BRANCH   7  20
ATOM     20  O   UNL     1      33.272 -15.093 -25.737  0.00  0.00    -0.505 OA
ATOM     21  H   UNL     1      34.048 -15.589 -25.913  0.00  0.00    +0.292 HD
ENDBRANCH   7  20
BRANCH  11  22
ATOM     22  O   UNL     1      32.462 -10.657 -24.254  0.00  0.00    -0.505 OA
ATOM     23  H   UNL     1      32.590  -9.981 -23.616  0.00  0.00    +0.292 HD
ENDBRANCH  11  22
TORSDOF 4
ENDMDL
MODEL 6
REMARK VINA RESULT:      -9.9      4.468      7.468
REMARK  Name = 5280373
REMARK  4 active torsions:
REMARK  status: ('A' for Active; 'I' for Inactive)
REMARK    1  A    between atoms: C_4  and  C_12
REMARK    2  A    between atoms: C_7  and  O_20
REMARK    3  A    between atoms: C_11  and  O_22
REMARK    4  A    between atoms: C_17  and  O_18
REMARK                            x       y       z     vdW  Elec       q    Type
REMARK                         _______ _______ _______ _____ _____    ______ ____
ROOT
ATOM      1  O   UNL     1      33.294 -14.366 -24.560  0.00  0.00    -0.450 OA
ATOM      2  O   UNL     1      33.336 -13.104 -20.680  0.00  0.00    -0.286 OA
ATOM      3  C   UNL     1      33.765 -14.829 -22.225  0.00  0.00    +0.107 C 
ATOM      4  C   UNL     1      32.808 -12.614 -22.950  0.00  0.00    +0.077 C 
ATOM      5  C   UNL     1      33.738 -15.202 -23.568  0.00  0.00    +0.154 C 
ATOM      6  C   UNL     1      33.301 -13.481 -21.845  0.00  0.00    +0.204 C 
ATOM      7  C   UNL     1      34.230 -15.721 -21.256  0.00  0.00    +0.143 C 
ATOM      8  C   UNL     1      32.845 -13.121 -24.192  0.00  0.00    +0.183 C 
ATOM      9  C   UNL     1      34.175 -16.471 -23.950  0.00  0.00    +0.074 C 
ATOM     10  C   UNL     1      34.666 -16.990 -21.641  0.00  0.00    +0.073 C 
ATOM     11  C   UNL     1      34.639 -17.364 -22.985  0.00  0.00    +0.140 C 
ENDROOT
BRANCH   4  12
ATOM     12  C   UNL     1      32.281 -11.262 -22.705  0.00  0.00    +0.006 C 
ATOM     13  C   UNL     1      31.157 -11.084 -21.897  0.00  0.00    +0.003 C 
ATOM     14  C   UNL     1      32.906 -10.152 -23.279  0.00  0.00    +0.003 C 
ATOM     15  C   UNL     1      30.658  -9.803 -21.664  0.00  0.00    +0.037 C 
ATOM     16  C   UNL     1      32.407  -8.871 -23.047  0.00  0.00    +0.037 C 
ATOM     17  C   UNL     1      31.283  -8.696 -22.240  0.00  0.00    +0.139 C 
BRANCH  17  18
ATOM     18  O   UNL     1      30.795  -7.446 -22.013  0.00  0.00    -0.471 OA
ATOM     19  C   UNL     1      30.443  -6.669 -23.157  0.00  0.00    +0.252 C 
ENDBRANCH  17  18
ENDBRANCH   4  12
BRANCH   7  20
ATOM     20  O   UNL     1      34.279 -15.408 -19.931  0.00  0.00    -0.505 OA
ATOM     21  H   UNL     1      34.173 -16.080 -19.286  0.00  0.00    +0.292 HD
ENDBRANCH   7  20
BRANCH  11  22
ATOM     22  O   UNL     1      35.065 -18.603 -23.354  0.00  0.00    -0.505 OA
ATOM     23  H   UNL     1      35.884 -18.704 -23.799  0.00  0.00    +0.292 HD
ENDBRANCH  11  22
TORSDOF 4
ENDMDL
MODEL 7
REMARK VINA RESULT:      -9.7      3.318      5.602
REMARK  Name = 5280373
REMARK  4 active torsions:
REMARK  status: ('A' for Active; 'I' for Inactive)
REMARK    1  A    between atoms: C_4  and  C_12
REMARK    2  A    between atoms: C_7  and  O_20
REMARK    3  A    between atoms: C_11  and  O_22
REMARK    4  A    between atoms: C_17  and  O_18
REMARK                            x       y       z     vdW  Elec       q    Type
REMARK                         _______ _______ _______ _____ _____    ______ ____
ROOT
ATOM      1  O   UNL     1      33.642 -23.368 -15.283  0.00  0.00    -0.450 OA
ATOM      2  O   UNL     1      30.803 -21.698 -17.691  0.00  0.00    -0.286 OA
ATOM      3  C   UNL     1      31.298 -22.975 -15.775  0.00  0.00    +0.107 C 
ATOM      4  C   UNL     1      33.115 -22.096 -17.283  0.00  0.00    +0.077 C 
ATOM      5  C   UNL     1      32.312 -23.514 -14.984  0.00  0.00    +0.154 C 
ATOM      6  C   UNL     1      31.661 -22.212 -16.985  0.00  0.00    +0.204 C 
ATOM      7  C   UNL     1      29.958 -23.153 -15.421  0.00  0.00    +0.143 C 
ATOM      8  C   UNL     1      33.967 -22.674 -16.423  0.00  0.00    +0.183 C 
ATOM      9  C   UNL     1      31.991 -24.236 -13.833  0.00  0.00    +0.074 C 
ATOM     10  C   UNL     1      29.641 -23.875 -14.270  0.00  0.00    +0.073 C 
ATOM     11  C   UNL     1      30.655 -24.415 -13.478  0.00  0.00    +0.140 C 
ENDROOT
BRANCH   4  12
ATOM     12  C   UNL     1      33.612 -21.396 -18.479  0.00  0.00    +0.006 C 
ATOM     13  C   UNL     1      34.977 -21.392 -18.772  0.00  0.00    +0.003 C 
ATOM     14  C   UNL     1      32.718 -20.735 -19.325  0.00  0.00    +0.003 C 
ATOM     15  C   UNL     1      35.447 -20.728 -19.905  0.00  0.00    +0.037 C 
ATOM     16  C   UNL     1      33.188 -20.072 -20.458  0.00  0.00    +0.037 C 
ATOM     17  C   UNL     1      34.552 -20.068 -20.748  0.00  0.00    +0.139 C 
BRANCH  17  18
ATOM     18  O   UNL     1      35.012 -19.421 -21.854  0.00  0.00    -0.471 OA
ATOM     19  C   UNL     1      34.036 -18.844 -22.721  0.00  0.00    +0.252 C 
ENDBRANCH  17  18
ENDBRANCH   4  12
BRANCH   7  20
ATOM     20  O   UNL     1      28.930 -22.647 -16.157  0.00  0.00    -0.505 OA
ATOM     21  H   UNL     1      28.804 -22.927 -17.043  0.00  0.00    +0.292 HD
ENDBRANCH   7  20
BRANCH  11  22
ATOM     22  O   UNL     1      30.338 -25.121 -12.357  0.00  0.00    -0.505 OA
ATOM     23  H   UNL     1      29.698 -25.805 -12.401  0.00  0.00    +0.292 HD
ENDBRANCH  11  22
TORSDOF 4
ENDMDL
MODEL 8
REMARK VINA RESULT:      -9.6      3.156      5.849
REMARK  Name = 5280373
REMARK  4 active torsions:
REMARK  status: ('A' for Active; 'I' for Inactive)
REMARK    1  A    between atoms: C_4  and  C_12
REMARK    2  A    between atoms: C_7  and  O_20
REMARK    3  A    between atoms: C_11  and  O_22
REMARK    4  A    between atoms: C_17  and  O_18
REMARK                            x       y       z     vdW  Elec       q    Type
REMARK                         _______ _______ _______ _____ _____    ______ ____
ROOT
ATOM      1  O   UNL     1      30.559 -22.576 -16.507  0.00  0.00    -0.450 OA
ATOM      2  O   UNL     1      34.636 -22.702 -16.407  0.00  0.00    -0.286 OA
ATOM      3  C   UNL     1      32.594 -23.257 -15.374  0.00  0.00    +0.107 C 
ATOM      4  C   UNL     1      32.672 -21.966 -17.536  0.00  0.00    +0.077 C 
ATOM      5  C   UNL     1      31.204 -23.193 -15.466  0.00  0.00    +0.154 C 
ATOM      6  C   UNL     1      33.413 -22.642 -16.435  0.00  0.00    +0.204 C 
ATOM      7  C   UNL     1      33.198 -23.900 -14.291  0.00  0.00    +0.143 C 
ATOM      8  C   UNL     1      31.332 -21.989 -17.479  0.00  0.00    +0.183 C 
ATOM      9  C   UNL     1      30.410 -23.770 -14.475  0.00  0.00    +0.074 C 
ATOM     10  C   UNL     1      32.401 -24.477 -13.300  0.00  0.00    +0.073 C 
ATOM     11  C   UNL     1      31.010 -24.412 -13.393  0.00  0.00    +0.140 C 
ENDROOT
BRANCH   4  12
ATOM     12  C   UNL     1      33.368 -21.280 -18.636  0.00  0.00    +0.006 C 
ATOM     13  C   UNL     1      34.749 -21.414 -18.785  0.00  0.00    +0.003 C 
ATOM     14  C   UNL     1      32.646 -20.491 -19.537  0.00  0.00    +0.003 C 
ATOM     15  C   UNL     1      35.407 -20.763 -19.828  0.00  0.00    +0.037 C 
ATOM     16  C   UNL     1      33.304 -19.840 -20.579  0.00  0.00    +0.037 C 
ATOM     17  C   UNL     1      34.685 -19.975 -20.725  0.00  0.00    +0.139 C 
BRANCH  17  18
ATOM     18  O   UNL     1      35.328 -19.340 -21.743  0.00  0.00    -0.471 OA
ATOM     19  C   UNL     1      36.258 -18.319 -21.386  0.00  0.00    +0.252 C 
ENDBRANCH  17  18
ENDBRANCH   4  12
BRANCH   7  20
ATOM     20  O   UNL     1      34.550 -23.994 -14.152  0.00  0.00    -0.505 OA
ATOM     21  H   UNL     1      35.115 -23.560 -14.761  0.00  0.00    +0.292 HD
ENDBRANCH   7  20
BRANCH  11  22
ATOM     22  O   UNL     1      30.239 -24.975 -12.422  0.00  0.00    -0.505 OA
ATOM     23  H   UNL     1      30.311 -24.677 -11.536  0.00  0.00    +0.292 HD
ENDBRANCH  11  22
TORSDOF 4
ENDMDL
MODEL 9
REMARK VINA RESULT:      -9.6      7.482      9.067
REMARK  Name = 5280373
REMARK  4 active torsions:
REMARK  status: ('A' for Active; 'I' for Inactive)
REMARK    1  A    between atoms: C_4  and  C_12
REMARK    2  A    between atoms: C_7  and  O_20
REMARK    3  A    between atoms: C_11  and  O_22
REMARK    4  A    between atoms: C_17  and  O_18
REMARK                            x       y       z     vdW  Elec       q    Type
REMARK                         _______ _______ _______ _____ _____    ______ ____
ROOT
ATOM      1  O   UNL     1      34.820 -23.218 -15.889  0.00  0.00    -0.450 OA
ATOM      2  O   UNL     1      32.502 -24.084 -12.645  0.00  0.00    -0.286 OA
ATOM      3  C   UNL     1      34.661 -23.909 -13.568  0.00  0.00    +0.107 C 
ATOM      4  C   UNL     1      32.598 -23.451 -14.939  0.00  0.00    +0.077 C 
ATOM      5  C   UNL     1      35.403 -23.591 -14.705  0.00  0.00    +0.154 C 
ATOM      6  C   UNL     1      33.189 -23.841 -13.629  0.00  0.00    +0.204 C 
ATOM      7  C   UNL     1      35.308 -24.282 -12.387  0.00  0.00    +0.143 C 
ATOM      8  C   UNL     1      33.448 -23.178 -15.940  0.00  0.00    +0.183 C 
ATOM      9  C   UNL     1      36.797 -23.646 -14.669  0.00  0.00    +0.074 C 
ATOM     10  C   UNL     1      36.703 -24.336 -12.353  0.00  0.00    +0.073 C 
ATOM     11  C   UNL     1      37.445 -24.018 -13.492  0.00  0.00    +0.140 C 
ENDROOT
BRANCH   4  12
ATOM     12  C   UNL     1      31.142 -23.383 -15.147  0.00  0.00    +0.006 C 
ATOM     13  C   UNL     1      30.304 -24.331 -14.558  0.00  0.00    +0.003 C 
ATOM     14  C   UNL     1      30.595 -22.368 -15.936  0.00  0.00    +0.003 C 
ATOM     15  C   UNL     1      28.926 -24.267 -14.756  0.00  0.00    +0.037 C 
ATOM     16  C   UNL     1      29.216 -22.303 -16.134  0.00  0.00    +0.037 C 
ATOM     17  C   UNL     1      28.381 -23.252 -15.545  0.00  0.00    +0.139 C 
BRANCH  17  18
ATOM     18  O   UNL     1      27.036 -23.189 -15.738  0.00  0.00    -0.471 OA
ATOM     19  C   UNL     1      26.455 -21.890 -15.843  0.00  0.00    +0.252 C 
ENDBRANCH  17  18
ENDBRANCH   4  12
BRANCH   7  20
ATOM     20  O   UNL     1      34.633 -24.601 -11.248  0.00  0.00    -0.505 OA
ATOM     21  H   UNL     1      33.722 -24.394 -11.169  0.00  0.00    +0.292 HD
ENDBRANCH   7  20
BRANCH  11  22
ATOM     22  O   UNL     1      38.805 -24.074 -13.453  0.00  0.00    -0.505 OA
ATOM     23  H   UNL     1      39.236 -24.904 -13.378  0.00  0.00    +0.292 HD
ENDBRANCH  11  22
TORSDOF 4
ENDMDL
