MODEL 1
REMARK VINA RESULT:     -11.6      0.000      0.000
REMARK  Name = 10479502
REMARK  5 active torsions:
REMARK  status: ('A' for Active; 'I' for Inactive)
REMARK    1  A    between atoms: C_2  and  S_22
REMARK    2  A    between atoms: C_3  and  O_33
REMARK    3  A    between atoms: C_5  and  N_9
REMARK    4  A    between atoms: N_10  and  C_16
REMARK    5  A    between atoms: S_22  and  N_25
REMARK                            x       y       z     vdW  Elec       q    Type
REMARK                         _______ _______ _______ _____ _____    ______ ____
ROOT
ATOM      1 CL   UNL     1      33.134 -23.871 -14.536  0.00  0.00    -0.081 Cl
ATOM      2  C   UNL     1      34.907 -22.420 -16.032  0.00  0.00    +0.167 C 
ATOM      3  C   UNL     1      35.300 -21.763 -17.193  0.00  0.00    +0.167 C 
ATOM      4  C   UNL     1      33.666 -23.043 -15.956  0.00  0.00    +0.079 C 
ATOM      5  C   UNL     1      34.441 -21.727 -18.291  0.00  0.00    +0.087 C 
ATOM      6  C   UNL     1      32.807 -23.008 -17.054  0.00  0.00    +0.014 C 
ATOM      7  C   UNL     1      33.194 -22.350 -18.222  0.00  0.00    +0.019 C 
ENDROOT
BRANCH   5   9
ATOM      8  O   UNL     1      32.916 -19.805 -19.993  0.00  0.00    -0.252 OA
ATOM      9  N   UNL     1      34.812 -21.074 -19.469  0.00  0.00    -0.266 N 
ATOM     10  N   UNL     1      34.815 -19.747 -21.357  0.00  0.00    -0.267 N 
ATOM     11  C   UNL     1      34.059 -20.167 -20.250  0.00  0.00    +0.308 C 
ATOM     12  H   UNL     1      35.718 -21.273 -19.800  0.00  0.00    +0.157 HD
ATOM     13  H   UNL     1      35.720 -20.125 -21.430  0.00  0.00    +0.156 HD
BRANCH  10  16
ATOM     14 CL   UNL     1      34.981 -16.795 -20.666  0.00  0.00    -0.079 Cl
ATOM     15  F   UNL     1      34.118 -15.285 -23.031  0.00  0.00    -0.203 F 
ATOM     16  C   UNL     1      34.435 -18.845 -22.380  0.00  0.00    +0.064 C 
ATOM     17  C   UNL     1      34.473 -17.475 -22.172  0.00  0.00    +0.098 C 
ATOM     18  C   UNL     1      34.025 -19.377 -23.594  0.00  0.00    +0.016 C 
ATOM     19  C   UNL     1      34.093 -16.615 -23.201  0.00  0.00    +0.152 C 
ATOM     20  C   UNL     1      33.646 -18.516 -24.623  0.00  0.00    +0.004 C 
ATOM     21  C   UNL     1      33.679 -17.136 -24.427  0.00  0.00    +0.031 C 
ENDBRANCH  10  16
ENDBRANCH   5   9
BRANCH   2  22
ATOM     22  S   UNL     1      36.016 -22.448 -14.659  0.00  0.00    +0.067 S 
ATOM     23  O   UNL     1      37.046 -21.460 -14.903  0.00  0.00    -0.153 OA
ATOM     24  O   UNL     1      35.226 -22.417 -13.447  0.00  0.00    -0.153 OA
BRANCH  22  25
ATOM     25  N   UNL     1      36.686 -24.013 -14.847  0.00  0.00    -0.160 NA
ATOM     26  N   UNL     1      37.706 -26.659 -14.381  0.00  0.00    +0.386 N 
ATOM     27  C   UNL     1      38.024 -24.217 -14.219  0.00  0.00    +0.072 C 
ATOM     28  C   UNL     1      35.764 -25.146 -14.548  0.00  0.00    +0.072 C 
ATOM     29  C   UNL     1      38.608 -25.547 -14.687  0.00  0.00    -0.062 C 
ATOM     30  C   UNL     1      36.399 -26.454 -15.009  0.00  0.00    -0.062 C 
ATOM     31  H   UNL     1      37.585 -26.723 -13.370  0.00  0.00    -0.084 HD
ATOM     32  H   UNL     1      38.113 -27.520 -14.746  0.00  0.00    -0.084 HD
ENDBRANCH  22  25
ENDBRANCH   2  22
BRANCH   3  33
ATOM     33  O   UNL     1      36.519 -21.153 -17.269  0.00  0.00    -0.503 OA
ATOM     34  H   UNL     1      37.300 -21.669 -17.296  0.00  0.00    +0.292 HD
ENDBRANCH   3  33
TORSDOF 5
ENDMDL
MODEL 2
REMARK VINA RESULT:     -10.9     10.410     15.556
REMARK  Name = 10479502
REMARK  5 active torsions:
REMARK  status: ('A' for Active; 'I' for Inactive)
REMARK    1  A    between atoms: C_2  and  S_22
REMARK    2  A    between atoms: C_3  and  O_33
REMARK    3  A    between atoms: C_5  and  N_9
REMARK    4  A    between atoms: N_10  and  C_16
REMARK    5  A    between atoms: S_22  and  N_25
REMARK                            x       y       z     vdW  Elec       q    Type
REMARK                         _______ _______ _______ _____ _____    ______ ____
ROOT
ATOM      1 CL   UNL     1      31.068  -4.602 -20.844  0.00  0.00    -0.081 Cl
ATOM      2  C   UNL     1      30.990  -6.866 -22.379  0.00  0.00    +0.167 C 
ATOM      3  C   UNL     1      31.101  -8.240 -22.565  0.00  0.00    +0.167 C 
ATOM      4  C   UNL     1      31.197  -6.302 -21.125  0.00  0.00    +0.079 C 
ATOM      5  C   UNL     1      31.423  -9.059 -21.483  0.00  0.00    +0.087 C 
ATOM      6  C   UNL     1      31.518  -7.122 -20.043  0.00  0.00    +0.014 C 
ATOM      7  C   UNL     1      31.632  -8.500 -20.222  0.00  0.00    +0.019 C 
ENDROOT
BRANCH   5   9
ATOM      8  O   UNL     1      33.259 -10.647 -23.224  0.00  0.00    -0.252 OA
ATOM      9  N   UNL     1      31.542 -10.442 -21.645  0.00  0.00    -0.266 N 
ATOM     10  N   UNL     1      32.211 -12.540 -22.336  0.00  0.00    -0.267 N 
ATOM     11  C   UNL     1      32.428 -11.160 -22.483  0.00  0.00    +0.308 C 
ATOM     12  H   UNL     1      30.928 -10.989 -21.104  0.00  0.00    +0.157 HD
ATOM     13  H   UNL     1      31.506 -12.801 -21.701  0.00  0.00    +0.156 HD
BRANCH  10  16
ATOM     14 CL   UNL     1      33.949 -14.305 -20.581  0.00  0.00    -0.079 Cl
ATOM     15  F   UNL     1      35.144 -16.358 -22.303  0.00  0.00    -0.203 F 
ATOM     16  C   UNL     1      32.882 -13.601 -22.990  0.00  0.00    +0.064 C 
ATOM     17  C   UNL     1      33.701 -14.468 -22.284  0.00  0.00    +0.098 C 
ATOM     18  C   UNL     1      32.692 -13.744 -24.357  0.00  0.00    +0.016 C 
ATOM     19  C   UNL     1      34.345 -15.504 -22.958  0.00  0.00    +0.152 C 
ATOM     20  C   UNL     1      33.337 -14.781 -25.031  0.00  0.00    +0.004 C 
ATOM     21  C   UNL     1      34.164 -15.660 -24.332  0.00  0.00    +0.031 C 
ENDBRANCH  10  16
ENDBRANCH   5   9
BRANCH   2  22
ATOM     22  S   UNL     1      30.582  -5.854 -23.766  0.00  0.00    +0.067 S 
ATOM     23  O   UNL     1      29.725  -6.628 -24.640  0.00  0.00    -0.153 OA
ATOM     24  O   UNL     1      30.166  -4.561 -23.269  0.00  0.00    -0.153 OA
BRANCH  22  25
ATOM     25  N   UNL     1      32.126  -5.701 -24.490  0.00  0.00    -0.160 NA
ATOM     26  N   UNL     1      34.412  -4.763 -25.957  0.00  0.00    +0.386 N 
ATOM     27  C   UNL     1      32.141  -5.727 -25.982  0.00  0.00    +0.072 C 
ATOM     28  C   UNL     1      32.980  -4.602 -23.955  0.00  0.00    +0.072 C 
ATOM     29  C   UNL     1      33.580  -5.851 -26.474  0.00  0.00    -0.062 C 
ATOM     30  C   UNL     1      34.399  -4.751 -24.493  0.00  0.00    -0.062 C 
ATOM     31  H   UNL     1      34.052  -3.873 -26.302  0.00  0.00    -0.084 HD
ATOM     32  H   UNL     1      35.371  -4.905 -26.275  0.00  0.00    -0.084 HD
ENDBRANCH  22  25
ENDBRANCH   2  22
BRANCH   3  33
ATOM     33  O   UNL     1      30.901  -8.794 -23.796  0.00  0.00    -0.503 OA
ATOM     34  H   UNL     1      31.488  -9.450 -24.116  0.00  0.00    +0.292 HD
ENDBRANCH   3  33
TORSDOF 5
ENDMDL
MODEL 3
REMARK VINA RESULT:     -10.3      9.621     15.078
REMARK  Name = 10479502
REMARK  5 active torsions:
REMARK  status: ('A' for Active; 'I' for Inactive)
REMARK    1  A    between atoms: C_2  and  S_22
REMARK    2  A    between atoms: C_3  and  O_33
REMARK    3  A    between atoms: C_5  and  N_9
REMARK    4  A    between atoms: N_10  and  C_16
REMARK    5  A    between atoms: S_22  and  N_25
REMARK                            x       y       z     vdW  Elec       q    Type
REMARK                         _______ _______ _______ _____ _____    ______ ____
ROOT
ATOM      1 CL   UNL     1      30.403  -6.012 -21.815  0.00  0.00    -0.081 Cl
ATOM      2  C   UNL     1      32.464  -7.560 -22.733  0.00  0.00    +0.167 C 
ATOM      3  C   UNL     1      33.046  -8.780 -23.060  0.00  0.00    +0.167 C 
ATOM      4  C   UNL     1      31.168  -7.504 -22.233  0.00  0.00    +0.079 C 
ATOM      5  C   UNL     1      32.322  -9.959 -22.884  0.00  0.00    +0.087 C 
ATOM      6  C   UNL     1      30.444  -8.683 -22.058  0.00  0.00    +0.014 C 
ATOM      7  C   UNL     1      31.020  -9.911 -22.383  0.00  0.00    +0.019 C 
ENDROOT
BRANCH   5   9
ATOM      8  O   UNL     1      32.562 -12.446 -21.249  0.00  0.00    -0.252 OA
ATOM      9  N   UNL     1      32.884 -11.198 -23.204  0.00  0.00    -0.266 N 
ATOM     10  N   UNL     1      33.620 -13.383 -23.113  0.00  0.00    -0.267 N 
ATOM     11  C   UNL     1      32.979 -12.357 -22.399  0.00  0.00    +0.308 C 
ATOM     12  H   UNL     1      33.264 -11.273 -24.109  0.00  0.00    +0.157 HD
ATOM     13  H   UNL     1      33.900 -13.161 -24.030  0.00  0.00    +0.156 HD
BRANCH  10  16
ATOM     14 CL   UNL     1      33.614 -15.536 -25.253  0.00  0.00    -0.079 Cl
ATOM     15  F   UNL     1      34.262 -18.082 -23.945  0.00  0.00    -0.203 F 
ATOM     16  C   UNL     1      33.913 -14.697 -22.675  0.00  0.00    +0.064 C 
ATOM     17  C   UNL     1      33.938 -15.756 -23.569  0.00  0.00    +0.098 C 
ATOM     18  C   UNL     1      34.175 -14.889 -21.327  0.00  0.00    +0.016 C 
ATOM     19  C   UNL     1      34.232 -17.037 -23.106  0.00  0.00    +0.152 C 
ATOM     20  C   UNL     1      34.469 -16.170 -20.863  0.00  0.00    +0.004 C 
ATOM     21  C   UNL     1      34.497 -17.245 -21.752  0.00  0.00    +0.031 C 
ENDBRANCH  10  16
ENDBRANCH   5   9
BRANCH   2  22
ATOM     22  S   UNL     1      33.405  -6.084 -22.966  0.00  0.00    +0.067 S 
ATOM     23  O   UNL     1      32.617  -4.975 -22.472  0.00  0.00    -0.153 OA
ATOM     24  O   UNL     1      34.743  -6.326 -22.473  0.00  0.00    -0.153 OA
BRANCH  22  25
ATOM     25  N   UNL     1      33.445  -6.023 -24.678  0.00  0.00    -0.160 NA
ATOM     26  N   UNL     1      33.250  -5.187 -27.420  0.00  0.00    +0.386 N 
ATOM     27  C   UNL     1      32.117  -5.899 -25.347  0.00  0.00    +0.072 C 
ATOM     28  C   UNL     1      34.441  -5.079 -25.262  0.00  0.00    +0.072 C 
ATOM     29  C   UNL     1      32.281  -6.123 -26.847  0.00  0.00    -0.062 C 
ATOM     30  C   UNL     1      34.552  -5.322 -26.764  0.00  0.00    -0.062 C 
ATOM     31  H   UNL     1      32.910  -4.234 -27.295  0.00  0.00    -0.084 HD
ATOM     32  H   UNL     1      33.361  -5.397 -28.412  0.00  0.00    -0.084 HD
ENDBRANCH  22  25
ENDBRANCH   2  22
BRANCH   3  33
ATOM     33  O   UNL     1      34.319  -8.835 -23.549  0.00  0.00    -0.503 OA
ATOM     34  H   UNL     1      35.042  -8.938 -22.962  0.00  0.00    +0.292 HD
ENDBRANCH   3  33
TORSDOF 5
ENDMDL
MODEL 4
REMARK VINA RESULT:     -10.3      9.720     15.192
REMARK  Name = 10479502
REMARK  5 active torsions:
REMARK  status: ('A' for Active; 'I' for Inactive)
REMARK    1  A    between atoms: C_2  and  S_22
REMARK    2  A    between atoms: C_3  and  O_33
REMARK    3  A    between atoms: C_5  and  N_9
REMARK    4  A    between atoms: N_10  and  C_16
REMARK    5  A    between atoms: S_22  and  N_25
REMARK                            x       y       z     vdW  Elec       q    Type
REMARK                         _______ _______ _______ _____ _____    ______ ____
ROOT
ATOM      1 CL   UNL     1      30.106  -6.149 -22.367  0.00  0.00    -0.081 Cl
ATOM      2  C   UNL     1      32.444  -7.432 -22.978  0.00  0.00    +0.167 C 
ATOM      3  C   UNL     1      33.214  -8.572 -23.184  0.00  0.00    +0.167 C 
ATOM      4  C   UNL     1      31.102  -7.536 -22.632  0.00  0.00    +0.079 C 
ATOM      5  C   UNL     1      32.633  -9.832 -23.042  0.00  0.00    +0.087 C 
ATOM      6  C   UNL     1      30.521  -8.796 -22.490  0.00  0.00    +0.014 C 
ATOM      7  C   UNL     1      31.286  -9.945 -22.694  0.00  0.00    +0.019 C 
ENDROOT
BRANCH   5   9
ATOM      8  O   UNL     1      31.947 -12.689 -22.507  0.00  0.00    -0.252 OA
ATOM      9  N   UNL     1      33.385 -10.993 -23.242  0.00  0.00    -0.266 N 
ATOM     10  N   UNL     1      34.080 -13.192 -23.326  0.00  0.00    -0.267 N 
ATOM     11  C   UNL     1      33.024 -12.335 -22.976  0.00  0.00    +0.308 C 
ATOM     12  H   UNL     1      34.285 -10.859 -23.618  0.00  0.00    +0.157 HD
ATOM     13  H   UNL     1      34.885 -12.759 -23.691  0.00  0.00    +0.156 HD
BRANCH  10  16
ATOM     14 CL   UNL     1      34.214 -14.315 -20.509  0.00  0.00    -0.079 Cl
ATOM     15  F   UNL     1      34.297 -17.241 -20.729  0.00  0.00    -0.203 F 
ATOM     16  C   UNL     1      34.128 -14.602 -23.220  0.00  0.00    +0.064 C 
ATOM     17  C   UNL     1      34.191 -15.221 -21.981  0.00  0.00    +0.098 C 
ATOM     18  C   UNL     1      34.110 -15.343 -24.393  0.00  0.00    +0.016 C 
ATOM     19  C   UNL     1      34.235 -16.613 -21.912  0.00  0.00    +0.152 C 
ATOM     20  C   UNL     1      34.155 -16.735 -24.324  0.00  0.00    +0.004 C 
ATOM     21  C   UNL     1      34.218 -17.370 -23.083  0.00  0.00    +0.031 C 
ENDBRANCH  10  16
ENDBRANCH   5   9
BRANCH   2  22
ATOM     22  S   UNL     1      33.207  -5.851 -23.165  0.00  0.00    +0.067 S 
ATOM     23  O   UNL     1      32.232  -4.844 -22.805  0.00  0.00    -0.153 OA
ATOM     24  O   UNL     1      34.501  -5.901 -22.518  0.00  0.00    -0.153 OA
BRANCH  22  25
ATOM     25  N   UNL     1      33.435  -5.828 -24.863  0.00  0.00    -0.160 NA
ATOM     26  N   UNL     1      33.554  -5.050 -27.627  0.00  0.00    +0.386 N 
ATOM     27  C   UNL     1      32.190  -5.697 -25.675  0.00  0.00    +0.072 C 
ATOM     28  C   UNL     1      34.506  -4.914 -25.354  0.00  0.00    +0.072 C 
ATOM     29  C   UNL     1      32.511  -5.956 -27.144  0.00  0.00    -0.062 C 
ATOM     30  C   UNL     1      34.775  -5.192 -26.830  0.00  0.00    -0.062 C 
ATOM     31  H   UNL     1      33.221  -4.088 -27.558  0.00  0.00    -0.084 HD
ATOM     32  H   UNL     1      33.768  -5.283 -28.596  0.00  0.00    -0.084 HD
ENDBRANCH  22  25
ENDBRANCH   2  22
BRANCH   3  33
ATOM     33  O   UNL     1      34.532  -8.470 -23.522  0.00  0.00    -0.503 OA
ATOM     34  H   UNL     1      34.779  -8.351 -24.418  0.00  0.00    +0.292 HD
ENDBRANCH   3  33
TORSDOF 5
ENDMDL
MODEL 5
REMARK VINA RESULT:     -10.2      5.321      8.461
REMARK  Name = 10479502
REMARK  5 active torsions:
REMARK  status: ('A' for Active; 'I' for Inactive)
REMARK    1  A    between atoms: C_2  and  S_22
REMARK    2  A    between atoms: C_3  and  O_33
REMARK    3  A    between atoms: C_5  and  N_9
REMARK    4  A    between atoms: N_10  and  C_16
REMARK    5  A    between atoms: S_22  and  N_25
REMARK                            x       y       z     vdW  Elec       q    Type
REMARK                         _______ _______ _______ _____ _____    ______ ____
ROOT
ATOM      1 CL   UNL     1      34.477 -19.874 -23.704  0.00  0.00    -0.081 Cl
ATOM      2  C   UNL     1      34.583 -17.341 -22.674  0.00  0.00    +0.167 C 
ATOM      3  C   UNL     1      34.284 -15.983 -22.694  0.00  0.00    +0.167 C 
ATOM      4  C   UNL     1      34.132 -18.181 -23.686  0.00  0.00    +0.079 C 
ATOM      5  C   UNL     1      33.524 -15.459 -23.739  0.00  0.00    +0.087 C 
ATOM      6  C   UNL     1      33.372 -17.657 -24.731  0.00  0.00    +0.014 C 
ATOM      7  C   UNL     1      33.068 -16.296 -24.758  0.00  0.00    +0.019 C 
ENDROOT
BRANCH   5   9
ATOM      8  O   UNL     1      32.432 -13.663 -21.618  0.00  0.00    -0.252 OA
ATOM      9  N   UNL     1      33.211 -14.098 -23.783  0.00  0.00    -0.266 N 
ATOM     10  N   UNL     1      32.525 -11.966 -23.225  0.00  0.00    -0.267 N 
ATOM     11  C   UNL     1      32.693 -13.278 -22.753  0.00  0.00    +0.308 C 
ATOM     12  H   UNL     1      33.372 -13.650 -24.645  0.00  0.00    +0.157 HD
ATOM     13  H   UNL     1      32.780 -11.809 -24.162  0.00  0.00    +0.156 HD
BRANCH  10  16
ATOM     14 CL   UNL     1      33.963  -9.340 -23.730  0.00  0.00    -0.079 Cl
ATOM     15  F   UNL     1      32.651  -7.287 -22.093  0.00  0.00    -0.203 F 
ATOM     16  C   UNL     1      32.036 -10.842 -22.518  0.00  0.00    +0.064 C 
ATOM     17  C   UNL     1      32.618  -9.594 -22.674  0.00  0.00    +0.098 C 
ATOM     18  C   UNL     1      30.956 -11.030 -21.667  0.00  0.00    +0.016 C 
ATOM     19  C   UNL     1      32.110  -8.507 -21.964  0.00  0.00    +0.152 C 
ATOM     20  C   UNL     1      30.448  -9.943 -20.957  0.00  0.00    +0.004 C 
ATOM     21  C   UNL     1      31.025  -8.682 -21.105  0.00  0.00    +0.031 C 
ENDBRANCH  10  16
ENDBRANCH   5   9
BRANCH   2  22
ATOM     22  S   UNL     1      35.547 -17.976 -21.338  0.00  0.00    +0.067 S 
ATOM     23  O   UNL     1      36.811 -18.427 -21.880  0.00  0.00    -0.153 OA
ATOM     24  O   UNL     1      35.500 -17.015 -20.258  0.00  0.00    -0.153 OA
BRANCH  22  25
ATOM     25  N   UNL     1      34.604 -19.340 -20.910  0.00  0.00    -0.160 NA
ATOM     26  N   UNL     1      33.065 -21.300 -19.478  0.00  0.00    +0.386 N 
ATOM     27  C   UNL     1      35.269 -20.321 -20.003  0.00  0.00    +0.072 C 
ATOM     28  C   UNL     1      33.211 -19.044 -20.468  0.00  0.00    +0.072 C 
ATOM     29  C   UNL     1      34.428 -21.592 -19.924  0.00  0.00    -0.062 C 
ATOM     30  C   UNL     1      32.417 -20.344 -20.379  0.00  0.00    -0.062 C 
ATOM     31  H   UNL     1      33.097 -20.903 -18.539  0.00  0.00    -0.084 HD
ATOM     32  H   UNL     1      32.527 -22.166 -19.479  0.00  0.00    -0.084 HD
ENDBRANCH  22  25
ENDBRANCH   2  22
BRANCH   3  33
ATOM     33  O   UNL     1      34.729 -15.158 -21.702  0.00  0.00    -0.503 OA
ATOM     34  H   UNL     1      35.406 -15.445 -21.121  0.00  0.00    +0.292 HD
ENDBRANCH   3  33
TORSDOF 5
ENDMDL
MODEL 6
REMARK VINA RESULT:     -10.1      9.156     14.579
REMARK  Name = 10479502
REMARK  5 active torsions:
REMARK  status: ('A' for Active; 'I' for Inactive)
REMARK    1  A    between atoms: C_2  and  S_22
REMARK    2  A    between atoms: C_3  and  O_33
REMARK    3  A    between atoms: C_5  and  N_9
REMARK    4  A    between atoms: N_10  and  C_16
REMARK    5  A    between atoms: S_22  and  N_25
REMARK                            x       y       z     vdW  Elec       q    Type
REMARK                         _______ _______ _______ _____ _____    ______ ____
ROOT
ATOM      1 CL   UNL     1      30.824  -6.901 -21.470  0.00  0.00    -0.081 Cl
ATOM      2  C   UNL     1      32.709  -8.531 -22.598  0.00  0.00    +0.167 C 
ATOM      3  C   UNL     1      33.194  -9.772 -22.998  0.00  0.00    +0.167 C 
ATOM      4  C   UNL     1      31.468  -8.420 -21.983  0.00  0.00    +0.079 C 
ATOM      5  C   UNL     1      32.426 -10.916 -22.780  0.00  0.00    +0.087 C 
ATOM      6  C   UNL     1      30.700  -9.564 -21.765  0.00  0.00    +0.014 C 
ATOM      7  C   UNL     1      31.179 -10.812 -22.163  0.00  0.00    +0.019 C 
ENDROOT
BRANCH   5   9
ATOM      8  O   UNL     1      33.039 -13.339 -21.145  0.00  0.00    -0.252 OA
ATOM      9  N   UNL     1      32.891 -12.174 -23.171  0.00  0.00    -0.266 N 
ATOM     10  N   UNL     1      33.618 -14.364 -23.166  0.00  0.00    -0.267 N 
ATOM     11  C   UNL     1      33.171 -13.302 -22.364  0.00  0.00    +0.308 C 
ATOM     12  H   UNL     1      33.044 -12.291 -24.137  0.00  0.00    +0.157 HD
ATOM     13  H   UNL     1      33.673 -14.184 -24.132  0.00  0.00    +0.156 HD
BRANCH  10  16
ATOM     14 CL   UNL     1      33.154 -16.591 -25.177  0.00  0.00    -0.079 Cl
ATOM     15  F   UNL     1      34.075 -19.094 -23.950  0.00  0.00    -0.203 F 
ATOM     16  C   UNL     1      34.001 -15.664 -22.756  0.00  0.00    +0.064 C 
ATOM     17  C   UNL     1      33.834 -16.754 -23.595  0.00  0.00    +0.098 C 
ATOM     18  C   UNL     1      34.549 -15.809 -21.489  0.00  0.00    +0.016 C 
ATOM     19  C   UNL     1      34.224 -18.020 -23.161  0.00  0.00    +0.152 C 
ATOM     20  C   UNL     1      34.939 -17.076 -21.055  0.00  0.00    +0.004 C 
ATOM     21  C   UNL     1      34.776 -18.181 -21.890  0.00  0.00    +0.031 C 
ENDBRANCH  10  16
ENDBRANCH   5   9
BRANCH   2  22
ATOM     22  S   UNL     1      33.703  -7.102 -22.888  0.00  0.00    +0.067 S 
ATOM     23  O   UNL     1      33.784  -6.361 -21.647  0.00  0.00    -0.153 OA
ATOM     24  O   UNL     1      34.899  -7.523 -23.584  0.00  0.00    -0.153 OA
BRANCH  22  25
ATOM     25  N   UNL     1      32.694  -6.252 -23.981  0.00  0.00    -0.160 NA
ATOM     26  N   UNL     1      31.637  -4.365 -25.874  0.00  0.00    +0.386 N 
ATOM     27  C   UNL     1      32.295  -4.880 -23.551  0.00  0.00    +0.072 C 
ATOM     28  C   UNL     1      33.131  -6.272 -25.407  0.00  0.00    +0.072 C 
ATOM     29  C   UNL     1      31.200  -4.356 -24.476  0.00  0.00    -0.062 C 
ATOM     30  C   UNL     1      32.018  -5.717 -26.289  0.00  0.00    -0.062 C 
ATOM     31  H   UNL     1      32.441  -3.745 -25.978  0.00  0.00    -0.084 HD
ATOM     32  H   UNL     1      30.865  -4.048 -26.460  0.00  0.00    -0.084 HD
ENDBRANCH  22  25
ENDBRANCH   2  22
BRANCH   3  33
ATOM     33  O   UNL     1      34.413  -9.882 -23.601  0.00  0.00    -0.503 OA
ATOM     34  H   UNL     1      34.919 -10.664 -23.497  0.00  0.00    +0.292 HD
ENDBRANCH   3  33
TORSDOF 5
ENDMDL
MODEL 7
REMARK VINA RESULT:     -10.0      8.982     14.061
REMARK  Name = 10479502
REMARK  5 active torsions:
REMARK  status: ('A' for Active; 'I' for Inactive)
REMARK    1  A    between atoms: C_2  and  S_22
REMARK    2  A    between atoms: C_3  and  O_33
REMARK    3  A    between atoms: C_5  and  N_9
REMARK    4  A    between atoms: N_10  and  C_16
REMARK    5  A    between atoms: S_22  and  N_25
REMARK                            x       y       z     vdW  Elec       q    Type
REMARK                         _______ _______ _______ _____ _____    ______ ____
ROOT
ATOM      1 CL   UNL     1      30.052  -7.656 -22.273  0.00  0.00    -0.081 Cl
ATOM      2  C   UNL     1      32.352  -8.925 -23.038  0.00  0.00    +0.167 C 
ATOM      3  C   UNL     1      33.145 -10.055 -23.206  0.00  0.00    +0.167 C 
ATOM      4  C   UNL     1      31.074  -9.030 -22.501  0.00  0.00    +0.079 C 
ATOM      5  C   UNL     1      32.654 -11.306 -22.833  0.00  0.00    +0.087 C 
ATOM      6  C   UNL     1      30.582 -10.281 -22.127  0.00  0.00    +0.014 C 
ATOM      7  C   UNL     1      31.372 -11.419 -22.293  0.00  0.00    +0.019 C 
ENDROOT
BRANCH   5   9
ATOM      8  O   UNL     1      32.278 -14.054 -21.725  0.00  0.00    -0.252 OA
ATOM      9  N   UNL     1      33.431 -12.456 -22.991  0.00  0.00    -0.266 N 
ATOM     10  N   UNL     1      34.246 -14.611 -22.860  0.00  0.00    -0.267 N 
ATOM     11  C   UNL     1      33.220 -13.745 -22.448  0.00  0.00    +0.308 C 
ATOM     12  H   UNL     1      34.232 -12.356 -23.554  0.00  0.00    +0.157 HD
ATOM     13  H   UNL     1      34.935 -14.218 -23.441  0.00  0.00    +0.156 HD
BRANCH  10  16
ATOM     14 CL   UNL     1      33.563 -16.585 -25.064  0.00  0.00    -0.079 Cl
ATOM     15  F   UNL     1      34.036 -19.283 -24.008  0.00  0.00    -0.203 F 
ATOM     16  C   UNL     1      34.409 -15.981 -22.542  0.00  0.00    +0.064 C 
ATOM     17  C   UNL     1      34.127 -16.967 -23.474  0.00  0.00    +0.098 C 
ATOM     18  C   UNL     1      34.861 -16.302 -21.270  0.00  0.00    +0.016 C 
ATOM     19  C   UNL     1      34.301 -18.306 -23.129  0.00  0.00    +0.152 C 
ATOM     20  C   UNL     1      35.035 -17.642 -20.925  0.00  0.00    +0.004 C 
ATOM     21  C   UNL     1      34.755 -18.644 -21.854  0.00  0.00    +0.031 C 
ENDBRANCH  10  16
ENDBRANCH   5   9
BRANCH   2  22
ATOM     22  S   UNL     1      33.001  -7.356 -23.520  0.00  0.00    +0.067 S 
ATOM     23  O   UNL     1      34.439  -7.404 -23.357  0.00  0.00    -0.153 OA
ATOM     24  O   UNL     1      32.406  -6.998 -24.789  0.00  0.00    -0.153 OA
BRANCH  22  25
ATOM     25  N   UNL     1      32.333  -6.366 -22.292  0.00  0.00    -0.160 NA
ATOM     26  N   UNL     1      31.932  -4.384 -20.250  0.00  0.00    +0.386 N 
ATOM     27  C   UNL     1      32.932  -6.534 -20.936  0.00  0.00    +0.072 C 
ATOM     28  C   UNL     1      32.175  -4.925 -22.645  0.00  0.00    +0.072 C 
ATOM     29  C   UNL     1      32.075  -5.800 -19.908  0.00  0.00    -0.062 C 
ATOM     30  C   UNL     1      31.335  -4.229 -21.579  0.00  0.00    -0.062 C 
ATOM     31  H   UNL     1      32.852  -3.943 -20.244  0.00  0.00    -0.084 HD
ATOM     32  H   UNL     1      31.321  -3.941 -19.564  0.00  0.00    -0.084 HD
ENDBRANCH  22  25
ENDBRANCH   2  22
BRANCH   3  33
ATOM     33  O   UNL     1      34.400  -9.952 -23.732  0.00  0.00    -0.503 OA
ATOM     34  H   UNL     1      34.841  -9.125 -23.736  0.00  0.00    +0.292 HD
ENDBRANCH   3  33
TORSDOF 5
ENDMDL
MODEL 8
REMARK VINA RESULT:      -9.6      1.751      2.195
REMARK  Name = 10479502
REMARK  5 active torsions:
REMARK  status: ('A' for Active; 'I' for Inactive)
REMARK    1  A    between atoms: C_2  and  S_22
REMARK    2  A    between atoms: C_3  and  O_33
REMARK    3  A    between atoms: C_5  and  N_9
REMARK    4  A    between atoms: N_10  and  C_16
REMARK    5  A    between atoms: S_22  and  N_25
REMARK                            x       y       z     vdW  Elec       q    Type
REMARK                         _______ _______ _______ _____ _____    ______ ____
ROOT
ATOM      1 CL   UNL     1      37.271 -22.801 -14.548  0.00  0.00    -0.081 Cl
ATOM      2  C   UNL     1      35.038 -22.471 -16.094  0.00  0.00    +0.167 C 
ATOM      3  C   UNL     1      34.364 -21.980 -17.207  0.00  0.00    +0.167 C 
ATOM      4  C   UNL     1      36.392 -22.212 -15.914  0.00  0.00    +0.079 C 
ATOM      5  C   UNL     1      35.054 -21.222 -18.153  0.00  0.00    +0.087 C 
ATOM      6  C   UNL     1      37.082 -21.454 -16.860  0.00  0.00    +0.014 C 
ATOM      7  C   UNL     1      36.414 -20.959 -17.980  0.00  0.00    +0.019 C 
ENDROOT
BRANCH   5   9
ATOM      8  O   UNL     1      35.973 -19.238 -20.188  0.00  0.00    -0.252 OA
ATOM      9  N   UNL     1      34.400 -20.718 -19.280  0.00  0.00    -0.266 N 
ATOM     10  N   UNL     1      33.888 -19.548 -21.202  0.00  0.00    -0.267 N 
ATOM     11  C   UNL     1      34.870 -19.774 -20.224  0.00  0.00    +0.308 C 
ATOM     12  H   UNL     1      33.492 -21.064 -19.437  0.00  0.00    +0.157 HD
ATOM     13  H   UNL     1      33.050 -20.053 -21.099  0.00  0.00    +0.156 HD
BRANCH  10  16
ATOM     14 CL   UNL     1      34.676 -16.674 -20.620  0.00  0.00    -0.079 Cl
ATOM     15  F   UNL     1      34.699 -15.231 -23.176  0.00  0.00    -0.203 F 
ATOM     16  C   UNL     1      33.956 -18.682 -22.320  0.00  0.00    +0.064 C 
ATOM     17  C   UNL     1      34.306 -17.349 -22.168  0.00  0.00    +0.098 C 
ATOM     18  C   UNL     1      33.662 -19.210 -23.569  0.00  0.00    +0.016 C 
ATOM     19  C   UNL     1      34.365 -16.524 -23.290  0.00  0.00    +0.152 C 
ATOM     20  C   UNL     1      33.721 -18.384 -24.691  0.00  0.00    +0.004 C 
ATOM     21  C   UNL     1      34.072 -17.042 -24.552  0.00  0.00    +0.031 C 
ENDBRANCH  10  16
ENDBRANCH   5   9
BRANCH   2  22
ATOM     22  S   UNL     1      34.138 -23.427 -14.914  0.00  0.00    +0.067 S 
ATOM     23  O   UNL     1      33.746 -22.544 -13.836  0.00  0.00    -0.153 OA
ATOM     24  O   UNL     1      33.155 -24.210 -15.631  0.00  0.00    -0.153 OA
BRANCH  22  25
ATOM     25  N   UNL     1      35.382 -24.466 -14.360  0.00  0.00    -0.160 NA
ATOM     26  N   UNL     1      36.854 -26.668 -13.245  0.00  0.00    +0.386 N 
ATOM     27  C   UNL     1      35.421 -24.692 -12.886  0.00  0.00    +0.072 C 
ATOM     28  C   UNL     1      35.531 -25.746 -15.112  0.00  0.00    +0.072 C 
ATOM     29  C   UNL     1      36.716 -25.407 -12.514  0.00  0.00    -0.062 C 
ATOM     30  C   UNL     1      36.824 -26.437 -14.690  0.00  0.00    -0.062 C 
ATOM     31  H   UNL     1      36.085 -27.288 -12.990  0.00  0.00    -0.084 HD
ATOM     32  H   UNL     1      37.748 -27.093 -13.000  0.00  0.00    -0.084 HD
ENDBRANCH  22  25
ENDBRANCH   2  22
BRANCH   3  33
ATOM     33  O   UNL     1      33.035 -22.232 -17.383  0.00  0.00    -0.503 OA
ATOM     34  H   UNL     1      32.750 -23.082 -17.657  0.00  0.00    +0.292 HD
ENDBRANCH   3  33
TORSDOF 5
ENDMDL
MODEL 9
REMARK VINA RESULT:      -9.4      2.663      4.271
REMARK  Name = 10479502
REMARK  5 active torsions:
REMARK  status: ('A' for Active; 'I' for Inactive)
REMARK    1  A    between atoms: C_2  and  S_22
REMARK    2  A    between atoms: C_3  and  O_33
REMARK    3  A    between atoms: C_5  and  N_9
REMARK    4  A    between atoms: N_10  and  C_16
REMARK    5  A    between atoms: S_22  and  N_25
REMARK                            x       y       z     vdW  Elec       q    Type
REMARK                         _______ _______ _______ _____ _____    ______ ____
ROOT
ATOM      1 CL   UNL     1      38.224 -25.269 -12.393  0.00  0.00    -0.081 Cl
ATOM      2  C   UNL     1      36.598 -23.443 -13.621  0.00  0.00    +0.167 C 
ATOM      3  C   UNL     1      36.268 -22.582 -14.662  0.00  0.00    +0.167 C 
ATOM      4  C   UNL     1      37.772 -24.187 -13.661  0.00  0.00    +0.079 C 
ATOM      5  C   UNL     1      37.124 -22.464 -15.758  0.00  0.00    +0.087 C 
ATOM      6  C   UNL     1      38.628 -24.068 -14.757  0.00  0.00    +0.014 C 
ATOM      7  C   UNL     1      38.304 -23.207 -15.805  0.00  0.00    +0.019 C 
ENDROOT
BRANCH   5   9
ATOM      8  O   UNL     1      34.716 -22.365 -17.522  0.00  0.00    -0.252 OA
ATOM      9  N   UNL     1      36.816 -21.605 -16.816  0.00  0.00    -0.266 N 
ATOM     10  N   UNL     1      35.758 -20.558 -18.580  0.00  0.00    -0.267 N 
ATOM     11  C   UNL     1      35.660 -21.590 -17.632  0.00  0.00    +0.308 C 
ATOM     12  H   UNL     1      37.493 -20.921 -17.022  0.00  0.00    +0.157 HD
ATOM     13  H   UNL     1      36.579 -20.016 -18.545  0.00  0.00    +0.156 HD
BRANCH  10  16
ATOM     14 CL   UNL     1      36.795 -18.776 -20.809  0.00  0.00    -0.079 Cl
ATOM     15  F   UNL     1      34.564 -18.280 -22.651  0.00  0.00    -0.203 F 
ATOM     16  C   UNL     1      34.821 -20.201 -19.579  0.00  0.00    +0.064 C 
ATOM     17  C   UNL     1      35.188 -19.392 -20.642  0.00  0.00    +0.098 C 
ATOM     18  C   UNL     1      33.527 -20.688 -19.459  0.00  0.00    +0.016 C 
ATOM     19  C   UNL     1      34.240 -19.061 -21.611  0.00  0.00    +0.152 C 
ATOM     20  C   UNL     1      32.580 -20.357 -20.427  0.00  0.00    +0.004 C 
ATOM     21  C   UNL     1      32.936 -19.543 -21.502  0.00  0.00    +0.031 C 
ENDBRANCH  10  16
ENDBRANCH   5   9
BRANCH   2  22
ATOM     22  S   UNL     1      35.496 -23.572 -12.249  0.00  0.00    +0.067 S 
ATOM     23  O   UNL     1      35.630 -24.904 -11.697  0.00  0.00    -0.153 OA
ATOM     24  O   UNL     1      35.677 -22.400 -11.419  0.00  0.00    -0.153 OA
BRANCH  22  25
ATOM     25  N   UNL     1      33.992 -23.452 -13.060  0.00  0.00    -0.160 NA
ATOM     26  N   UNL     1      31.295 -23.866 -13.961  0.00  0.00    +0.386 N 
ATOM     27  C   UNL     1      33.651 -24.598 -13.953  0.00  0.00    +0.072 C 
ATOM     28  C   UNL     1      32.833 -23.060 -12.208  0.00  0.00    +0.072 C 
ATOM     29  C   UNL     1      32.435 -24.238 -14.800  0.00  0.00    -0.062 C 
ATOM     30  C   UNL     1      31.635 -22.735 -13.095  0.00  0.00    -0.062 C 
ATOM     31  H   UNL     1      31.031 -24.663 -13.381  0.00  0.00    -0.084 HD
ATOM     32  H   UNL     1      30.519 -23.594 -14.564  0.00  0.00    -0.084 HD
ENDBRANCH  22  25
ENDBRANCH   2  22
BRANCH   3  33
ATOM     33  O   UNL     1      35.117 -21.851 -14.623  0.00  0.00    -0.503 OA
ATOM     34  H   UNL     1      35.139 -20.956 -14.345  0.00  0.00    +0.292 HD
ENDBRANCH   3  33
TORSDOF 5
ENDMDL
