MODEL 1
REMARK VINA RESULT:     -11.2      0.000      0.000
REMARK  Name = 16113377
REMARK  5 active torsions:
REMARK  status: ('A' for Active; 'I' for Inactive)
REMARK    1  A    between atoms: N_2  and  C_24
REMARK    2  A    between atoms: C_5  and  C_12
REMARK    3  A    between atoms: N_10  and  C_16
REMARK    4  A    between atoms: C_19  and  C_31
REMARK    5  A    between atoms: C_27  and  N_32
REMARK                            x       y       z     vdW  Elec       q    Type
REMARK                         _______ _______ _______ _____ _____    ______ ____
ROOT
ATOM      1  F   UNL     1      31.958  -4.792 -20.345  0.00  0.00    -0.200 F 
ATOM      2  N   UNL     1      31.487 -10.206 -20.361  0.00  0.00    -0.247 N 
ATOM      3  N   UNL     1      32.209  -8.248 -21.434  0.00  0.00    -0.334 NA
ATOM      4  N   UNL     1      31.119  -8.154 -19.286  0.00  0.00    -0.167 NA
ATOM      5  C   UNL     1      32.310  -6.903 -21.400  0.00  0.00    +0.188 C 
ATOM      6  C   UNL     1      31.611  -8.803 -20.360  0.00  0.00    +0.149 C 
ATOM      7  C   UNL     1      31.848  -6.125 -20.359  0.00  0.00    +0.192 C 
ATOM      8  C   UNL     1      31.255  -6.812 -19.318  0.00  0.00    +0.144 C 
ATOM      9  H   UNL     1      31.043 -10.565 -19.558  0.00  0.00    +0.165 HD
ENDROOT
BRANCH   5  12
ATOM     10  N   UNL     1      32.288  -5.790 -23.623  0.00  0.00    -0.274 N 
ATOM     11  N   UNL     1      34.451  -5.548 -24.068  0.00  0.00    -0.232 NA
ATOM     12  C   UNL     1      32.951  -6.322 -22.550  0.00  0.00    +0.105 C 
ATOM     13  C   UNL     1      33.228  -5.339 -24.505  0.00  0.00    +0.113 C 
ATOM     14  C   UNL     1      34.285  -6.159 -22.850  0.00  0.00    +0.117 C 
ATOM     15  C   UNL     1      32.865  -4.700 -25.787  0.00  0.00    +0.069 C 
BRANCH  10  16
ATOM     16  C   UNL     1      30.854  -5.716 -23.794  0.00  0.00    +0.078 C 
ATOM     17  C   UNL     1      30.388  -4.291 -24.098  0.00  0.00    +0.022 C 
ATOM     18  C   UNL     1      30.349  -6.710 -24.841  0.00  0.00    +0.022 C 
ENDBRANCH  10  16
ENDBRANCH   5  12
BRANCH   2  24
ATOM     19  C   UNL     1      32.631 -13.158 -23.113  0.00  0.00    +0.054 C 
ATOM     20  C   UNL     1      32.285 -13.520 -21.815  0.00  0.00    +0.006 C 
ATOM     21  C   UNL     1      32.602 -11.822 -23.503  0.00  0.00    +0.006 C 
ATOM     22  C   UNL     1      31.904 -12.538 -20.899  0.00  0.00    +0.015 C 
ATOM     23  C   UNL     1      32.221 -10.841 -22.588  0.00  0.00    +0.015 C 
ATOM     24  C   UNL     1      31.872 -11.199 -21.286  0.00  0.00    +0.058 C 
BRANCH  19  31
ATOM     25  O   UNL     1      32.782 -13.988 -25.264  0.00  0.00    -0.270 OA
ATOM     26  N   UNL     1      33.670 -15.320 -23.582  0.00  0.00    -0.278 N 
ATOM     27  C   UNL     1      35.068 -16.727 -22.307  0.00  0.00    -0.036 C 
ATOM     28  C   UNL     1      34.548 -17.506 -23.515  0.00  0.00    +0.002 C 
ATOM     29  C   UNL     1      34.059 -15.583 -22.196  0.00  0.00    +0.073 C 
ATOM     30  C   UNL     1      34.116 -16.394 -24.461  0.00  0.00    +0.092 C 
ATOM     31  C   UNL     1      33.032 -14.194 -24.079  0.00  0.00    +0.249 C 
BRANCH  27  32
ATOM     32  N   UNL     1      35.163 -17.535 -21.105  0.00  0.00    +0.387 N 
ATOM     33  C   UNL     1      34.088 -18.533 -21.062  0.00  0.00    -0.101 C 
ATOM     34  C   UNL     1      36.467 -18.199 -21.023  0.00  0.00    -0.101 C 
ATOM     35  H   UNL     1      35.061 -16.913 -20.304  0.00  0.00    -0.080 HD
ENDBRANCH  27  32
ENDBRANCH  19  31
ENDBRANCH   2  24
TORSDOF 5
ENDMDL
MODEL 2
REMARK VINA RESULT:     -11.1      0.851      1.903
REMARK  Name = 16113377
REMARK  5 active torsions:
REMARK  status: ('A' for Active; 'I' for Inactive)
REMARK    1  A    between atoms: N_2  and  C_24
REMARK    2  A    between atoms: C_5  and  C_12
REMARK    3  A    between atoms: N_10  and  C_16
REMARK    4  A    between atoms: C_19  and  C_31
REMARK    5  A    between atoms: C_27  and  N_32
REMARK                            x       y       z     vdW  Elec       q    Type
REMARK                         _______ _______ _______ _____ _____    ______ ____
ROOT
ATOM      1  F   UNL     1      30.947  -4.924 -21.231  0.00  0.00    -0.200 F 
ATOM      2  N   UNL     1      31.788 -10.247 -20.533  0.00  0.00    -0.247 N 
ATOM      3  N   UNL     1      31.683  -8.401 -21.978  0.00  0.00    -0.334 NA
ATOM      4  N   UNL     1      31.272  -8.150 -19.616  0.00  0.00    -0.167 NA
ATOM      5  C   UNL     1      31.468  -7.077 -22.118  0.00  0.00    +0.188 C 
ATOM      6  C   UNL     1      31.571  -8.868 -20.718  0.00  0.00    +0.149 C 
ATOM      7  C   UNL     1      31.156  -6.235 -21.071  0.00  0.00    +0.192 C 
ATOM      8  C   UNL     1      31.071  -6.833 -19.830  0.00  0.00    +0.144 C 
ATOM      9  H   UNL     1      31.695 -10.541 -19.598  0.00  0.00    +0.165 HD
ENDROOT
BRANCH   5  12
ATOM     10  N   UNL     1      32.777  -6.426 -24.129  0.00  0.00    -0.274 N 
ATOM     11  N   UNL     1      31.196  -5.793 -25.555  0.00  0.00    -0.232 NA
ATOM     12  C   UNL     1      31.591  -6.589 -23.466  0.00  0.00    +0.105 C 
ATOM     13  C   UNL     1      32.489  -5.948 -25.377  0.00  0.00    +0.113 C 
ATOM     14  C   UNL     1      30.631  -6.190 -24.369  0.00  0.00    +0.117 C 
ATOM     15  C   UNL     1      33.542  -5.655 -26.371  0.00  0.00    +0.069 C 
BRANCH  10  16
ATOM     16  C   UNL     1      34.096  -6.710 -23.609  0.00  0.00    +0.078 C 
ATOM     17  C   UNL     1      34.261  -6.219 -22.170  0.00  0.00    +0.022 C 
ATOM     18  C   UNL     1      34.461  -8.189 -23.746  0.00  0.00    +0.022 C 
ENDBRANCH  10  16
ENDBRANCH   5  12
BRANCH   2  24
ATOM     19  C   UNL     1      32.758 -13.351 -23.182  0.00  0.00    +0.054 C 
ATOM     20  C   UNL     1      32.816 -12.030 -23.615  0.00  0.00    +0.006 C 
ATOM     21  C   UNL     1      32.380 -13.649 -21.876  0.00  0.00    +0.006 C 
ATOM     22  C   UNL     1      32.493 -10.997 -22.734  0.00  0.00    +0.015 C 
ATOM     23  C   UNL     1      32.058 -12.617 -20.996  0.00  0.00    +0.015 C 
ATOM     24  C   UNL     1      32.114 -11.290 -21.424  0.00  0.00    +0.058 C 
BRANCH  19  31
ATOM     25  O   UNL     1      32.821 -14.280 -25.297  0.00  0.00    -0.270 OA
ATOM     26  N   UNL     1      33.721 -15.561 -23.583  0.00  0.00    -0.278 N 
ATOM     27  C   UNL     1      35.116 -16.952 -22.287  0.00  0.00    -0.036 C 
ATOM     28  C   UNL     1      34.538 -17.768 -23.444  0.00  0.00    +0.002 C 
ATOM     29  C   UNL     1      34.144 -15.775 -22.199  0.00  0.00    +0.073 C 
ATOM     30  C   UNL     1      34.109 -16.686 -24.425  0.00  0.00    +0.092 C 
ATOM     31  C   UNL     1      33.100 -14.441 -24.112  0.00  0.00    +0.249 C 
BRANCH  27  32
ATOM     32  N   UNL     1      35.223 -17.709 -21.053  0.00  0.00    +0.387 N 
ATOM     33  C   UNL     1      34.168 -18.724 -20.970  0.00  0.00    -0.101 C 
ATOM     34  C   UNL     1      36.540 -18.344 -20.943  0.00  0.00    -0.101 C 
ATOM     35  H   UNL     1      35.109 -17.057 -20.278  0.00  0.00    -0.080 HD
ENDBRANCH  27  32
ENDBRANCH  19  31
ENDBRANCH   2  24
TORSDOF 5
ENDMDL
MODEL 3
REMARK VINA RESULT:     -10.2      9.013     14.977
REMARK  Name = 16113377
REMARK  5 active torsions:
REMARK  status: ('A' for Active; 'I' for Inactive)
REMARK    1  A    between atoms: N_2  and  C_24
REMARK    2  A    between atoms: C_5  and  C_12
REMARK    3  A    between atoms: N_10  and  C_16
REMARK    4  A    between atoms: C_19  and  C_31
REMARK    5  A    between atoms: C_27  and  N_32
REMARK                            x       y       z     vdW  Elec       q    Type
REMARK                         _______ _______ _______ _____ _____    ______ ____
ROOT
ATOM      1  F   UNL     1      31.066 -24.984 -12.480  0.00  0.00    -0.200 F 
ATOM      2  N   UNL     1      31.443 -22.731 -17.411  0.00  0.00    -0.247 N 
ATOM      3  N   UNL     1      32.417 -23.169 -15.322  0.00  0.00    -0.334 NA
ATOM      4  N   UNL     1      30.200 -23.959 -15.845  0.00  0.00    -0.167 NA
ATOM      5  C   UNL     1      32.292 -23.740 -14.105  0.00  0.00    +0.188 C 
ATOM      6  C   UNL     1      31.349 -23.314 -16.133  0.00  0.00    +0.149 C 
ATOM      7  C   UNL     1      31.170 -24.426 -13.691  0.00  0.00    +0.192 C 
ATOM      8  C   UNL     1      30.144 -24.505 -14.612  0.00  0.00    +0.144 C 
ATOM      9  H   UNL     1      30.640 -22.862 -17.966  0.00  0.00    +0.165 HD
ENDROOT
BRANCH   5  12
ATOM     10  N   UNL     1      34.735 -23.759 -13.644  0.00  0.00    -0.274 N 
ATOM     11  N   UNL     1      34.830 -23.200 -11.497  0.00  0.00    -0.232 NA
ATOM     12  C   UNL     1      33.437 -23.580 -13.249  0.00  0.00    +0.105 C 
ATOM     13  C   UNL     1      35.533 -23.520 -12.561  0.00  0.00    +0.113 C 
ATOM     14  C   UNL     1      33.524 -23.236 -11.918  0.00  0.00    +0.117 C 
ATOM     15  C   UNL     1      37.005 -23.622 -12.628  0.00  0.00    +0.069 C 
BRANCH  10  16
ATOM     16  C   UNL     1      35.185 -24.132 -14.968  0.00  0.00    +0.078 C 
ATOM     17  C   UNL     1      36.272 -23.190 -15.488  0.00  0.00    +0.022 C 
ATOM     18  C   UNL     1      35.627 -25.595 -15.033  0.00  0.00    +0.022 C 
ENDBRANCH  10  16
ENDBRANCH   5  12
BRANCH   2  24
ATOM     19  C   UNL     1      34.472 -20.546 -19.320  0.00  0.00    +0.054 C 
ATOM     20  C   UNL     1      33.138 -20.255 -19.586  0.00  0.00    +0.006 C 
ATOM     21  C   UNL     1      34.808 -21.558 -18.425  0.00  0.00    +0.006 C 
ATOM     22  C   UNL     1      32.130 -20.982 -18.951  0.00  0.00    +0.015 C 
ATOM     23  C   UNL     1      33.801 -22.284 -17.791  0.00  0.00    +0.015 C 
ATOM     24  C   UNL     1      32.461 -21.997 -18.054  0.00  0.00    +0.058 C 
BRANCH  19  31
ATOM     25  O   UNL     1      36.655 -19.807 -19.485  0.00  0.00    -0.270 OA
ATOM     26  N   UNL     1      35.197 -19.089 -21.143  0.00  0.00    -0.278 N 
ATOM     27  C   UNL     1      34.225 -18.525 -23.215  0.00  0.00    -0.036 C 
ATOM     28  C   UNL     1      35.369 -17.553 -22.923  0.00  0.00    +0.002 C 
ATOM     29  C   UNL     1      33.904 -19.080 -21.827  0.00  0.00    +0.073 C 
ATOM     30  C   UNL     1      36.183 -18.311 -21.883  0.00  0.00    +0.092 C 
ATOM     31  C   UNL     1      35.535 -19.778 -19.989  0.00  0.00    +0.249 C 
BRANCH  27  32
ATOM     32  N   UNL     1      33.091 -17.890 -23.863  0.00  0.00    +0.387 N 
ATOM     33  C   UNL     1      33.488 -16.625 -24.489  0.00  0.00    -0.101 C 
ATOM     34  C   UNL     1      32.495 -18.780 -24.864  0.00  0.00    -0.101 C 
ATOM     35  H   UNL     1      32.394 -17.692 -23.145  0.00  0.00    -0.080 HD
ENDBRANCH  27  32
ENDBRANCH  19  31
ENDBRANCH   2  24
TORSDOF 5
ENDMDL
MODEL 4
REMARK VINA RESULT:     -10.0      7.177     14.628
REMARK  Name = 16113377
REMARK  5 active torsions:
REMARK  status: ('A' for Active; 'I' for Inactive)
REMARK    1  A    between atoms: N_2  and  C_24
REMARK    2  A    between atoms: C_5  and  C_12
REMARK    3  A    between atoms: N_10  and  C_16
REMARK    4  A    between atoms: C_19  and  C_31
REMARK    5  A    between atoms: C_27  and  N_32
REMARK                            x       y       z     vdW  Elec       q    Type
REMARK                         _______ _______ _______ _____ _____    ______ ____
ROOT
ATOM      1  F   UNL     1      34.478 -24.386 -13.311  0.00  0.00    -0.200 F 
ATOM      2  N   UNL     1      32.249 -21.899 -17.598  0.00  0.00    -0.247 N 
ATOM      3  N   UNL     1      34.177 -22.543 -16.427  0.00  0.00    -0.334 NA
ATOM      4  N   UNL     1      31.982 -23.095 -15.597  0.00  0.00    -0.167 NA
ATOM      5  C   UNL     1      34.700 -23.168 -15.351  0.00  0.00    +0.188 C 
ATOM      6  C   UNL     1      32.830 -22.543 -16.488  0.00  0.00    +0.149 C 
ATOM      7  C   UNL     1      33.940 -23.772 -14.370  0.00  0.00    +0.192 C 
ATOM      8  C   UNL     1      32.573 -23.703 -14.547  0.00  0.00    +0.144 C 
ATOM      9  H   UNL     1      31.264 -21.923 -17.599  0.00  0.00    +0.165 HD
ENDROOT
BRANCH   5  12
ATOM     10  N   UNL     1      36.900 -24.186 -14.798  0.00  0.00    -0.274 N 
ATOM     11  N   UNL     1      38.337 -22.624 -15.452  0.00  0.00    -0.232 NA
ATOM     12  C   UNL     1      36.138 -23.164 -15.295  0.00  0.00    +0.105 C 
ATOM     13  C   UNL     1      38.210 -23.817 -14.914  0.00  0.00    +0.113 C 
ATOM     14  C   UNL     1      37.050 -22.212 -15.692  0.00  0.00    +0.117 C 
ATOM     15  C   UNL     1      39.317 -24.690 -14.471  0.00  0.00    +0.069 C 
BRANCH  10  16
ATOM     16  C   UNL     1      36.411 -25.432 -14.250  0.00  0.00    +0.078 C 
ATOM     17  C   UNL     1      36.463 -26.566 -15.275  0.00  0.00    +0.022 C 
ATOM     18  C   UNL     1      37.129 -25.810 -12.953  0.00  0.00    +0.022 C 
ENDBRANCH  10  16
ENDBRANCH   5  12
BRANCH   2  24
ATOM     19  C   UNL     1      33.885 -19.898 -20.901  0.00  0.00    +0.054 C 
ATOM     20  C   UNL     1      34.716 -20.618 -20.048  0.00  0.00    +0.006 C 
ATOM     21  C   UNL     1      32.515 -19.837 -20.664  0.00  0.00    +0.006 C 
ATOM     22  C   UNL     1      34.172 -21.283 -18.950  0.00  0.00    +0.015 C 
ATOM     23  C   UNL     1      31.971 -20.502 -19.566  0.00  0.00    +0.015 C 
ATOM     24  C   UNL     1      32.799 -21.225 -18.708  0.00  0.00    +0.058 C 
BRANCH  19  31
ATOM     25  O   UNL     1      34.908 -19.887 -22.973  0.00  0.00    -0.270 OA
ATOM     26  N   UNL     1      34.440 -17.811 -22.045  0.00  0.00    -0.278 N 
ATOM     27  C   UNL     1      33.750 -15.581 -21.717  0.00  0.00    -0.036 C 
ATOM     28  C   UNL     1      34.965 -15.593 -22.646  0.00  0.00    +0.002 C 
ATOM     29  C   UNL     1      33.853 -16.941 -21.026  0.00  0.00    +0.073 C 
ATOM     30  C   UNL     1      34.973 -17.028 -23.154  0.00  0.00    +0.092 C 
ATOM     31  C   UNL     1      34.459 -19.197 -22.062  0.00  0.00    +0.249 C 
BRANCH  27  32
ATOM     32  N   UNL     1      33.751 -14.460 -20.794  0.00  0.00    +0.387 N 
ATOM     33  C   UNL     1      33.892 -13.190 -21.514  0.00  0.00    -0.101 C 
ATOM     34  C   UNL     1      32.526 -14.446 -19.988  0.00  0.00    -0.101 C 
ATOM     35  H   UNL     1      34.551 -14.571 -20.171  0.00  0.00    -0.080 HD
ENDBRANCH  27  32
ENDBRANCH  19  31
ENDBRANCH   2  24
TORSDOF 5
ENDMDL
MODEL 5
REMARK VINA RESULT:      -9.5      6.173     13.461
REMARK  Name = 16113377
REMARK  5 active torsions:
REMARK  status: ('A' for Active; 'I' for Inactive)
REMARK    1  A    between atoms: N_2  and  C_24
REMARK    2  A    between atoms: C_5  and  C_12
REMARK    3  A    between atoms: N_10  and  C_16
REMARK    4  A    between atoms: C_19  and  C_31
REMARK    5  A    between atoms: C_27  and  N_32
REMARK                            x       y       z     vdW  Elec       q    Type
REMARK                         _______ _______ _______ _____ _____    ______ ____
ROOT
ATOM      1  F   UNL     1      34.451 -23.398 -14.549  0.00  0.00    -0.200 F 
ATOM      2  N   UNL     1      36.450 -20.527 -18.708  0.00  0.00    -0.247 N 
ATOM      3  N   UNL     1      34.602 -21.514 -17.651  0.00  0.00    -0.334 NA
ATOM      4  N   UNL     1      36.807 -21.667 -16.688  0.00  0.00    -0.167 NA
ATOM      5  C   UNL     1      34.137 -22.228 -16.605  0.00  0.00    +0.188 C 
ATOM      6  C   UNL     1      35.928 -21.270 -17.631  0.00  0.00    +0.149 C 
ATOM      7  C   UNL     1      34.932 -22.690 -15.577  0.00  0.00    +0.192 C 
ATOM      8  C   UNL     1      36.273 -22.376 -15.672  0.00  0.00    +0.144 C 
ATOM      9  H   UNL     1      37.421 -20.376 -18.651  0.00  0.00    +0.165 HD
ENDROOT
BRANCH   5  12
ATOM     10  N   UNL     1      31.977 -22.866 -15.553  0.00  0.00    -0.274 N 
ATOM     11  N   UNL     1      30.551 -22.739 -17.251  0.00  0.00    -0.232 NA
ATOM     12  C   UNL     1      32.720 -22.481 -16.635  0.00  0.00    +0.105 C 
ATOM     13  C   UNL     1      30.683 -23.007 -15.971  0.00  0.00    +0.113 C 
ATOM     14  C   UNL     1      31.816 -22.411 -17.671  0.00  0.00    +0.117 C 
ATOM     15  C   UNL     1      29.599 -23.416 -15.054  0.00  0.00    +0.069 C 
BRANCH  10  16
ATOM     16  C   UNL     1      32.466 -23.083 -14.209  0.00  0.00    +0.078 C 
ATOM     17  C   UNL     1      31.933 -22.034 -13.231  0.00  0.00    +0.022 C 
ATOM     18  C   UNL     1      32.187 -24.505 -13.719  0.00  0.00    +0.022 C 
ENDBRANCH  10  16
ENDBRANCH   5  12
BRANCH   2  24
ATOM     19  C   UNL     1      34.679 -18.831 -22.112  0.00  0.00    +0.054 C 
ATOM     20  C   UNL     1      35.969 -18.459 -21.745  0.00  0.00    +0.006 C 
ATOM     21  C   UNL     1      33.973 -19.762 -21.355  0.00  0.00    +0.006 C 
ATOM     22  C   UNL     1      36.558 -19.023 -20.612  0.00  0.00    +0.015 C 
ATOM     23  C   UNL     1      34.562 -20.326 -20.224  0.00  0.00    +0.015 C 
ATOM     24  C   UNL     1      35.854 -19.956 -19.852  0.00  0.00    +0.058 C 
BRANCH  19  31
ATOM     25  O   UNL     1      33.715 -19.002 -24.205  0.00  0.00    -0.270 OA
ATOM     26  N   UNL     1      33.898 -16.861 -23.327  0.00  0.00    -0.278 N 
ATOM     27  C   UNL     1      33.461 -14.643 -22.656  0.00  0.00    -0.036 C 
ATOM     28  C   UNL     1      33.501 -14.700 -24.183  0.00  0.00    +0.002 C 
ATOM     29  C   UNL     1      34.217 -15.912 -22.260  0.00  0.00    +0.073 C 
ATOM     30  C   UNL     1      33.282 -16.181 -24.461  0.00  0.00    +0.092 C 
ATOM     31  C   UNL     1      34.059 -18.237 -23.307  0.00  0.00    +0.249 C 
BRANCH  27  32
ATOM     32  N   UNL     1      34.044 -13.428 -22.116  0.00  0.00    +0.387 N 
ATOM     33  C   UNL     1      33.473 -12.242 -22.764  0.00  0.00    -0.101 C 
ATOM     34  C   UNL     1      33.844 -13.352 -20.666  0.00  0.00    -0.101 C 
ATOM     35  H   UNL     1      35.045 -13.452 -22.307  0.00  0.00    -0.080 HD
ENDBRANCH  27  32
ENDBRANCH  19  31
ENDBRANCH   2  24
TORSDOF 5
ENDMDL
MODEL 6
REMARK VINA RESULT:      -8.5      1.639      2.655
REMARK  Name = 16113377
REMARK  5 active torsions:
REMARK  status: ('A' for Active; 'I' for Inactive)
REMARK    1  A    between atoms: N_2  and  C_24
REMARK    2  A    between atoms: C_5  and  C_12
REMARK    3  A    between atoms: N_10  and  C_16
REMARK    4  A    between atoms: C_19  and  C_31
REMARK    5  A    between atoms: C_27  and  N_32
REMARK                            x       y       z     vdW  Elec       q    Type
REMARK                         _______ _______ _______ _____ _____    ______ ____
ROOT
ATOM      1  F   UNL     1      31.327  -2.835 -22.108  0.00  0.00    -0.200 F 
ATOM      2  N   UNL     1      31.909  -8.154 -21.158  0.00  0.00    -0.247 N 
ATOM      3  N   UNL     1      31.800  -6.388 -22.699  0.00  0.00    -0.334 NA
ATOM      4  N   UNL     1      31.588  -5.982 -20.332  0.00  0.00    -0.167 NA
ATOM      5  C   UNL     1      31.652  -5.062 -22.902  0.00  0.00    +0.188 C 
ATOM      6  C   UNL     1      31.759  -6.776 -21.408  0.00  0.00    +0.149 C 
ATOM      7  C   UNL     1      31.471  -4.146 -21.886  0.00  0.00    +0.192 C 
ATOM      8  C   UNL     1      31.447  -4.668 -20.608  0.00  0.00    +0.144 C 
ATOM      9  H   UNL     1      31.871  -8.390 -20.203  0.00  0.00    +0.165 HD
ENDROOT
BRANCH   5  12
ATOM     10  N   UNL     1      32.787  -4.802 -25.098  0.00  0.00    -0.274 N 
ATOM     11  N   UNL     1      31.217  -3.853 -26.349  0.00  0.00    -0.232 NA
ATOM     12  C   UNL     1      31.699  -4.658 -24.282  0.00  0.00    +0.105 C 
ATOM     13  C   UNL     1      32.451  -4.307 -26.326  0.00  0.00    +0.113 C 
ATOM     14  C   UNL     1      30.743  -4.069 -25.079  0.00  0.00    +0.117 C 
ATOM     15  C   UNL     1      33.396  -4.303 -27.461  0.00  0.00    +0.069 C 
BRANCH  10  16
ATOM     16  C   UNL     1      34.064  -5.377 -24.732  0.00  0.00    +0.078 C 
ATOM     17  C   UNL     1      34.181  -6.837 -25.175  0.00  0.00    +0.022 C 
ATOM     18  C   UNL     1      35.237  -4.538 -25.239  0.00  0.00    +0.022 C 
ENDBRANCH  10  16
ENDBRANCH   5  12
BRANCH   2  24
ATOM     19  C   UNL     1      32.485 -11.452 -23.685  0.00  0.00    +0.054 C 
ATOM     20  C   UNL     1      31.468 -11.478 -22.736  0.00  0.00    +0.006 C 
ATOM     21  C   UNL     1      33.313 -10.339 -23.801  0.00  0.00    +0.006 C 
ATOM     22  C   UNL     1      31.276 -10.381 -21.895  0.00  0.00    +0.015 C 
ATOM     23  C   UNL     1      33.121  -9.243 -22.961  0.00  0.00    +0.015 C 
ATOM     24  C   UNL     1      32.103  -9.264 -22.007  0.00  0.00    +0.058 C 
BRANCH  19  31
ATOM     25  O   UNL     1      32.359 -12.481 -25.751  0.00  0.00    -0.270 OA
ATOM     26  N   UNL     1      33.238 -13.753 -24.018  0.00  0.00    -0.278 N 
ATOM     27  C   UNL     1      34.580 -15.194 -22.721  0.00  0.00    -0.036 C 
ATOM     28  C   UNL     1      33.876 -16.012 -23.805  0.00  0.00    +0.002 C 
ATOM     29  C   UNL     1      33.714 -13.936 -22.647  0.00  0.00    +0.073 C 
ATOM     30  C   UNL     1      33.488 -14.945 -24.819  0.00  0.00    +0.092 C 
ATOM     31  C   UNL     1      32.686 -12.609 -24.573  0.00  0.00    +0.249 C 
BRANCH  27  32
ATOM     32  N   UNL     1      34.688 -15.899 -21.457  0.00  0.00    +0.387 N 
ATOM     33  C   UNL     1      33.704 -15.396 -20.492  0.00  0.00    -0.101 C 
ATOM     34  C   UNL     1      34.513 -17.342 -21.645  0.00  0.00    -0.101 C 
ATOM     35  H   UNL     1      35.623 -15.729 -21.086  0.00  0.00    -0.080 HD
ENDBRANCH  27  32
ENDBRANCH  19  31
ENDBRANCH   2  24
TORSDOF 5
ENDMDL
