MODEL 1
REMARK VINA RESULT:     -10.9      0.000      0.000
REMARK  Name = 10239
REMARK  4 active torsions:
REMARK  status: ('A' for Active; 'I' for Inactive)
REMARK    1  A    between atoms: C_3  and  C_20
REMARK    2  A    between atoms: C_4  and  C_11
REMARK    3  A    between atoms: C_6  and  O_17
REMARK    4  A    between atoms: C_20  and  O_21
REMARK                            x       y       z     vdW  Elec       q    Type
REMARK                         _______ _______ _______ _____ _____    ______ ____
ROOT
ATOM      1  N   UNL     1      34.344 -16.635 -20.569  0.00  0.00    -0.403 NA
ATOM      2  C   UNL     1      33.946 -15.285 -22.525  0.00  0.00    +0.035 C 
ATOM      3  C   UNL     1      34.015 -16.435 -23.324  0.00  0.00    +0.114 C 
ATOM      4  C   UNL     1      34.402 -17.720 -21.375  0.00  0.00    +0.165 C 
ATOM      5  C   UNL     1      34.119 -15.434 -21.133  0.00  0.00    +0.114 C 
ATOM      6  C   UNL     1      34.246 -17.675 -22.745  0.00  0.00    +0.170 C 
ATOM      7  C   UNL     1      33.714 -14.016 -23.081  0.00  0.00    +0.002 C 
ATOM      8  C   UNL     1      34.051 -14.291 -20.340  0.00  0.00    +0.085 C 
ATOM      9  C   UNL     1      33.651 -12.891 -22.264  0.00  0.00    -0.004 C 
ATOM     10  C   UNL     1      33.820 -13.029 -20.892  0.00  0.00    -0.019 C 
ENDROOT
BRANCH   4  11
ATOM     11  C   UNL     1      34.646 -18.961 -20.674  0.00  0.00    +0.033 C 
ATOM     12  C   UNL     1      33.577 -19.788 -20.325  0.00  0.00    +0.003 C 
ATOM     13  C   UNL     1      35.950 -19.333 -20.347  0.00  0.00    +0.003 C 
ATOM     14  C   UNL     1      33.812 -20.985 -19.648  0.00  0.00    +0.000 C 
ATOM     15  C   UNL     1      36.185 -20.530 -19.671  0.00  0.00    +0.000 C 
ATOM     16  C   UNL     1      35.117 -21.356 -19.322  0.00  0.00    +0.000 C 
ENDBRANCH   4  11
BRANCH   6  17
ATOM     17  O   UNL     1      34.316 -18.803 -23.502  0.00  0.00    -0.503 OA
ATOM     18  H   UNL     1      34.790 -18.796 -24.310  0.00  0.00    +0.292 HD
ENDBRANCH   6  17
BRANCH   3  20
ATOM     19  O   UNL     1      34.550 -15.713 -25.541  0.00  0.00    -0.245 OA
ATOM     20  C   UNL     1      33.847 -16.372 -24.776  0.00  0.00    +0.341 C 
BRANCH  20  21
ATOM     21  O   UNL     1      32.809 -17.137 -25.205  0.00  0.00    -0.477 OA
ATOM     22  H   UNL     1      32.018 -16.730 -25.500  0.00  0.00    +0.295 HD
ENDBRANCH  20  21
ENDBRANCH   3  20
TORSDOF 4
ENDMDL
MODEL 2
REMARK VINA RESULT:      -9.7      3.855      7.605
REMARK  Name = 10239
REMARK  4 active torsions:
REMARK  status: ('A' for Active; 'I' for Inactive)
REMARK    1  A    between atoms: C_3  and  C_20
REMARK    2  A    between atoms: C_4  and  C_11
REMARK    3  A    between atoms: C_6  and  O_17
REMARK    4  A    between atoms: C_20  and  O_21
REMARK                            x       y       z     vdW  Elec       q    Type
REMARK                         _______ _______ _______ _____ _____    ______ ____
ROOT
ATOM      1  N   UNL     1      36.150 -20.539 -18.486  0.00  0.00    -0.403 NA
ATOM      2  C   UNL     1      35.019 -22.100 -17.041  0.00  0.00    +0.035 C 
ATOM      3  C   UNL     1      33.900 -22.059 -17.885  0.00  0.00    +0.114 C 
ATOM      4  C   UNL     1      35.051 -20.528 -19.274  0.00  0.00    +0.165 C 
ATOM      5  C   UNL     1      36.138 -21.312 -17.385  0.00  0.00    +0.114 C 
ATOM      6  C   UNL     1      33.911 -21.263 -19.021  0.00  0.00    +0.170 C 
ATOM      7  C   UNL     1      35.039 -22.895 -15.883  0.00  0.00    +0.002 C 
ATOM      8  C   UNL     1      37.248 -21.352 -16.546  0.00  0.00    +0.085 C 
ATOM      9  C   UNL     1      36.163 -22.916 -15.063  0.00  0.00    -0.004 C 
ATOM     10  C   UNL     1      37.270 -22.144 -15.395  0.00  0.00    -0.019 C 
ENDROOT
BRANCH   4  11
ATOM     11  C   UNL     1      35.164 -19.668 -20.431  0.00  0.00    +0.033 C 
ATOM     12  C   UNL     1      36.346 -18.963 -20.665  0.00  0.00    +0.003 C 
ATOM     13  C   UNL     1      34.092 -19.543 -21.315  0.00  0.00    +0.003 C 
ATOM     14  C   UNL     1      36.454 -18.133 -21.780  0.00  0.00    +0.000 C 
ATOM     15  C   UNL     1      34.200 -18.713 -22.431  0.00  0.00    +0.000 C 
ATOM     16  C   UNL     1      35.382 -18.008 -22.664  0.00  0.00    +0.000 C 
ENDBRANCH   4  11
BRANCH   6  17
ATOM     17  O   UNL     1      32.836 -21.210 -19.853  0.00  0.00    -0.503 OA
ATOM     18  H   UNL     1      32.077 -21.729 -19.672  0.00  0.00    +0.292 HD
ENDBRANCH   6  17
BRANCH   3  20
ATOM     19  O   UNL     1      31.731 -22.449 -16.954  0.00  0.00    -0.245 OA
ATOM     20  C   UNL     1      32.699 -22.845 -17.603  0.00  0.00    +0.341 C 
BRANCH  20  21
ATOM     21  O   UNL     1      32.760 -24.087 -18.149  0.00  0.00    -0.477 OA
ATOM     22  H   UNL     1      33.194 -24.219 -18.969  0.00  0.00    +0.295 HD
ENDBRANCH  20  21
ENDBRANCH   3  20
TORSDOF 4
ENDMDL
MODEL 3
REMARK VINA RESULT:      -9.7      5.921      9.642
REMARK  Name = 10239
REMARK  4 active torsions:
REMARK  status: ('A' for Active; 'I' for Inactive)
REMARK    1  A    between atoms: C_3  and  C_20
REMARK    2  A    between atoms: C_4  and  C_11
REMARK    3  A    between atoms: C_6  and  O_17
REMARK    4  A    between atoms: C_20  and  O_21
REMARK                            x       y       z     vdW  Elec       q    Type
REMARK                         _______ _______ _______ _____ _____    ______ ____
ROOT
ATOM      1  N   UNL     1      31.548 -22.291 -17.196  0.00  0.00    -0.403 NA
ATOM      2  C   UNL     1      31.777 -23.469 -15.106  0.00  0.00    +0.035 C 
ATOM      3  C   UNL     1      33.170 -23.347 -15.199  0.00  0.00    +0.114 C 
ATOM      4  C   UNL     1      32.896 -22.194 -17.247  0.00  0.00    +0.165 C 
ATOM      5  C   UNL     1      30.993 -22.918 -16.142  0.00  0.00    +0.114 C 
ATOM      6  C   UNL     1      33.745 -22.701 -16.283  0.00  0.00    +0.170 C 
ATOM      7  C   UNL     1      31.164 -24.118 -14.021  0.00  0.00    +0.002 C 
ATOM      8  C   UNL     1      29.609 -23.039 -16.050  0.00  0.00    +0.085 C 
ATOM      9  C   UNL     1      29.779 -24.224 -13.955  0.00  0.00    -0.004 C 
ATOM     10  C   UNL     1      28.999 -23.684 -14.971  0.00  0.00    -0.019 C 
ENDROOT
BRANCH   4  11
ATOM     11  C   UNL     1      33.393 -21.503 -18.415  0.00  0.00    +0.033 C 
ATOM     12  C   UNL     1      34.750 -21.562 -18.737  0.00  0.00    +0.003 C 
ATOM     13  C   UNL     1      32.517 -20.777 -19.222  0.00  0.00    +0.003 C 
ATOM     14  C   UNL     1      35.229 -20.894 -19.864  0.00  0.00    +0.000 C 
ATOM     15  C   UNL     1      32.996 -20.110 -20.350  0.00  0.00    +0.000 C 
ATOM     16  C   UNL     1      34.353 -20.169 -20.671  0.00  0.00    +0.000 C 
ENDBRANCH   4  11
BRANCH   6  17
ATOM     17  O   UNL     1      35.094 -22.572 -16.392  0.00  0.00    -0.503 OA
ATOM     18  H   UNL     1      35.529 -21.844 -15.994  0.00  0.00    +0.292 HD
ENDBRANCH   6  17
BRANCH   3  20
ATOM     19  O   UNL     1      34.256 -23.378 -13.067  0.00  0.00    -0.245 OA
ATOM     20  C   UNL     1      34.057 -23.889 -14.169  0.00  0.00    +0.341 C 
BRANCH  20  21
ATOM     21  O   UNL     1      34.651 -25.045 -14.561  0.00  0.00    -0.477 OA
ATOM     22  H   UNL     1      34.269 -25.561 -15.244  0.00  0.00    +0.295 HD
ENDBRANCH  20  21
ENDBRANCH   3  20
TORSDOF 4
ENDMDL
MODEL 4
REMARK VINA RESULT:      -9.6      6.388      8.880
REMARK  Name = 10239
REMARK  4 active torsions:
REMARK  status: ('A' for Active; 'I' for Inactive)
REMARK    1  A    between atoms: C_3  and  C_20
REMARK    2  A    between atoms: C_4  and  C_11
REMARK    3  A    between atoms: C_6  and  O_17
REMARK    4  A    between atoms: C_20  and  O_21
REMARK                            x       y       z     vdW  Elec       q    Type
REMARK                         _______ _______ _______ _____ _____    ______ ____
ROOT
ATOM      1  N   UNL     1      31.907 -22.096 -17.704  0.00  0.00    -0.403 NA
ATOM      2  C   UNL     1      34.307 -21.951 -17.559  0.00  0.00    +0.035 C 
ATOM      3  C   UNL     1      34.264 -22.595 -16.314  0.00  0.00    +0.114 C 
ATOM      4  C   UNL     1      31.908 -22.715 -16.502  0.00  0.00    +0.165 C 
ATOM      5  C   UNL     1      33.087 -21.718 -18.228  0.00  0.00    +0.114 C 
ATOM      6  C   UNL     1      33.048 -22.986 -15.773  0.00  0.00    +0.170 C 
ATOM      7  C   UNL     1      35.522 -21.542 -18.134  0.00  0.00    +0.002 C 
ATOM      8  C   UNL     1      33.131 -21.078 -19.464  0.00  0.00    +0.085 C 
ATOM      9  C   UNL     1      35.536 -20.905 -19.371  0.00  0.00    -0.004 C 
ATOM     10  C   UNL     1      34.339 -20.672 -20.037  0.00  0.00    -0.019 C 
ENDROOT
BRANCH   4  11
ATOM     11  C   UNL     1      30.592 -23.081 -16.027  0.00  0.00    +0.033 C 
ATOM     12  C   UNL     1      29.513 -22.220 -16.225  0.00  0.00    +0.003 C 
ATOM     13  C   UNL     1      30.402 -24.297 -15.369  0.00  0.00    +0.003 C 
ATOM     14  C   UNL     1      28.244 -22.573 -15.766  0.00  0.00    +0.000 C 
ATOM     15  C   UNL     1      29.133 -24.651 -14.910  0.00  0.00    +0.000 C 
ATOM     16  C   UNL     1      28.054 -23.789 -15.109  0.00  0.00    +0.000 C 
ENDBRANCH   4  11
BRANCH   6  17
ATOM     17  O   UNL     1      32.983 -23.612 -14.567  0.00  0.00    -0.503 OA
ATOM     18  H   UNL     1      33.651 -23.465 -13.926  0.00  0.00    +0.292 HD
ENDBRANCH   6  17
BRANCH   3  20
ATOM     19  O   UNL     1      36.160 -22.033 -14.967  0.00  0.00    -0.245 OA
ATOM     20  C   UNL     1      35.481 -22.876 -15.553  0.00  0.00    +0.341 C 
BRANCH  20  21
ATOM     21  O   UNL     1      35.793 -24.198 -15.556  0.00  0.00    -0.477 OA
ATOM     22  H   UNL     1      35.195 -24.822 -15.194  0.00  0.00    +0.295 HD
ENDBRANCH  20  21
ENDBRANCH   3  20
TORSDOF 4
ENDMDL
MODEL 5
REMARK VINA RESULT:      -9.6      6.405      8.906
REMARK  Name = 10239
REMARK  4 active torsions:
REMARK  status: ('A' for Active; 'I' for Inactive)
REMARK    1  A    between atoms: C_3  and  C_20
REMARK    2  A    between atoms: C_4  and  C_11
REMARK    3  A    between atoms: C_6  and  O_17
REMARK    4  A    between atoms: C_20  and  O_21
REMARK                            x       y       z     vdW  Elec       q    Type
REMARK                         _______ _______ _______ _____ _____    ______ ____
ROOT
ATOM      1  N   UNL     1      31.972 -22.182 -17.673  0.00  0.00    -0.403 NA
ATOM      2  C   UNL     1      34.366 -21.945 -17.540  0.00  0.00    +0.035 C 
ATOM      3  C   UNL     1      34.351 -22.569 -16.284  0.00  0.00    +0.114 C 
ATOM      4  C   UNL     1      32.001 -22.780 -16.460  0.00  0.00    +0.165 C 
ATOM      5  C   UNL     1      33.136 -21.770 -18.209  0.00  0.00    +0.114 C 
ATOM      6  C   UNL     1      33.152 -22.995 -15.731  0.00  0.00    +0.170 C 
ATOM      7  C   UNL     1      35.563 -21.502 -18.127  0.00  0.00    +0.002 C 
ATOM      8  C   UNL     1      33.152 -21.151 -19.455  0.00  0.00    +0.085 C 
ATOM      9  C   UNL     1      35.549 -20.886 -19.375  0.00  0.00    -0.004 C 
ATOM     10  C   UNL     1      34.341 -20.710 -20.040  0.00  0.00    -0.019 C 
ENDROOT
BRANCH   4  11
ATOM     11  C   UNL     1      30.701 -23.187 -15.974  0.00  0.00    +0.033 C 
ATOM     12  C   UNL     1      30.559 -24.393 -15.286  0.00  0.00    +0.003 C 
ATOM     13  C   UNL     1      29.588 -22.374 -16.191  0.00  0.00    +0.003 C 
ATOM     14  C   UNL     1      29.305 -24.786 -14.818  0.00  0.00    +0.000 C 
ATOM     15  C   UNL     1      28.335 -22.766 -15.722  0.00  0.00    +0.000 C 
ATOM     16  C   UNL     1      28.193 -23.972 -15.035  0.00  0.00    +0.000 C 
ENDBRANCH   4  11
BRANCH   6  17
ATOM     17  O   UNL     1      33.115 -23.602 -14.515  0.00  0.00    -0.503 OA
ATOM     18  H   UNL     1      33.867 -23.578 -13.956  0.00  0.00    +0.292 HD
ENDBRANCH   6  17
BRANCH   3  20
ATOM     19  O   UNL     1      36.214 -21.917 -14.933  0.00  0.00    -0.245 OA
ATOM     20  C   UNL     1      35.580 -22.790 -15.523  0.00  0.00    +0.341 C 
BRANCH  20  21
ATOM     21  O   UNL     1      35.960 -24.095 -15.532  0.00  0.00    -0.477 OA
ATOM     22  H   UNL     1      35.968 -24.586 -14.734  0.00  0.00    +0.295 HD
ENDBRANCH  20  21
ENDBRANCH   3  20
TORSDOF 4
ENDMDL
MODEL 6
REMARK VINA RESULT:      -9.3      9.138     12.132
REMARK  Name = 10239
REMARK  4 active torsions:
REMARK  status: ('A' for Active; 'I' for Inactive)
REMARK    1  A    between atoms: C_3  and  C_20
REMARK    2  A    between atoms: C_4  and  C_11
REMARK    3  A    between atoms: C_6  and  O_17
REMARK    4  A    between atoms: C_20  and  O_21
REMARK                            x       y       z     vdW  Elec       q    Type
REMARK                         _______ _______ _______ _____ _____    ______ ____
ROOT
ATOM      1  N   UNL     1      35.331 -24.214 -14.934  0.00  0.00    -0.403 NA
ATOM      2  C   UNL     1      36.558 -24.534 -12.885  0.00  0.00    +0.035 C 
ATOM      3  C   UNL     1      35.479 -24.004 -12.164  0.00  0.00    +0.114 C 
ATOM      4  C   UNL     1      34.313 -23.709 -14.202  0.00  0.00    +0.165 C 
ATOM      5  C   UNL     1      36.440 -24.621 -14.288  0.00  0.00    +0.114 C 
ATOM      6  C   UNL     1      34.335 -23.584 -12.828  0.00  0.00    +0.170 C 
ATOM      7  C   UNL     1      37.730 -24.968 -12.243  0.00  0.00    +0.002 C 
ATOM      8  C   UNL     1      37.512 -25.147 -15.004  0.00  0.00    +0.085 C 
ATOM      9  C   UNL     1      38.786 -25.490 -12.984  0.00  0.00    -0.004 C 
ATOM     10  C   UNL     1      38.677 -25.580 -14.366  0.00  0.00    -0.019 C 
ENDROOT
BRANCH   4  11
ATOM     11  C   UNL     1      33.169 -23.301 -14.987  0.00  0.00    +0.033 C 
ATOM     12  C   UNL     1      31.888 -23.353 -14.435  0.00  0.00    +0.003 C 
ATOM     13  C   UNL     1      33.345 -22.856 -16.297  0.00  0.00    +0.003 C 
ATOM     14  C   UNL     1      30.785 -22.961 -15.193  0.00  0.00    +0.000 C 
ATOM     15  C   UNL     1      32.241 -22.463 -17.055  0.00  0.00    +0.000 C 
ATOM     16  C   UNL     1      30.961 -22.515 -16.503  0.00  0.00    +0.000 C 
ENDBRANCH   4  11
BRANCH   6  17
ATOM     17  O   UNL     1      33.277 -23.067 -12.148  0.00  0.00    -0.503 OA
ATOM     18  H   UNL     1      32.877 -23.560 -11.459  0.00  0.00    +0.292 HD
ENDBRANCH   6  17
BRANCH   3  20
ATOM     19  O   UNL     1      34.950 -24.630  -9.917  0.00  0.00    -0.245 OA
ATOM     20  C   UNL     1      35.518 -23.878 -10.708  0.00  0.00    +0.341 C 
BRANCH  20  21
ATOM     21  O   UNL     1      36.268 -22.819 -10.305  0.00  0.00    -0.477 OA
ATOM     22  H   UNL     1      36.795 -22.885  -9.532  0.00  0.00    +0.295 HD
ENDBRANCH  20  21
ENDBRANCH   3  20
TORSDOF 4
ENDMDL
MODEL 7
REMARK VINA RESULT:      -9.3      6.607     10.577
REMARK  Name = 10239
REMARK  4 active torsions:
REMARK  status: ('A' for Active; 'I' for Inactive)
REMARK    1  A    between atoms: C_3  and  C_20
REMARK    2  A    between atoms: C_4  and  C_11
REMARK    3  A    between atoms: C_6  and  O_17
REMARK    4  A    between atoms: C_20  and  O_21
REMARK                            x       y       z     vdW  Elec       q    Type
REMARK                         _______ _______ _______ _____ _____    ______ ____
ROOT
ATOM      1  N   UNL     1      35.907 -23.049 -15.590  0.00  0.00    -0.403 NA
ATOM      2  C   UNL     1      34.965 -23.847 -13.520  0.00  0.00    +0.035 C 
ATOM      3  C   UNL     1      33.692 -23.454 -13.956  0.00  0.00    +0.114 C 
ATOM      4  C   UNL     1      34.662 -22.685 -15.973  0.00  0.00    +0.165 C 
ATOM      5  C   UNL     1      36.060 -23.622 -14.382  0.00  0.00    +0.114 C 
ATOM      6  C   UNL     1      33.531 -22.864 -15.201  0.00  0.00    +0.170 C 
ATOM      7  C   UNL     1      35.162 -24.446 -12.265  0.00  0.00    +0.002 C 
ATOM      8  C   UNL     1      37.324 -24.011 -13.948  0.00  0.00    +0.085 C 
ATOM      9  C   UNL     1      36.437 -24.826 -11.858  0.00  0.00    -0.004 C 
ATOM     10  C   UNL     1      37.520 -24.609 -12.701  0.00  0.00    -0.019 C 
ENDROOT
BRANCH   4  11
ATOM     11  C   UNL     1      34.602 -22.081 -17.285  0.00  0.00    +0.033 C 
ATOM     12  C   UNL     1      35.723 -21.434 -17.808  0.00  0.00    +0.003 C 
ATOM     13  C   UNL     1      33.424 -22.142 -18.029  0.00  0.00    +0.003 C 
ATOM     14  C   UNL     1      35.665 -20.850 -19.073  0.00  0.00    +0.000 C 
ATOM     15  C   UNL     1      33.366 -21.559 -19.295  0.00  0.00    +0.000 C 
ATOM     16  C   UNL     1      34.487 -20.913 -19.817  0.00  0.00    +0.000 C 
ENDBRANCH   4  11
BRANCH   6  17
ATOM     17  O   UNL     1      32.305 -22.476 -15.643  0.00  0.00    -0.503 OA
ATOM     18  H   UNL     1      31.608 -23.100 -15.697  0.00  0.00    +0.292 HD
ENDBRANCH   6  17
BRANCH   3  20
ATOM     19  O   UNL     1      31.884 -24.709 -13.017  0.00  0.00    -0.245 OA
ATOM     20  C   UNL     1      32.504 -23.651 -13.126  0.00  0.00    +0.341 C 
BRANCH  20  21
ATOM     21  O   UNL     1      32.145 -22.518 -12.468  0.00  0.00    -0.477 OA
ATOM     22  H   UNL     1      31.267 -22.194 -12.536  0.00  0.00    +0.295 HD
ENDBRANCH  20  21
ENDBRANCH   3  20
TORSDOF 4
ENDMDL
MODEL 8
REMARK VINA RESULT:      -9.3      7.077      9.516
REMARK  Name = 10239
REMARK  4 active torsions:
REMARK  status: ('A' for Active; 'I' for Inactive)
REMARK    1  A    between atoms: C_3  and  C_20
REMARK    2  A    between atoms: C_4  and  C_11
REMARK    3  A    between atoms: C_6  and  O_17
REMARK    4  A    between atoms: C_20  and  O_21
REMARK                            x       y       z     vdW  Elec       q    Type
REMARK                         _______ _______ _______ _____ _____    ______ ____
ROOT
ATOM      1  N   UNL     1      35.281 -22.922 -16.224  0.00  0.00    -0.403 NA
ATOM      2  C   UNL     1      32.996 -22.440 -16.817  0.00  0.00    +0.035 C 
ATOM      3  C   UNL     1      32.566 -23.058 -15.634  0.00  0.00    +0.114 C 
ATOM      4  C   UNL     1      34.825 -23.508 -15.093  0.00  0.00    +0.165 C 
ATOM      5  C   UNL     1      34.382 -22.394 -17.075  0.00  0.00    +0.114 C 
ATOM      6  C   UNL     1      33.490 -23.601 -14.754  0.00  0.00    +0.170 C 
ATOM      7  C   UNL     1      32.085 -21.880 -17.728  0.00  0.00    +0.002 C 
ATOM      8  C   UNL     1      34.808 -21.782 -18.251  0.00  0.00    +0.085 C 
ATOM      9  C   UNL     1      32.539 -21.274 -18.895  0.00  0.00    -0.004 C 
ATOM     10  C   UNL     1      33.903 -21.224 -19.157  0.00  0.00    -0.019 C 
ENDROOT
BRANCH   4  11
ATOM     11  C   UNL     1      35.867 -24.042 -14.245  0.00  0.00    +0.033 C 
ATOM     12  C   UNL     1      36.456 -23.236 -13.270  0.00  0.00    +0.003 C 
ATOM     13  C   UNL     1      36.286 -25.364 -14.402  0.00  0.00    +0.003 C 
ATOM     14  C   UNL     1      37.463 -23.751 -12.453  0.00  0.00    +0.000 C 
ATOM     15  C   UNL     1      37.291 -25.879 -13.584  0.00  0.00    +0.000 C 
ATOM     16  C   UNL     1      37.880 -25.073 -12.609  0.00  0.00    +0.000 C 
ENDBRANCH   4  11
BRANCH   6  17
ATOM     17  O   UNL     1      33.095 -24.204 -13.601  0.00  0.00    -0.503 OA
ATOM     18  H   UNL     1      32.182 -24.318 -13.422  0.00  0.00    +0.292 HD
ENDBRANCH   6  17
BRANCH   3  20
ATOM     19  O   UNL     1      30.362 -23.984 -15.733  0.00  0.00    -0.245 OA
ATOM     20  C   UNL     1      31.148 -23.148 -15.288  0.00  0.00    +0.341 C 
BRANCH  20  21
ATOM     21  O   UNL     1      30.775 -22.191 -14.398  0.00  0.00    -0.477 OA
ATOM     22  H   UNL     1      29.870 -21.966 -14.304  0.00  0.00    +0.295 HD
ENDBRANCH  20  21
ENDBRANCH   3  20
TORSDOF 4
ENDMDL
MODEL 9
REMARK VINA RESULT:      -9.2      8.783     10.810
REMARK  Name = 10239
REMARK  4 active torsions:
REMARK  status: ('A' for Active; 'I' for Inactive)
REMARK    1  A    between atoms: C_3  and  C_20
REMARK    2  A    between atoms: C_4  and  C_11
REMARK    3  A    between atoms: C_6  and  O_17
REMARK    4  A    between atoms: C_20  and  O_21
REMARK                            x       y       z     vdW  Elec       q    Type
REMARK                         _______ _______ _______ _____ _____    ______ ____
ROOT
ATOM      1  N   UNL     1      33.151 -22.798 -15.788  0.00  0.00    -0.403 NA
ATOM      2  C   UNL     1      35.293 -22.858 -14.686  0.00  0.00    +0.035 C 
ATOM      3  C   UNL     1      34.694 -23.454 -13.568  0.00  0.00    +0.114 C 
ATOM      4  C   UNL     1      32.612 -23.374 -14.690  0.00  0.00    +0.165 C 
ATOM      5  C   UNL     1      34.473 -22.542 -15.790  0.00  0.00    +0.114 C 
ATOM      6  C   UNL     1      33.332 -23.719 -13.564  0.00  0.00    +0.170 C 
ATOM      7  C   UNL     1      36.669 -22.576 -14.721  0.00  0.00    +0.002 C 
ATOM      8  C   UNL     1      35.069 -21.950 -16.900  0.00  0.00    +0.085 C 
ATOM      9  C   UNL     1      37.238 -21.984 -15.844  0.00  0.00    -0.004 C 
ATOM     10  C   UNL     1      36.437 -21.670 -16.935  0.00  0.00    -0.019 C 
ENDROOT
BRANCH   4  11
ATOM     11  C   UNL     1      31.188 -23.609 -14.787  0.00  0.00    +0.033 C 
ATOM     12  C   UNL     1      30.633 -24.770 -14.248  0.00  0.00    +0.003 C 
ATOM     13  C   UNL     1      30.369 -22.674 -15.421  0.00  0.00    +0.003 C 
ATOM     14  C   UNL     1      29.260 -24.996 -14.344  0.00  0.00    +0.000 C 
ATOM     15  C   UNL     1      28.996 -22.900 -15.515  0.00  0.00    +0.000 C 
ATOM     16  C   UNL     1      28.441 -24.061 -14.976  0.00  0.00    +0.000 C 
ENDBRANCH   4  11
BRANCH   6  17
ATOM     17  O   UNL     1      32.730 -24.297 -12.490  0.00  0.00    -0.503 OA
ATOM     18  H   UNL     1      31.847 -24.604 -12.557  0.00  0.00    +0.292 HD
ENDBRANCH   6  17
BRANCH   3  20
ATOM     19  O   UNL     1      35.898 -23.018 -11.548  0.00  0.00    -0.245 OA
ATOM     20  C   UNL     1      35.470 -23.815 -12.382  0.00  0.00    +0.341 C 
BRANCH  20  21
ATOM     21  O   UNL     1      35.674 -25.155 -12.291  0.00  0.00    -0.477 OA
ATOM     22  H   UNL     1      35.965 -25.636 -13.041  0.00  0.00    +0.295 HD
ENDBRANCH  20  21
ENDBRANCH   3  20
TORSDOF 4
ENDMDL
