MODEL 1
REMARK VINA RESULT:     -12.3      0.000      0.000
REMARK  Name = 10274777
REMARK  10 active torsions:
REMARK  status: ('A' for Active; 'I' for Inactive)
REMARK    1  A    between atoms: C_2  and  C_25
REMARK    2  A    between atoms: C_5  and  O_10
REMARK    3  A    between atoms: O_10  and  C_11
REMARK    4  A    between atoms: C_11  and  C_12
REMARK    5  A    between atoms: C_12  and  C_15
REMARK    6  A    between atoms: C_17  and  C_19
REMARK    7  A    between atoms: C_25  and  C_26
REMARK    8  A    between atoms: C_26  and  O_27
REMARK    9  A    between atoms: C_26  and  C_30
REMARK   10  A    between atoms: C_30  and  O_31
REMARK                            x       y       z     vdW  Elec       q    Type
REMARK                         _______ _______ _______ _____ _____    ______ ____
ROOT
ATOM      1  S   UNL     1      34.914 -23.023 -14.415  0.00  0.00    -0.087 S 
ATOM      2  C   UNL     1      32.908 -22.763 -16.362  0.00  0.00    -0.013 C 
ATOM      3  C   UNL     1      34.243 -22.600 -15.946  0.00  0.00    +0.029 C 
ATOM      4  C   UNL     1      35.209 -22.043 -16.788  0.00  0.00    +0.040 C 
ATOM      5  C   UNL     1      34.813 -21.642 -18.087  0.00  0.00    +0.139 C 
ATOM      6  C   UNL     1      32.549 -22.357 -17.649  0.00  0.00    -0.001 C 
ATOM      7  C   UNL     1      33.490 -21.802 -18.504  0.00  0.00    +0.037 C 
ATOM      8  C   UNL     1      36.489 -21.981 -16.141  0.00  0.00    +0.010 C 
ATOM      9  C   UNL     1      36.466 -22.477 -14.859  0.00  0.00    +0.036 C 
ENDROOT
BRANCH   5  10
ATOM     10  O   UNL     1      35.715 -21.089 -18.962  0.00  0.00    -0.475 OA
BRANCH  10  11
ATOM     11  C   UNL     1      35.177 -20.452 -20.113  0.00  0.00    +0.213 C 
BRANCH  11  12
ATOM     12  C   UNL     1      36.095 -19.312 -20.547  0.00  0.00    +0.105 C 
BRANCH  12  15
ATOM     13  O   UNL     1      34.309 -17.183 -22.915  0.00  0.00    -0.449 OA
ATOM     14  N   UNL     1      35.218 -17.020 -20.849  0.00  0.00    -0.373 NA
ATOM     15  C   UNL     1      35.383 -18.266 -21.356  0.00  0.00    +0.134 C 
ATOM     16  C   UNL     1      34.848 -18.392 -22.592  0.00  0.00    +0.216 C 
ATOM     17  C   UNL     1      34.571 -16.415 -21.821  0.00  0.00    +0.277 C 
ATOM     18  C   UNL     1      34.729 -19.463 -23.587  0.00  0.00    +0.055 C 
BRANCH  17  19
ATOM     19  C   UNL     1      34.100 -15.061 -21.898  0.00  0.00    +0.066 C 
ATOM     20  C   UNL     1      33.713 -14.384 -20.736  0.00  0.00    +0.006 C 
ATOM     21  C   UNL     1      34.023 -14.411 -23.132  0.00  0.00    +0.006 C 
ATOM     22  C   UNL     1      33.255 -13.069 -20.809  0.00  0.00    +0.000 C 
ATOM     23  C   UNL     1      33.565 -13.095 -23.205  0.00  0.00    +0.000 C 
ATOM     24  C   UNL     1      33.181 -12.424 -22.045  0.00  0.00    +0.000 C 
ENDBRANCH  17  19
ENDBRANCH  12  15
ENDBRANCH  11  12
ENDBRANCH  10  11
ENDBRANCH   5  10
BRANCH   2  25
ATOM     25  C   UNL     1      31.853 -23.357 -15.483  0.00  0.00    +0.068 C 
BRANCH  25  26
ATOM     26  C   UNL     1      30.655 -22.417 -15.286  0.00  0.00    +0.218 C 
BRANCH  26  27
ATOM     27  O   UNL     1      30.379 -22.320 -13.893  0.00  0.00    -0.342 OA
ATOM     28  C   UNL     1      31.337 -23.031 -13.122  0.00  0.00    +0.175 C 
ENDBRANCH  26  27
BRANCH  26  30
ATOM     29  O   UNL     1      28.972 -24.094 -15.806  0.00  0.00    -0.248 OA
ATOM     30  C   UNL     1      29.412 -22.963 -15.960  0.00  0.00    +0.342 C 
BRANCH  30  31
ATOM     31  O   UNL     1      28.814 -22.040 -16.757  0.00  0.00    -0.479 OA
ATOM     32  H   UNL     1      28.761 -22.184 -17.682  0.00  0.00    +0.295 HD
ENDBRANCH  30  31
ENDBRANCH  26  30
ENDBRANCH  25  26
ENDBRANCH   2  25
TORSDOF 10
ENDMDL
MODEL 2
REMARK VINA RESULT:     -12.2      2.568      4.155
REMARK  Name = 10274777
REMARK  10 active torsions:
REMARK  status: ('A' for Active; 'I' for Inactive)
REMARK    1  A    between atoms: C_2  and  C_25
REMARK    2  A    between atoms: C_5  and  O_10
REMARK    3  A    between atoms: O_10  and  C_11
REMARK    4  A    between atoms: C_11  and  C_12
REMARK    5  A    between atoms: C_12  and  C_15
REMARK    6  A    between atoms: C_17  and  C_19
REMARK    7  A    between atoms: C_25  and  C_26
REMARK    8  A    between atoms: C_26  and  O_27
REMARK    9  A    between atoms: C_26  and  C_30
REMARK   10  A    between atoms: C_30  and  O_31
REMARK                            x       y       z     vdW  Elec       q    Type
REMARK                         _______ _______ _______ _____ _____    ______ ____
ROOT
ATOM      1  S   UNL     1      32.902 -22.987 -15.445  0.00  0.00    -0.087 S 
ATOM      2  C   UNL     1      35.610 -22.286 -15.197  0.00  0.00    -0.013 C 
ATOM      3  C   UNL     1      34.448 -22.443 -15.978  0.00  0.00    +0.029 C 
ATOM      4  C   UNL     1      34.442 -22.154 -17.346  0.00  0.00    +0.040 C 
ATOM      5  C   UNL     1      35.643 -21.694 -17.938  0.00  0.00    +0.139 C 
ATOM      6  C   UNL     1      36.778 -21.830 -15.811  0.00  0.00    -0.001 C 
ATOM      7  C   UNL     1      36.797 -21.537 -17.167  0.00  0.00    +0.037 C 
ATOM      8  C   UNL     1      33.149 -22.393 -17.921  0.00  0.00    +0.010 C 
ATOM      9  C   UNL     1      32.230 -22.844 -17.004  0.00  0.00    +0.036 C 
ENDROOT
BRANCH   5  10
ATOM     10  O   UNL     1      35.701 -21.394 -19.276  0.00  0.00    -0.475 OA
BRANCH  10  11
ATOM     11  C   UNL     1      35.054 -20.197 -19.689  0.00  0.00    +0.213 C 
BRANCH  11  12
ATOM     12  C   UNL     1      36.018 -19.348 -20.513  0.00  0.00    +0.105 C 
BRANCH  12  15
ATOM     13  O   UNL     1      34.262 -17.184 -22.872  0.00  0.00    -0.449 OA
ATOM     14  N   UNL     1      35.170 -17.044 -20.805  0.00  0.00    -0.373 NA
ATOM     15  C   UNL     1      35.320 -18.289 -21.318  0.00  0.00    +0.134 C 
ATOM     16  C   UNL     1      34.785 -18.402 -22.555  0.00  0.00    +0.216 C 
ATOM     17  C   UNL     1      34.533 -16.426 -21.774  0.00  0.00    +0.277 C 
ATOM     18  C   UNL     1      34.655 -19.465 -23.557  0.00  0.00    +0.055 C 
BRANCH  17  19
ATOM     19  C   UNL     1      34.079 -15.065 -21.844  0.00  0.00    +0.066 C 
ATOM     20  C   UNL     1      34.032 -14.402 -23.074  0.00  0.00    +0.006 C 
ATOM     21  C   UNL     1      33.683 -14.394 -20.684  0.00  0.00    +0.006 C 
ATOM     22  C   UNL     1      33.592 -13.081 -23.144  0.00  0.00    +0.000 C 
ATOM     23  C   UNL     1      33.242 -13.072 -20.753  0.00  0.00    +0.000 C 
ATOM     24  C   UNL     1      33.197 -12.415 -21.983  0.00  0.00    +0.000 C 
ENDBRANCH  17  19
ENDBRANCH  12  15
ENDBRANCH  11  12
ENDBRANCH  10  11
ENDBRANCH   5  10
BRANCH   2  25
ATOM     25  C   UNL     1      35.646 -22.585 -13.732  0.00  0.00    +0.068 C 
BRANCH  25  26
ATOM     26  C   UNL     1      36.856 -23.444 -13.338  0.00  0.00    +0.218 C 
BRANCH  26  27
ATOM     27  O   UNL     1      36.488 -24.816 -13.434  0.00  0.00    -0.342 OA
ATOM     28  C   UNL     1      37.482 -25.575 -14.107  0.00  0.00    +0.175 C 
ENDBRANCH  26  27
BRANCH  26  30
ATOM     29  O   UNL     1      37.281 -24.024 -11.014  0.00  0.00    -0.248 OA
ATOM     30  C   UNL     1      37.270 -23.183 -11.903  0.00  0.00    +0.342 C 
BRANCH  30  31
ATOM     31  O   UNL     1      37.653 -21.895 -11.707  0.00  0.00    -0.479 OA
ATOM     32  H   UNL     1      37.545 -21.265 -12.393  0.00  0.00    +0.295 HD
ENDBRANCH  30  31
ENDBRANCH  26  30
ENDBRANCH  25  26
ENDBRANCH   2  25
TORSDOF 10
ENDMDL
MODEL 3
REMARK VINA RESULT:     -12.1      3.044      4.714
REMARK  Name = 10274777
REMARK  10 active torsions:
REMARK  status: ('A' for Active; 'I' for Inactive)
REMARK    1  A    between atoms: C_2  and  C_25
REMARK    2  A    between atoms: C_5  and  O_10
REMARK    3  A    between atoms: O_10  and  C_11
REMARK    4  A    between atoms: C_11  and  C_12
REMARK    5  A    between atoms: C_12  and  C_15
REMARK    6  A    between atoms: C_17  and  C_19
REMARK    7  A    between atoms: C_25  and  C_26
REMARK    8  A    between atoms: C_26  and  O_27
REMARK    9  A    between atoms: C_26  and  C_30
REMARK   10  A    between atoms: C_30  and  O_31
REMARK                            x       y       z     vdW  Elec       q    Type
REMARK                         _______ _______ _______ _____ _____    ______ ____
ROOT
ATOM      1  S   UNL     1      31.591 -23.738 -13.789  0.00  0.00    -0.087 S 
ATOM      2  C   UNL     1      34.390 -23.677 -13.575  0.00  0.00    -0.013 C 
ATOM      3  C   UNL     1      33.209 -23.450 -14.309  0.00  0.00    +0.029 C 
ATOM      4  C   UNL     1      33.243 -22.939 -15.609  0.00  0.00    +0.040 C 
ATOM      5  C   UNL     1      34.505 -22.650 -16.182  0.00  0.00    +0.139 C 
ATOM      6  C   UNL     1      35.619 -23.381 -14.168  0.00  0.00    -0.001 C 
ATOM      7  C   UNL     1      35.679 -22.873 -15.458  0.00  0.00    +0.037 C 
ATOM      8  C   UNL     1      31.919 -22.798 -16.146  0.00  0.00    +0.010 C 
ATOM      9  C   UNL     1      30.939 -23.193 -15.267  0.00  0.00    +0.036 C 
ENDROOT
BRANCH   5  10
ATOM     10  O   UNL     1      34.605 -22.146 -17.455  0.00  0.00    -0.475 OA
BRANCH  10  11
ATOM     11  C   UNL     1      35.660 -21.224 -17.695  0.00  0.00    +0.213 C 
BRANCH  11  12
ATOM     12  C   UNL     1      35.995 -21.201 -19.184  0.00  0.00    +0.105 C 
BRANCH  12  15
ATOM     13  O   UNL     1      33.346 -19.356 -20.888  0.00  0.00    -0.449 OA
ATOM     14  N   UNL     1      35.600 -19.296 -20.710  0.00  0.00    -0.373 NA
ATOM     15  C   UNL     1      35.081 -20.308 -19.972  0.00  0.00    +0.134 C 
ATOM     16  C   UNL     1      33.733 -20.367 -20.060  0.00  0.00    +0.216 C 
ATOM     17  C   UNL     1      34.521 -18.761 -21.235  0.00  0.00    +0.277 C 
ATOM     18  C   UNL     1      32.674 -21.216 -19.504  0.00  0.00    +0.055 C 
BRANCH  17  19
ATOM     19  C   UNL     1      34.398 -17.638 -22.123  0.00  0.00    +0.066 C 
ATOM     20  C   UNL     1      34.619 -16.341 -21.650  0.00  0.00    +0.006 C 
ATOM     21  C   UNL     1      34.058 -17.835 -23.463  0.00  0.00    +0.006 C 
ATOM     22  C   UNL     1      34.500 -15.251 -22.510  0.00  0.00    +0.000 C 
ATOM     23  C   UNL     1      33.939 -16.744 -24.325  0.00  0.00    +0.000 C 
ATOM     24  C   UNL     1      34.160 -15.452 -23.849  0.00  0.00    +0.000 C 
ENDBRANCH  17  19
ENDBRANCH  12  15
ENDBRANCH  11  12
ENDBRANCH  10  11
ENDBRANCH   5  10
BRANCH   2  25
ATOM     25  C   UNL     1      34.385 -24.221 -12.182  0.00  0.00    +0.068 C 
BRANCH  25  26
ATOM     26  C   UNL     1      35.769 -24.157 -11.521  0.00  0.00    +0.218 C 
BRANCH  26  27
ATOM     27  O   UNL     1      36.325 -25.467 -11.505  0.00  0.00    -0.342 OA
ATOM     28  C   UNL     1      37.644 -25.480 -12.032  0.00  0.00    +0.175 C 
ENDBRANCH  26  27
BRANCH  26  30
ATOM     29  O   UNL     1      34.982 -24.214  -9.221  0.00  0.00    -0.248 OA
ATOM     30  C   UNL     1      35.670 -23.687 -10.084  0.00  0.00    +0.342 C 
BRANCH  30  31
ATOM     31  O   UNL     1      36.456 -22.605  -9.844  0.00  0.00    -0.479 OA
ATOM     32  H   UNL     1      36.555 -22.283  -8.969  0.00  0.00    +0.295 HD
ENDBRANCH  30  31
ENDBRANCH  26  30
ENDBRANCH  25  26
ENDBRANCH   2  25
TORSDOF 10
ENDMDL
MODEL 4
REMARK VINA RESULT:     -12.1      2.403      3.971
REMARK  Name = 10274777
REMARK  10 active torsions:
REMARK  status: ('A' for Active; 'I' for Inactive)
REMARK    1  A    between atoms: C_2  and  C_25
REMARK    2  A    between atoms: C_5  and  O_10
REMARK    3  A    between atoms: O_10  and  C_11
REMARK    4  A    between atoms: C_11  and  C_12
REMARK    5  A    between atoms: C_12  and  C_15
REMARK    6  A    between atoms: C_17  and  C_19
REMARK    7  A    between atoms: C_25  and  C_26
REMARK    8  A    between atoms: C_26  and  O_27
REMARK    9  A    between atoms: C_26  and  C_30
REMARK   10  A    between atoms: C_30  and  O_31
REMARK                            x       y       z     vdW  Elec       q    Type
REMARK                         _______ _______ _______ _____ _____    ______ ____
ROOT
ATOM      1  S   UNL     1      33.218 -23.109 -15.110  0.00  0.00    -0.087 S 
ATOM      2  C   UNL     1      35.820 -22.178 -15.611  0.00  0.00    -0.013 C 
ATOM      3  C   UNL     1      34.513 -22.466 -16.050  0.00  0.00    +0.029 C 
ATOM      4  C   UNL     1      34.120 -22.243 -17.373  0.00  0.00    +0.040 C 
ATOM      5  C   UNL     1      35.075 -21.714 -18.274  0.00  0.00    +0.139 C 
ATOM      6  C   UNL     1      36.738 -21.657 -16.524  0.00  0.00    -0.001 C 
ATOM      7  C   UNL     1      36.372 -21.427 -17.843  0.00  0.00    +0.037 C 
ATOM      8  C   UNL     1      32.748 -22.613 -17.576  0.00  0.00    +0.010 C 
ATOM      9  C   UNL     1      32.148 -23.094 -16.437  0.00  0.00    +0.036 C 
ENDROOT
BRANCH   5  10
ATOM     10  O   UNL     1      34.750 -21.472 -19.586  0.00  0.00    -0.475 OA
BRANCH  10  11
ATOM     11  C   UNL     1      34.325 -20.153 -19.905  0.00  0.00    +0.213 C 
BRANCH  11  12
ATOM     12  C   UNL     1      35.448 -19.410 -20.624  0.00  0.00    +0.105 C 
BRANCH  12  15
ATOM     13  O   UNL     1      34.189 -17.052 -23.110  0.00  0.00    -0.449 OA
ATOM     14  N   UNL     1      34.830 -17.037 -20.941  0.00  0.00    -0.373 NA
ATOM     15  C   UNL     1      34.946 -18.278 -21.473  0.00  0.00    +0.134 C 
ATOM     16  C   UNL     1      34.568 -18.316 -22.772  0.00  0.00    +0.216 C 
ATOM     17  C   UNL     1      34.374 -16.345 -21.961  0.00  0.00    +0.277 C 
ATOM     18  C   UNL     1      34.484 -19.340 -23.818  0.00  0.00    +0.055 C 
BRANCH  17  19
ATOM     19  C   UNL     1      34.042 -14.950 -22.041  0.00  0.00    +0.066 C 
ATOM     20  C   UNL     1      33.826 -14.211 -20.874  0.00  0.00    +0.006 C 
ATOM     21  C   UNL     1      33.932 -14.323 -23.285  0.00  0.00    +0.006 C 
ATOM     22  C   UNL     1      33.503 -12.857 -20.950  0.00  0.00    +0.000 C 
ATOM     23  C   UNL     1      33.610 -12.967 -23.361  0.00  0.00    +0.000 C 
ATOM     24  C   UNL     1      33.395 -12.234 -22.194  0.00  0.00    +0.000 C 
ENDBRANCH  17  19
ENDBRANCH  12  15
ENDBRANCH  11  12
ENDBRANCH  10  11
ENDBRANCH   5  10
BRANCH   2  25
ATOM     25  C   UNL     1      36.269 -22.405 -14.202  0.00  0.00    +0.068 C 
BRANCH  25  26
ATOM     26  C   UNL     1      36.544 -23.886 -13.904  0.00  0.00    +0.218 C 
BRANCH  26  27
ATOM     27  O   UNL     1      36.652 -24.052 -12.495  0.00  0.00    -0.342 OA
ATOM     28  C   UNL     1      36.495 -22.817 -11.811  0.00  0.00    +0.175 C 
ENDBRANCH  26  27
BRANCH  26  30
ATOM     29  O   UNL     1      38.890 -23.683 -14.511  0.00  0.00    -0.248 OA
ATOM     30  C   UNL     1      37.854 -24.335 -14.519  0.00  0.00    +0.342 C 
BRANCH  30  31
ATOM     31  O   UNL     1      37.762 -25.570 -15.075  0.00  0.00    -0.479 OA
ATOM     32  H   UNL     1      37.698 -26.328 -14.526  0.00  0.00    +0.295 HD
ENDBRANCH  30  31
ENDBRANCH  26  30
ENDBRANCH  25  26
ENDBRANCH   2  25
TORSDOF 10
ENDMDL
MODEL 5
REMARK VINA RESULT:     -11.7      5.626      9.921
REMARK  Name = 10274777
REMARK  10 active torsions:
REMARK  status: ('A' for Active; 'I' for Inactive)
REMARK    1  A    between atoms: C_2  and  C_25
REMARK    2  A    between atoms: C_5  and  O_10
REMARK    3  A    between atoms: O_10  and  C_11
REMARK    4  A    between atoms: C_11  and  C_12
REMARK    5  A    between atoms: C_12  and  C_15
REMARK    6  A    between atoms: C_17  and  C_19
REMARK    7  A    between atoms: C_25  and  C_26
REMARK    8  A    between atoms: C_26  and  O_27
REMARK    9  A    between atoms: C_26  and  C_30
REMARK   10  A    between atoms: C_30  and  O_31
REMARK                            x       y       z     vdW  Elec       q    Type
REMARK                         _______ _______ _______ _____ _____    ______ ____
ROOT
ATOM      1  S   UNL     1      33.727 -15.304 -24.925  0.00  0.00    -0.087 S 
ATOM      2  C   UNL     1      34.218 -15.531 -22.170  0.00  0.00    -0.013 C 
ATOM      3  C   UNL     1      33.733 -14.805 -23.275  0.00  0.00    +0.029 C 
ATOM      4  C   UNL     1      33.178 -13.531 -23.127  0.00  0.00    +0.040 C 
ATOM      5  C   UNL     1      33.111 -12.978 -21.825  0.00  0.00    +0.139 C 
ATOM      6  C   UNL     1      34.137 -14.957 -20.899  0.00  0.00    -0.001 C 
ATOM      7  C   UNL     1      33.590 -13.694 -20.726  0.00  0.00    +0.037 C 
ATOM      8  C   UNL     1      32.758 -12.997 -24.392  0.00  0.00    +0.010 C 
ATOM      9  C   UNL     1      32.998 -13.852 -25.440  0.00  0.00    +0.036 C 
ENDROOT
BRANCH   5  10
ATOM     10  O   UNL     1      32.576 -11.731 -21.614  0.00  0.00    -0.475 OA
BRANCH  10  11
ATOM     11  C   UNL     1      31.348 -11.677 -20.900  0.00  0.00    +0.213 C 
BRANCH  11  12
ATOM     12  C   UNL     1      30.421 -10.650 -21.546  0.00  0.00    +0.105 C 
BRANCH  12  15
ATOM     13  O   UNL     1      31.996  -7.361 -21.384  0.00  0.00    -0.449 OA
ATOM     14  N   UNL     1      31.324  -8.836 -22.962  0.00  0.00    -0.373 NA
ATOM     15  C   UNL     1      31.069  -9.307 -21.717  0.00  0.00    +0.134 C 
ATOM     16  C   UNL     1      31.462  -8.444 -20.753  0.00  0.00    +0.216 C 
ATOM     17  C   UNL     1      31.877  -7.672 -22.705  0.00  0.00    +0.277 C 
ATOM     18  C   UNL     1      31.440  -8.417 -19.286  0.00  0.00    +0.055 C 
BRANCH  17  19
ATOM     19  C   UNL     1      32.376  -6.678 -23.614  0.00  0.00    +0.066 C 
ATOM     20  C   UNL     1      33.505  -5.924 -23.281  0.00  0.00    +0.006 C 
ATOM     21  C   UNL     1      31.734  -6.457 -24.836  0.00  0.00    +0.006 C 
ATOM     22  C   UNL     1      33.990  -4.959 -24.163  0.00  0.00    +0.000 C 
ATOM     23  C   UNL     1      32.219  -5.491 -25.718  0.00  0.00    +0.000 C 
ATOM     24  C   UNL     1      33.346  -4.742 -25.382  0.00  0.00    +0.000 C 
ENDBRANCH  17  19
ENDBRANCH  12  15
ENDBRANCH  11  12
ENDBRANCH  10  11
ENDBRANCH   5  10
BRANCH   2  25
ATOM     25  C   UNL     1      34.816 -16.896 -22.297  0.00  0.00    +0.068 C 
BRANCH  25  26
ATOM     26  C   UNL     1      34.810 -17.666 -20.970  0.00  0.00    +0.218 C 
BRANCH  26  27
ATOM     27  O   UNL     1      36.157 -17.913 -20.582  0.00  0.00    -0.342 OA
ATOM     28  C   UNL     1      36.966 -18.251 -21.700  0.00  0.00    +0.175 C 
ENDBRANCH  26  27
BRANCH  26  30
ATOM     29  O   UNL     1      34.013 -19.841 -20.227  0.00  0.00    -0.248 OA
ATOM     30  C   UNL     1      34.126 -19.010 -21.119  0.00  0.00    +0.342 C 
BRANCH  30  31
ATOM     31  O   UNL     1      33.624 -19.194 -22.367  0.00  0.00    -0.479 OA
ATOM     32  H   UNL     1      32.738 -18.951 -22.556  0.00  0.00    +0.295 HD
ENDBRANCH  30  31
ENDBRANCH  26  30
ENDBRANCH  25  26
ENDBRANCH   2  25
TORSDOF 10
ENDMDL
MODEL 6
REMARK VINA RESULT:     -11.4      3.026      4.982
REMARK  Name = 10274777
REMARK  10 active torsions:
REMARK  status: ('A' for Active; 'I' for Inactive)
REMARK    1  A    between atoms: C_2  and  C_25
REMARK    2  A    between atoms: C_5  and  O_10
REMARK    3  A    between atoms: O_10  and  C_11
REMARK    4  A    between atoms: C_11  and  C_12
REMARK    5  A    between atoms: C_12  and  C_15
REMARK    6  A    between atoms: C_17  and  C_19
REMARK    7  A    between atoms: C_25  and  C_26
REMARK    8  A    between atoms: C_26  and  O_27
REMARK    9  A    between atoms: C_26  and  C_30
REMARK   10  A    between atoms: C_30  and  O_31
REMARK                            x       y       z     vdW  Elec       q    Type
REMARK                         _______ _______ _______ _____ _____    ______ ____
ROOT
ATOM      1  S   UNL     1      34.126 -23.861 -13.045  0.00  0.00    -0.087 S 
ATOM      2  C   UNL     1      36.707 -23.071 -13.821  0.00  0.00    -0.013 C 
ATOM      3  C   UNL     1      35.326 -23.176 -14.077  0.00  0.00    +0.029 C 
ATOM      4  C   UNL     1      34.765 -22.706 -15.268  0.00  0.00    +0.040 C 
ATOM      5  C   UNL     1      35.624 -22.114 -16.224  0.00  0.00    +0.139 C 
ATOM      6  C   UNL     1      37.528 -22.481 -14.784  0.00  0.00    -0.001 C 
ATOM      7  C   UNL     1      36.994 -22.007 -15.974  0.00  0.00    +0.037 C 
ATOM      8  C   UNL     1      33.346 -22.926 -15.296  0.00  0.00    +0.010 C 
ATOM      9  C   UNL     1      32.877 -23.540 -14.159  0.00  0.00    +0.036 C 
ENDROOT
BRANCH   5  10
ATOM     10  O   UNL     1      35.134 -21.632 -17.413  0.00  0.00    -0.475 OA
BRANCH  10  11
ATOM     11  C   UNL     1      36.059 -20.960 -18.258  0.00  0.00    +0.213 C 
BRANCH  11  12
ATOM     12  C   UNL     1      35.762 -21.297 -19.716  0.00  0.00    +0.105 C 
BRANCH  12  15
ATOM     13  O   UNL     1      33.188 -19.076 -21.046  0.00  0.00    -0.449 OA
ATOM     14  N   UNL     1      35.424 -19.365 -21.222  0.00  0.00    -0.373 NA
ATOM     15  C   UNL     1      34.881 -20.279 -20.382  0.00  0.00    +0.134 C 
ATOM     16  C   UNL     1      33.542 -20.129 -20.257  0.00  0.00    +0.216 C 
ATOM     17  C   UNL     1      34.370 -18.672 -21.590  0.00  0.00    +0.277 C 
ATOM     18  C   UNL     1      32.469 -20.800 -19.518  0.00  0.00    +0.055 C 
BRANCH  17  19
ATOM     19  C   UNL     1      34.281 -17.551 -22.483  0.00  0.00    +0.066 C 
ATOM     20  C   UNL     1      34.615 -16.269 -22.036  0.00  0.00    +0.006 C 
ATOM     21  C   UNL     1      33.858 -17.734 -23.802  0.00  0.00    +0.006 C 
ATOM     22  C   UNL     1      34.529 -15.179 -22.902  0.00  0.00    +0.000 C 
ATOM     23  C   UNL     1      33.772 -16.643 -24.669  0.00  0.00    +0.000 C 
ATOM     24  C   UNL     1      34.107 -15.367 -24.219  0.00  0.00    +0.000 C 
ENDBRANCH  17  19
ENDBRANCH  12  15
ENDBRANCH  11  12
ENDBRANCH  10  11
ENDBRANCH   5  10
BRANCH   2  25
ATOM     25  C   UNL     1      37.335 -23.564 -12.556  0.00  0.00    +0.068 C 
BRANCH  25  26
ATOM     26  C   UNL     1      38.054 -24.907 -12.741  0.00  0.00    +0.218 C 
BRANCH  26  27
ATOM     27  O   UNL     1      38.600 -24.952 -14.055  0.00  0.00    -0.342 OA
ATOM     28  C   UNL     1      39.988 -25.254 -14.032  0.00  0.00    +0.175 C 
ENDBRANCH  26  27
BRANCH  26  30
ATOM     29  O   UNL     1      36.859 -26.890 -13.485  0.00  0.00    -0.248 OA
ATOM     30  C   UNL     1      37.090 -26.069 -12.608  0.00  0.00    +0.342 C 
BRANCH  30  31
ATOM     31  O   UNL     1      36.509 -26.114 -11.381  0.00  0.00    -0.479 OA
ATOM     32  H   UNL     1      35.639 -25.785 -11.262  0.00  0.00    +0.295 HD
ENDBRANCH  30  31
ENDBRANCH  26  30
ENDBRANCH  25  26
ENDBRANCH   2  25
TORSDOF 10
ENDMDL
MODEL 7
REMARK VINA RESULT:     -11.2      2.983      4.973
REMARK  Name = 10274777
REMARK  10 active torsions:
REMARK  status: ('A' for Active; 'I' for Inactive)
REMARK    1  A    between atoms: C_2  and  C_25
REMARK    2  A    between atoms: C_5  and  O_10
REMARK    3  A    between atoms: O_10  and  C_11
REMARK    4  A    between atoms: C_11  and  C_12
REMARK    5  A    between atoms: C_12  and  C_15
REMARK    6  A    between atoms: C_17  and  C_19
REMARK    7  A    between atoms: C_25  and  C_26
REMARK    8  A    between atoms: C_26  and  O_27
REMARK    9  A    between atoms: C_26  and  C_30
REMARK   10  A    between atoms: C_30  and  O_31
REMARK                            x       y       z     vdW  Elec       q    Type
REMARK                         _______ _______ _______ _____ _____    ______ ____
ROOT
ATOM      1  S   UNL     1      34.253 -24.141 -14.521  0.00  0.00    -0.087 S 
ATOM      2  C   UNL     1      36.873 -23.173 -14.809  0.00  0.00    -0.013 C 
ATOM      3  C   UNL     1      35.521 -23.192 -15.202  0.00  0.00    +0.029 C 
ATOM      4  C   UNL     1      35.052 -22.392 -16.248  0.00  0.00    +0.040 C 
ATOM      5  C   UNL     1      35.976 -21.551 -16.913  0.00  0.00    +0.139 C 
ATOM      6  C   UNL     1      37.760 -22.332 -15.485  0.00  0.00    -0.001 C 
ATOM      7  C   UNL     1      37.318 -21.529 -16.527  0.00  0.00    +0.037 C 
ATOM      8  C   UNL     1      33.645 -22.587 -16.460  0.00  0.00    +0.010 C 
ATOM      9  C   UNL     1      33.095 -23.503 -15.596  0.00  0.00    +0.036 C 
ENDROOT
BRANCH   5  10
ATOM     10  O   UNL     1      35.577 -20.742 -17.948  0.00  0.00    -0.475 OA
BRANCH  10  11
ATOM     11  C   UNL     1      35.770 -21.247 -19.263  0.00  0.00    +0.213 C 
BRANCH  11  12
ATOM     12  C   UNL     1      36.343 -20.151 -20.157  0.00  0.00    +0.105 C 
BRANCH  12  15
ATOM     13  O   UNL     1      33.463 -18.091 -21.045  0.00  0.00    -0.449 OA
ATOM     14  N   UNL     1      35.710 -17.877 -20.893  0.00  0.00    -0.373 NA
ATOM     15  C   UNL     1      35.317 -19.131 -20.559  0.00  0.00    +0.134 C 
ATOM     16  C   UNL     1      33.976 -19.287 -20.641  0.00  0.00    +0.216 C 
ATOM     17  C   UNL     1      34.563 -17.299 -21.174  0.00  0.00    +0.277 C 
ATOM     18  C   UNL     1      33.024 -20.378 -20.409  0.00  0.00    +0.055 C 
BRANCH  17  19
ATOM     19  C   UNL     1      34.301 -15.953 -21.599  0.00  0.00    +0.066 C 
ATOM     20  C   UNL     1      34.386 -15.614 -22.953  0.00  0.00    +0.006 C 
ATOM     21  C   UNL     1      33.961 -14.973 -20.663  0.00  0.00    +0.006 C 
ATOM     22  C   UNL     1      34.131 -14.307 -23.367  0.00  0.00    +0.000 C 
ATOM     23  C   UNL     1      33.706 -13.665 -21.077  0.00  0.00    +0.000 C 
ATOM     24  C   UNL     1      33.792 -13.332 -22.428  0.00  0.00    +0.000 C 
ENDBRANCH  17  19
ENDBRANCH  12  15
ENDBRANCH  11  12
ENDBRANCH  10  11
ENDBRANCH   5  10
BRANCH   2  25
ATOM     25  C   UNL     1      37.404 -24.016 -13.693  0.00  0.00    +0.068 C 
BRANCH  25  26
ATOM     26  C   UNL     1      38.084 -25.297 -14.197  0.00  0.00    +0.218 C 
BRANCH  26  27
ATOM     27  O   UNL     1      37.668 -26.383 -13.378  0.00  0.00    -0.342 OA
ATOM     28  C   UNL     1      36.971 -25.930 -12.226  0.00  0.00    +0.175 C 
ENDBRANCH  26  27
BRANCH  26  30
ATOM     29  O   UNL     1      40.245 -24.186 -14.315  0.00  0.00    -0.248 OA
ATOM     30  C   UNL     1      39.592 -25.196 -14.087  0.00  0.00    +0.342 C 
BRANCH  30  31
ATOM     31  O   UNL     1      40.156 -26.364 -13.683  0.00  0.00    -0.479 OA
ATOM     32  H   UNL     1      40.619 -26.403 -12.869  0.00  0.00    +0.295 HD
ENDBRANCH  30  31
ENDBRANCH  26  30
ENDBRANCH  25  26
ENDBRANCH   2  25
TORSDOF 10
ENDMDL
MODEL 8
REMARK VINA RESULT:     -11.0      2.793      4.867
REMARK  Name = 10274777
REMARK  10 active torsions:
REMARK  status: ('A' for Active; 'I' for Inactive)
REMARK    1  A    between atoms: C_2  and  C_25
REMARK    2  A    between atoms: C_5  and  O_10
REMARK    3  A    between atoms: O_10  and  C_11
REMARK    4  A    between atoms: C_11  and  C_12
REMARK    5  A    between atoms: C_12  and  C_15
REMARK    6  A    between atoms: C_17  and  C_19
REMARK    7  A    between atoms: C_25  and  C_26
REMARK    8  A    between atoms: C_26  and  O_27
REMARK    9  A    between atoms: C_26  and  C_30
REMARK   10  A    between atoms: C_30  and  O_31
REMARK                            x       y       z     vdW  Elec       q    Type
REMARK                         _______ _______ _______ _____ _____    ______ ____
ROOT
ATOM      1  S   UNL     1      30.460 -24.017 -13.150  0.00  0.00    -0.087 S 
ATOM      2  C   UNL     1      33.088 -23.486 -13.986  0.00  0.00    -0.013 C 
ATOM      3  C   UNL     1      31.705 -23.545 -14.246  0.00  0.00    +0.029 C 
ATOM      4  C   UNL     1      31.181 -23.206 -15.496  0.00  0.00    +0.040 C 
ATOM      5  C   UNL     1      32.080 -22.795 -16.509  0.00  0.00    +0.139 C 
ATOM      6  C   UNL     1      33.949 -23.077 -15.006  0.00  0.00    -0.001 C 
ATOM      7  C   UNL     1      33.452 -22.735 -16.256  0.00  0.00    +0.037 C 
ATOM      8  C   UNL     1      29.752 -23.346 -15.516  0.00  0.00    +0.010 C 
ATOM      9  C   UNL     1      29.240 -23.776 -14.315  0.00  0.00    +0.036 C 
ENDROOT
BRANCH   5  10
ATOM     10  O   UNL     1      31.627 -22.449 -17.758  0.00  0.00    -0.475 OA
BRANCH  10  11
ATOM     11  C   UNL     1      32.217 -21.301 -18.354  0.00  0.00    +0.213 C 
BRANCH  11  12
ATOM     12  C   UNL     1      33.171 -21.730 -19.465  0.00  0.00    +0.105 C 
BRANCH  12  15
ATOM     13  O   UNL     1      35.462 -19.107 -20.559  0.00  0.00    -0.449 OA
ATOM     14  N   UNL     1      33.343 -19.781 -20.976  0.00  0.00    -0.373 NA
ATOM     15  C   UNL     1      33.935 -20.579 -20.055  0.00  0.00    +0.134 C 
ATOM     16  C   UNL     1      35.205 -20.199 -19.786  0.00  0.00    +0.216 C 
ATOM     17  C   UNL     1      34.300 -18.919 -21.243  0.00  0.00    +0.277 C 
ATOM     18  C   UNL     1      36.285 -20.667 -18.911  0.00  0.00    +0.055 C 
BRANCH  17  19
ATOM     19  C   UNL     1      34.297 -17.806 -22.151  0.00  0.00    +0.066 C 
ATOM     20  C   UNL     1      33.955 -17.996 -23.493  0.00  0.00    +0.006 C 
ATOM     21  C   UNL     1      34.638 -16.529 -21.699  0.00  0.00    +0.006 C 
ATOM     22  C   UNL     1      33.953 -16.916 -24.376  0.00  0.00    +0.000 C 
ATOM     23  C   UNL     1      34.636 -15.449 -22.583  0.00  0.00    +0.000 C 
ATOM     24  C   UNL     1      34.294 -15.642 -23.921  0.00  0.00    +0.000 C 
ENDBRANCH  17  19
ENDBRANCH  12  15
ENDBRANCH  11  12
ENDBRANCH  10  11
ENDBRANCH   5  10
BRANCH   2  25
ATOM     25  C   UNL     1      33.678 -23.842 -12.658  0.00  0.00    +0.068 C 
BRANCH  25  26
ATOM     26  C   UNL     1      35.204 -23.676 -12.629  0.00  0.00    +0.218 C 
BRANCH  26  27
ATOM     27  O   UNL     1      35.795 -24.814 -13.245  0.00  0.00    -0.342 OA
ATOM     28  C   UNL     1      37.046 -24.495 -13.837  0.00  0.00    +0.175 C 
ENDBRANCH  26  27
BRANCH  26  30
ATOM     29  O   UNL     1      35.553 -24.473 -10.358  0.00  0.00    -0.248 OA
ATOM     30  C   UNL     1      35.721 -23.607 -11.206  0.00  0.00    +0.342 C 
BRANCH  30  31
ATOM     31  O   UNL     1      36.423 -22.469 -10.971  0.00  0.00    -0.479 OA
ATOM     32  H   UNL     1      35.971 -21.674 -10.762  0.00  0.00    +0.295 HD
ENDBRANCH  30  31
ENDBRANCH  26  30
ENDBRANCH  25  26
ENDBRANCH   2  25
TORSDOF 10
ENDMDL
MODEL 9
REMARK VINA RESULT:     -10.9      4.583     11.458
REMARK  Name = 10274777
REMARK  10 active torsions:
REMARK  status: ('A' for Active; 'I' for Inactive)
REMARK    1  A    between atoms: C_2  and  C_25
REMARK    2  A    between atoms: C_5  and  O_10
REMARK    3  A    between atoms: O_10  and  C_11
REMARK    4  A    between atoms: C_11  and  C_12
REMARK    5  A    between atoms: C_12  and  C_15
REMARK    6  A    between atoms: C_17  and  C_19
REMARK    7  A    between atoms: C_25  and  C_26
REMARK    8  A    between atoms: C_26  and  O_27
REMARK    9  A    between atoms: C_26  and  C_30
REMARK   10  A    between atoms: C_30  and  O_31
REMARK                            x       y       z     vdW  Elec       q    Type
REMARK                         _______ _______ _______ _____ _____    ______ ____
ROOT
ATOM      1  S   UNL     1      31.323 -10.688 -20.554  0.00  0.00    -0.087 S 
ATOM      2  C   UNL     1      32.200 -10.460 -23.212  0.00  0.00    -0.013 C 
ATOM      3  C   UNL     1      31.988 -11.228 -22.051  0.00  0.00    +0.029 C 
ATOM      4  C   UNL     1      32.319 -12.585 -22.000  0.00  0.00    +0.040 C 
ATOM      5  C   UNL     1      32.879 -13.180 -23.156  0.00  0.00    +0.139 C 
ATOM      6  C   UNL     1      32.753 -11.077 -24.336  0.00  0.00    -0.001 C 
ATOM      7  C   UNL     1      33.090 -12.423 -24.311  0.00  0.00    +0.037 C 
ATOM      8  C   UNL     1      32.013 -13.147 -20.715  0.00  0.00    +0.010 C 
ATOM      9  C   UNL     1      31.471 -12.231 -19.845  0.00  0.00    +0.036 C 
ENDROOT
BRANCH   5  10
ATOM     10  O   UNL     1      33.225 -14.509 -23.170  0.00  0.00    -0.475 OA
BRANCH  10  11
ATOM     11  C   UNL     1      34.211 -14.920 -22.233  0.00  0.00    +0.213 C 
BRANCH  11  12
ATOM     12  C   UNL     1      35.044 -16.054 -22.825  0.00  0.00    +0.105 C 
BRANCH  12  15
ATOM     13  O   UNL     1      33.620 -19.387 -22.389  0.00  0.00    -0.449 OA
ATOM     14  N   UNL     1      34.792 -17.879 -21.177  0.00  0.00    -0.373 NA
ATOM     15  C   UNL     1      34.546 -17.413 -22.425  0.00  0.00    +0.134 C 
ATOM     16  C   UNL     1      33.846 -18.296 -23.174  0.00  0.00    +0.216 C 
ATOM     17  C   UNL     1      34.217 -19.060 -21.209  0.00  0.00    +0.277 C 
ATOM     18  C   UNL     1      33.315 -18.335 -24.540  0.00  0.00    +0.055 C 
BRANCH  17  19
ATOM     19  C   UNL     1      34.126 -20.059 -20.181  0.00  0.00    +0.066 C 
ATOM     20  C   UNL     1      35.288 -20.574 -19.597  0.00  0.00    +0.006 C 
ATOM     21  C   UNL     1      32.878 -20.524 -19.759  0.00  0.00    +0.006 C 
ATOM     22  C   UNL     1      35.201 -21.544 -18.600  0.00  0.00    +0.000 C 
ATOM     23  C   UNL     1      32.791 -21.494 -18.761  0.00  0.00    +0.000 C 
ATOM     24  C   UNL     1      33.952 -22.005 -18.181  0.00  0.00    +0.000 C 
ENDBRANCH  17  19
ENDBRANCH  12  15
ENDBRANCH  11  12
ENDBRANCH  10  11
ENDBRANCH   5  10
BRANCH   2  25
ATOM     25  C   UNL     1      31.854  -9.007 -23.296  0.00  0.00    +0.068 C 
BRANCH  25  26
ATOM     26  C   UNL     1      32.906  -8.113 -22.625  0.00  0.00    +0.218 C 
BRANCH  26  27
ATOM     27  O   UNL     1      32.265  -6.932 -22.157  0.00  0.00    -0.342 OA
ATOM     28  C   UNL     1      30.857  -6.999 -22.334  0.00  0.00    +0.175 C 
ENDBRANCH  26  27
BRANCH  26  30
ATOM     29  O   UNL     1      33.921  -6.693 -24.320  0.00  0.00    -0.248 OA
ATOM     30  C   UNL     1      33.976  -7.690 -23.612  0.00  0.00    +0.342 C 
BRANCH  30  31
ATOM     31  O   UNL     1      35.034  -8.542 -23.616  0.00  0.00    -0.479 OA
ATOM     32  H   UNL     1      35.457  -8.759 -24.425  0.00  0.00    +0.295 HD
ENDBRANCH  30  31
ENDBRANCH  26  30
ENDBRANCH  25  26
ENDBRANCH   2  25
TORSDOF 10
ENDMDL
