MODEL 1
REMARK VINA RESULT:     -11.9      0.000      0.000
REMARK  Name = 9819610
REMARK  4 active torsions:
REMARK  status: ('A' for Active; 'I' for Inactive)
REMARK    1  A    between atoms: C_1  and  C_11
REMARK    2  A    between atoms: C_2  and  N_17
REMARK    3  A    between atoms: C_3  and  S_20
REMARK    4  A    between atoms: S_20  and  C_24
REMARK                            x       y       z     vdW  Elec       q    Type
REMARK                         _______ _______ _______ _____ _____    ______ ____
ROOT
ATOM      1  C   UNL     1      34.341 -20.917 -19.162  0.00  0.00    +0.067 C 
ATOM      2  C   UNL     1      32.955 -20.987 -19.293  0.00  0.00    +0.046 C 
ATOM      3  C   UNL     1      34.446 -19.426 -21.059  0.00  0.00    +0.032 C 
ATOM      4  C   UNL     1      35.087 -20.136 -20.045  0.00  0.00    +0.012 C 
ATOM      5  C   UNL     1      32.313 -20.277 -20.309  0.00  0.00    +0.015 C 
ATOM      6  C   UNL     1      33.058 -19.497 -21.191  0.00  0.00    +0.008 C 
ENDROOT
BRANCH   1  11
ATOM      7  S   UNL     1      33.362 -23.281 -14.883  0.00  0.00    -0.060 S 
ATOM      8  O   UNL     1      36.272 -21.768 -18.184  0.00  0.00    -0.270 OA
ATOM      9  N   UNL     1      34.238 -22.137 -17.074  0.00  0.00    -0.251 N 
ATOM     10  N   UNL     1      35.840 -23.189 -15.613  0.00  0.00    -0.388 NA
ATOM     11  C   UNL     1      35.040 -21.647 -18.111  0.00  0.00    +0.253 C 
ATOM     12  C   UNL     1      34.636 -22.854 -15.918  0.00  0.00    +0.213 C 
ATOM     13  C   UNL     1      35.782 -23.871 -14.414  0.00  0.00    +0.101 C 
ATOM     14  C   UNL     1      34.526 -24.022 -13.865  0.00  0.00    +0.120 C 
ATOM     15  C   UNL     1      37.043 -24.374 -13.831  0.00  0.00    +0.063 C 
ATOM     16  H   UNL     1      33.273 -21.960 -17.157  0.00  0.00    +0.158 HD
ENDBRANCH   1  11
BRANCH   2  17
ATOM     17  N   UNL     1      32.181 -21.772 -18.410  0.00  0.00    -0.357 N 
ATOM     18  H   UNL     1      31.200 -21.688 -18.407  0.00  0.00    +0.142 HD
ATOM     19  H   UNL     1      32.623 -22.403 -17.797  0.00  0.00    +0.142 HD
ENDBRANCH   2  17
BRANCH   3  20
ATOM     20  S   UNL     1      35.397 -18.429 -22.189  0.00  0.00    -0.051 S 
BRANCH  20  24
ATOM     21  N   UNL     1      34.360 -15.942 -22.582  0.00  0.00    -0.246 N 
ATOM     22  N   UNL     1      34.718 -16.424 -20.478  0.00  0.00    -0.124 NA
ATOM     23  N   UNL     1      34.196 -15.148 -20.550  0.00  0.00    -0.128 NA
ATOM     24  C   UNL     1      34.793 -16.840 -21.692  0.00  0.00    +0.189 C 
ATOM     25  C   UNL     1      34.278 -16.017 -24.021  0.00  0.00    +0.121 C 
ATOM     26  C   UNL     1      33.987 -14.878 -21.819  0.00  0.00    +0.193 C 
ENDBRANCH  20  24
ENDBRANCH   3  20
TORSDOF 4
ENDMDL
MODEL 2
REMARK VINA RESULT:     -11.5      1.422      1.522
REMARK  Name = 9819610
REMARK  4 active torsions:
REMARK  status: ('A' for Active; 'I' for Inactive)
REMARK    1  A    between atoms: C_1  and  C_11
REMARK    2  A    between atoms: C_2  and  N_17
REMARK    3  A    between atoms: C_3  and  S_20
REMARK    4  A    between atoms: S_20  and  C_24
REMARK                            x       y       z     vdW  Elec       q    Type
REMARK                         _______ _______ _______ _____ _____    ______ ____
ROOT
ATOM      1  C   UNL     1      33.755 -21.414 -18.702  0.00  0.00    +0.067 C 
ATOM      2  C   UNL     1      32.412 -21.096 -18.900  0.00  0.00    +0.046 C 
ATOM      3  C   UNL     1      34.377 -19.886 -20.467  0.00  0.00    +0.032 C 
ATOM      4  C   UNL     1      34.738 -20.810 -19.485  0.00  0.00    +0.012 C 
ATOM      5  C   UNL     1      32.051 -20.174 -19.883  0.00  0.00    +0.015 C 
ATOM      6  C   UNL     1      33.033 -19.569 -20.665  0.00  0.00    +0.008 C 
ENDROOT
BRANCH   1  11
ATOM      7  S   UNL     1      37.238 -21.960 -15.177  0.00  0.00    -0.060 S 
ATOM      8  O   UNL     1      33.534 -23.437 -17.576  0.00  0.00    -0.270 OA
ATOM      9  N   UNL     1      35.274 -22.009 -16.914  0.00  0.00    -0.251 N 
ATOM     10  N   UNL     1      35.559 -23.906 -15.455  0.00  0.00    -0.388 NA
ATOM     11  C   UNL     1      34.163 -22.374 -17.683  0.00  0.00    +0.253 C 
ATOM     12  C   UNL     1      35.907 -22.742 -15.880  0.00  0.00    +0.213 C 
ATOM     13  C   UNL     1      36.435 -24.252 -14.447  0.00  0.00    +0.101 C 
ATOM     14  C   UNL     1      37.413 -23.324 -14.152  0.00  0.00    +0.120 C 
ATOM     15  C   UNL     1      36.258 -25.557 -13.779  0.00  0.00    +0.063 C 
ATOM     16  H   UNL     1      35.668 -21.130 -17.118  0.00  0.00    +0.158 HD
ENDBRANCH   1  11
BRANCH   2  17
ATOM     17  N   UNL     1      31.401 -21.697 -18.119  0.00  0.00    -0.357 N 
ATOM     18  H   UNL     1      31.624 -22.094 -17.245  0.00  0.00    +0.142 HD
ATOM     19  H   UNL     1      30.472 -21.719 -18.446  0.00  0.00    +0.142 HD
ENDBRANCH   2  17
BRANCH   3  20
ATOM     20  S   UNL     1      35.632 -19.114 -21.469  0.00  0.00    -0.051 S 
BRANCH  20  24
ATOM     21  N   UNL     1      34.489 -16.891 -22.548  0.00  0.00    -0.246 N 
ATOM     22  N   UNL     1      34.945 -16.699 -20.416  0.00  0.00    -0.124 NA
ATOM     23  N   UNL     1      34.372 -15.519 -20.847  0.00  0.00    -0.128 NA
ATOM     24  C   UNL     1      34.989 -17.464 -21.449  0.00  0.00    +0.189 C 
ATOM     25  C   UNL     1      34.356 -17.402 -23.891  0.00  0.00    +0.121 C 
ATOM     26  C   UNL     1      34.106 -15.653 -22.126  0.00  0.00    +0.193 C 
ENDBRANCH  20  24
ENDBRANCH   3  20
TORSDOF 4
ENDMDL
MODEL 3
REMARK VINA RESULT:     -11.2      2.398      8.532
REMARK  Name = 9819610
REMARK  4 active torsions:
REMARK  status: ('A' for Active; 'I' for Inactive)
REMARK    1  A    between atoms: C_1  and  C_11
REMARK    2  A    between atoms: C_2  and  N_17
REMARK    3  A    between atoms: C_3  and  S_20
REMARK    4  A    between atoms: S_20  and  C_24
REMARK                            x       y       z     vdW  Elec       q    Type
REMARK                         _______ _______ _______ _____ _____    ______ ____
ROOT
ATOM      1  C   UNL     1      33.944 -21.838 -17.840  0.00  0.00    +0.067 C 
ATOM      2  C   UNL     1      32.874 -22.376 -17.126  0.00  0.00    +0.046 C 
ATOM      3  C   UNL     1      35.450 -22.467 -16.060  0.00  0.00    +0.032 C 
ATOM      4  C   UNL     1      35.232 -21.883 -17.307  0.00  0.00    +0.012 C 
ATOM      5  C   UNL     1      33.092 -22.959 -15.877  0.00  0.00    +0.015 C 
ATOM      6  C   UNL     1      34.379 -23.006 -15.345  0.00  0.00    +0.008 C 
ENDROOT
BRANCH   1  11
ATOM      7  S   UNL     1      36.187 -18.582 -20.878  0.00  0.00    -0.060 S 
ATOM      8  O   UNL     1      32.729 -21.502 -19.795  0.00  0.00    -0.270 OA
ATOM      9  N   UNL     1      34.744 -20.324 -19.552  0.00  0.00    -0.251 N 
ATOM     10  N   UNL     1      33.941 -19.568 -21.695  0.00  0.00    -0.388 NA
ATOM     11  C   UNL     1      33.749 -21.221 -19.147  0.00  0.00    +0.253 C 
ATOM     12  C   UNL     1      34.811 -19.565 -20.746  0.00  0.00    +0.213 C 
ATOM     13  C   UNL     1      34.390 -18.693 -22.663  0.00  0.00    +0.101 C 
ATOM     14  C   UNL     1      35.590 -18.064 -22.400  0.00  0.00    +0.120 C 
ATOM     15  C   UNL     1      33.568 -18.506 -23.876  0.00  0.00    +0.063 C 
ATOM     16  H   UNL     1      35.495 -20.205 -18.926  0.00  0.00    +0.158 HD
ENDBRANCH   1  11
BRANCH   2  17
ATOM     17  N   UNL     1      31.562 -22.339 -17.648  0.00  0.00    -0.357 N 
ATOM     18  H   UNL     1      30.917 -21.674 -17.313  0.00  0.00    +0.142 HD
ATOM     19  H   UNL     1      31.292 -22.978 -18.346  0.00  0.00    +0.142 HD
ENDBRANCH   2  17
BRANCH   3  20
ATOM     20  S   UNL     1      37.095 -22.526 -15.376  0.00  0.00    -0.051 S 
BRANCH  20  24
ATOM     21  N   UNL     1      36.739 -23.867 -13.034  0.00  0.00    -0.246 N 
ATOM     22  N   UNL     1      36.875 -25.174 -14.784  0.00  0.00    -0.124 NA
ATOM     23  N   UNL     1      36.697 -25.961 -13.664  0.00  0.00    -0.128 NA
ATOM     24  C   UNL     1      36.893 -23.960 -14.358  0.00  0.00    +0.189 C 
ATOM     25  C   UNL     1      36.703 -22.707 -12.177  0.00  0.00    +0.121 C 
ATOM     26  C   UNL     1      36.617 -25.161 -12.626  0.00  0.00    +0.193 C 
ENDBRANCH  20  24
ENDBRANCH   3  20
TORSDOF 4
ENDMDL
MODEL 4
REMARK VINA RESULT:     -11.2      2.619      8.718
REMARK  Name = 9819610
REMARK  4 active torsions:
REMARK  status: ('A' for Active; 'I' for Inactive)
REMARK    1  A    between atoms: C_1  and  C_11
REMARK    2  A    between atoms: C_2  and  N_17
REMARK    3  A    between atoms: C_3  and  S_20
REMARK    4  A    between atoms: S_20  and  C_24
REMARK                            x       y       z     vdW  Elec       q    Type
REMARK                         _______ _______ _______ _____ _____    ______ ____
ROOT
ATOM      1  C   UNL     1      34.825 -18.562 -21.338  0.00  0.00    +0.067 C 
ATOM      2  C   UNL     1      36.164 -18.843 -21.070  0.00  0.00    +0.046 C 
ATOM      3  C   UNL     1      34.155 -20.417 -19.944  0.00  0.00    +0.032 C 
ATOM      4  C   UNL     1      33.820 -19.348 -20.776  0.00  0.00    +0.012 C 
ATOM      5  C   UNL     1      36.499 -19.913 -20.239  0.00  0.00    +0.015 C 
ATOM      6  C   UNL     1      35.495 -20.699 -19.676  0.00  0.00    +0.008 C 
ENDROOT
BRANCH   1  11
ATOM      7  S   UNL     1      33.802 -13.691 -21.036  0.00  0.00    -0.060 S 
ATOM      8  O   UNL     1      34.270 -17.665 -23.412  0.00  0.00    -0.270 OA
ATOM      9  N   UNL     1      34.278 -16.215 -21.567  0.00  0.00    -0.251 N 
ATOM     10  N   UNL     1      33.618 -14.769 -23.379  0.00  0.00    -0.388 NA
ATOM     11  C   UNL     1      34.444 -17.451 -22.203  0.00  0.00    +0.253 C 
ATOM     12  C   UNL     1      33.892 -14.977 -22.139  0.00  0.00    +0.213 C 
ATOM     13  C   UNL     1      33.290 -13.434 -23.506  0.00  0.00    +0.101 C 
ATOM     14  C   UNL     1      33.335 -12.688 -22.346  0.00  0.00    +0.120 C 
ATOM     15  C   UNL     1      32.929 -12.924 -24.844  0.00  0.00    +0.063 C 
ATOM     16  H   UNL     1      34.453 -16.203 -20.598  0.00  0.00    +0.158 HD
ENDBRANCH   1  11
BRANCH   2  17
ATOM     17  N   UNL     1      37.197 -18.059 -21.630  0.00  0.00    -0.357 N 
ATOM     18  H   UNL     1      37.969 -17.794 -21.078  0.00  0.00    +0.142 HD
ATOM     19  H   UNL     1      37.146 -17.778 -22.572  0.00  0.00    +0.142 HD
ENDBRANCH   2  17
BRANCH   3  20
ATOM     20  S   UNL     1      32.873 -21.424 -19.225  0.00  0.00    -0.051 S 
BRANCH  20  24
ATOM     21  N   UNL     1      33.147 -22.523 -16.750  0.00  0.00    -0.246 N 
ATOM     22  N   UNL     1      35.048 -21.969 -17.682  0.00  0.00    -0.124 NA
ATOM     23  N   UNL     1      35.313 -22.511 -16.440  0.00  0.00    -0.128 NA
ATOM     24  C   UNL     1      33.769 -22.000 -17.810  0.00  0.00    +0.189 C 
ATOM     25  C   UNL     1      31.741 -22.733 -16.500  0.00  0.00    +0.121 C 
ATOM     26  C   UNL     1      34.162 -22.837 -15.898  0.00  0.00    +0.193 C 
ENDBRANCH  20  24
ENDBRANCH   3  20
TORSDOF 4
ENDMDL
MODEL 5
REMARK VINA RESULT:     -10.8      3.089      4.774
REMARK  Name = 9819610
REMARK  4 active torsions:
REMARK  status: ('A' for Active; 'I' for Inactive)
REMARK    1  A    between atoms: C_1  and  C_11
REMARK    2  A    between atoms: C_2  and  N_17
REMARK    3  A    between atoms: C_3  and  S_20
REMARK    4  A    between atoms: S_20  and  C_24
REMARK                            x       y       z     vdW  Elec       q    Type
REMARK                         _______ _______ _______ _____ _____    ______ ____
ROOT
ATOM      1  C   UNL     1      34.566 -17.406 -22.527  0.00  0.00    +0.067 C 
ATOM      2  C   UNL     1      34.042 -17.983 -23.683  0.00  0.00    +0.046 C 
ATOM      3  C   UNL     1      34.029 -15.210 -23.378  0.00  0.00    +0.032 C 
ATOM      4  C   UNL     1      34.560 -16.020 -22.374  0.00  0.00    +0.012 C 
ATOM      5  C   UNL     1      33.513 -17.173 -24.689  0.00  0.00    +0.015 C 
ATOM      6  C   UNL     1      33.505 -15.788 -24.536  0.00  0.00    +0.008 C 
ENDROOT
BRANCH   1  11
ATOM      7  S   UNL     1      33.247 -21.172 -19.538  0.00  0.00    -0.060 S 
ATOM      8  O   UNL     1      36.282 -17.996 -21.072  0.00  0.00    -0.270 OA
ATOM      9  N   UNL     1      34.278 -19.208 -20.936  0.00  0.00    -0.251 N 
ATOM     10  N   UNL     1      35.628 -20.219 -19.215  0.00  0.00    -0.388 NA
ATOM     11  C   UNL     1      35.127 -18.225 -21.459  0.00  0.00    +0.253 C 
ATOM     12  C   UNL     1      34.535 -20.126 -19.889  0.00  0.00    +0.213 C 
ATOM     13  C   UNL     1      35.457 -21.236 -18.298  0.00  0.00    +0.101 C 
ATOM     14  C   UNL     1      34.233 -21.871 -18.322  0.00  0.00    +0.120 C 
ATOM     15  C   UNL     1      36.575 -21.555 -17.387  0.00  0.00    +0.063 C 
ATOM     16  H   UNL     1      33.386 -19.269 -21.349  0.00  0.00    +0.158 HD
ENDBRANCH   1  11
BRANCH   2  17
ATOM     17  N   UNL     1      34.040 -19.384 -23.858  0.00  0.00    -0.357 N 
ATOM     18  H   UNL     1      34.107 -19.768 -24.763  0.00  0.00    +0.142 HD
ATOM     19  H   UNL     1      33.972 -19.978 -23.076  0.00  0.00    +0.142 HD
ENDBRANCH   2  17
BRANCH   3  20
ATOM     20  S   UNL     1      34.020 -13.439 -23.186  0.00  0.00    -0.051 S 
BRANCH  20  24
ATOM     21  N   UNL     1      32.132 -12.322 -21.573  0.00  0.00    -0.246 N 
ATOM     22  N   UNL     1      32.920 -14.221 -20.822  0.00  0.00    -0.124 NA
ATOM     23  N   UNL     1      31.977 -13.755 -19.927  0.00  0.00    -0.128 NA
ATOM     24  C   UNL     1      32.970 -13.346 -21.763  0.00  0.00    +0.189 C 
ATOM     25  C   UNL     1      31.888 -11.152 -22.381  0.00  0.00    +0.121 C 
ATOM     26  C   UNL     1      31.517 -12.617 -20.394  0.00  0.00    +0.193 C 
ENDBRANCH  20  24
ENDBRANCH   3  20
TORSDOF 4
ENDMDL
MODEL 6
REMARK VINA RESULT:     -10.8      4.362      8.070
REMARK  Name = 9819610
REMARK  4 active torsions:
REMARK  status: ('A' for Active; 'I' for Inactive)
REMARK    1  A    between atoms: C_1  and  C_11
REMARK    2  A    between atoms: C_2  and  N_17
REMARK    3  A    between atoms: C_3  and  S_20
REMARK    4  A    between atoms: S_20  and  C_24
REMARK                            x       y       z     vdW  Elec       q    Type
REMARK                         _______ _______ _______ _____ _____    ______ ____
ROOT
ATOM      1  C   UNL     1      33.917 -21.995 -17.170  0.00  0.00    +0.067 C 
ATOM      2  C   UNL     1      34.692 -21.477 -18.207  0.00  0.00    +0.046 C 
ATOM      3  C   UNL     1      35.908 -22.306 -15.838  0.00  0.00    +0.032 C 
ATOM      4  C   UNL     1      34.525 -22.410 -15.985  0.00  0.00    +0.012 C 
ATOM      5  C   UNL     1      36.076 -21.374 -18.060  0.00  0.00    +0.015 C 
ATOM      6  C   UNL     1      36.683 -21.788 -16.876  0.00  0.00    +0.008 C 
ENDROOT
BRANCH   1  11
ATOM      7  S   UNL     1      29.968 -23.316 -14.428  0.00  0.00    -0.060 S 
ATOM      8  O   UNL     1      31.937 -21.852 -18.382  0.00  0.00    -0.270 OA
ATOM      9  N   UNL     1      31.795 -22.554 -16.148  0.00  0.00    -0.251 N 
ATOM     10  N   UNL     1      29.499 -22.629 -16.876  0.00  0.00    -0.388 NA
ATOM     11  C   UNL     1      32.469 -22.116 -17.293  0.00  0.00    +0.253 C 
ATOM     12  C   UNL     1      30.408 -22.785 -15.978  0.00  0.00    +0.213 C 
ATOM     13  C   UNL     1      28.292 -22.963 -16.296  0.00  0.00    +0.101 C 
ATOM     14  C   UNL     1      28.344 -23.359 -14.976  0.00  0.00    +0.120 C 
ATOM     15  C   UNL     1      27.069 -22.870 -17.120  0.00  0.00    +0.063 C 
ATOM     16  H   UNL     1      32.357 -22.723 -15.357  0.00  0.00    +0.158 HD
ENDBRANCH   1  11
BRANCH   2  17
ATOM     17  N   UNL     1      34.096 -21.052 -19.415  0.00  0.00    -0.357 N 
ATOM     18  H   UNL     1      34.538 -20.367 -19.968  0.00  0.00    +0.142 HD
ATOM     19  H   UNL     1      33.240 -21.441 -19.705  0.00  0.00    +0.142 HD
ENDBRANCH   2  17
BRANCH   3  20
ATOM     20  S   UNL     1      36.687 -22.836 -14.325  0.00  0.00    -0.051 S 
BRANCH  20  24
ATOM     21  N   UNL     1      37.627 -25.388 -14.208  0.00  0.00    -0.246 N 
ATOM     22  N   UNL     1      35.698 -25.207 -15.226  0.00  0.00    -0.124 NA
ATOM     23  N   UNL     1      36.069 -26.537 -15.229  0.00  0.00    -0.128 NA
ATOM     24  C   UNL     1      36.643 -24.582 -14.618  0.00  0.00    +0.189 C 
ATOM     25  C   UNL     1      38.848 -25.089 -13.500  0.00  0.00    +0.121 C 
ATOM     26  C   UNL     1      37.226 -26.625 -14.614  0.00  0.00    +0.193 C 
ENDBRANCH  20  24
ENDBRANCH   3  20
TORSDOF 4
ENDMDL
MODEL 7
REMARK VINA RESULT:     -10.7      2.416      3.281
REMARK  Name = 9819610
REMARK  4 active torsions:
REMARK  status: ('A' for Active; 'I' for Inactive)
REMARK    1  A    between atoms: C_1  and  C_11
REMARK    2  A    between atoms: C_2  and  N_17
REMARK    3  A    between atoms: C_3  and  S_20
REMARK    4  A    between atoms: S_20  and  C_24
REMARK                            x       y       z     vdW  Elec       q    Type
REMARK                         _______ _______ _______ _____ _____    ______ ____
ROOT
ATOM      1  C   UNL     1      33.986 -20.210 -19.874  0.00  0.00    +0.067 C 
ATOM      2  C   UNL     1      35.279 -20.586 -19.509  0.00  0.00    +0.046 C 
ATOM      3  C   UNL     1      34.889 -18.775 -21.594  0.00  0.00    +0.032 C 
ATOM      4  C   UNL     1      33.790 -19.305 -20.917  0.00  0.00    +0.012 C 
ATOM      5  C   UNL     1      36.377 -20.055 -20.186  0.00  0.00    +0.015 C 
ATOM      6  C   UNL     1      36.182 -19.150 -21.229  0.00  0.00    +0.008 C 
ENDROOT
BRANCH   1  11
ATOM      7  S   UNL     1      32.873 -22.983 -15.882  0.00  0.00    -0.060 S 
ATOM      8  O   UNL     1      31.692 -20.530 -19.657  0.00  0.00    -0.270 OA
ATOM      9  N   UNL     1      33.084 -21.503 -18.037  0.00  0.00    -0.251 N 
ATOM     10  N   UNL     1      30.884 -22.183 -17.327  0.00  0.00    -0.388 NA
ATOM     11  C   UNL     1      32.819 -20.748 -19.186  0.00  0.00    +0.253 C 
ATOM     12  C   UNL     1      32.163 -22.162 -17.186  0.00  0.00    +0.213 C 
ATOM     13  C   UNL     1      30.371 -22.933 -16.288  0.00  0.00    +0.101 C 
ATOM     14  C   UNL     1      31.294 -23.449 -15.402  0.00  0.00    +0.120 C 
ATOM     15  C   UNL     1      28.907 -23.117 -16.210  0.00  0.00    +0.063 C 
ATOM     16  H   UNL     1      34.033 -21.587 -17.788  0.00  0.00    +0.158 HD
ENDBRANCH   1  11
BRANCH   2  17
ATOM     17  N   UNL     1      35.498 -21.501 -18.456  0.00  0.00    -0.357 N 
ATOM     18  H   UNL     1      35.804 -21.176 -17.577  0.00  0.00    +0.142 HD
ATOM     19  H   UNL     1      35.345 -22.463 -18.599  0.00  0.00    +0.142 HD
ENDBRANCH   2  17
BRANCH   3  20
ATOM     20  S   UNL     1      34.641 -17.617 -22.926  0.00  0.00    -0.051 S 
BRANCH  20  24
ATOM     21  N   UNL     1      33.894 -15.035 -22.496  0.00  0.00    -0.246 N 
ATOM     22  N   UNL     1      34.487 -16.093 -20.675  0.00  0.00    -0.124 NA
ATOM     23  N   UNL     1      34.131 -14.804 -20.334  0.00  0.00    -0.128 NA
ATOM     24  C   UNL     1      34.330 -16.173 -21.949  0.00  0.00    +0.189 C 
ATOM     25  C   UNL     1      33.596 -14.712 -23.871  0.00  0.00    +0.121 C 
ATOM     26  C   UNL     1      33.779 -14.185 -21.438  0.00  0.00    +0.193 C 
ENDBRANCH  20  24
ENDBRANCH   3  20
TORSDOF 4
ENDMDL
MODEL 8
REMARK VINA RESULT:     -10.5      5.235      8.481
REMARK  Name = 9819610
REMARK  4 active torsions:
REMARK  status: ('A' for Active; 'I' for Inactive)
REMARK    1  A    between atoms: C_1  and  C_11
REMARK    2  A    between atoms: C_2  and  N_17
REMARK    3  A    between atoms: C_3  and  S_20
REMARK    4  A    between atoms: S_20  and  C_24
REMARK                            x       y       z     vdW  Elec       q    Type
REMARK                         _______ _______ _______ _____ _____    ______ ____
ROOT
ATOM      1  C   UNL     1      34.517 -22.611 -15.890  0.00  0.00    +0.067 C 
ATOM      2  C   UNL     1      35.350 -22.020 -16.840  0.00  0.00    +0.046 C 
ATOM      3  C   UNL     1      36.411 -22.924 -14.424  0.00  0.00    +0.032 C 
ATOM      4  C   UNL     1      35.047 -23.064 -14.682  0.00  0.00    +0.012 C 
ATOM      5  C   UNL     1      36.714 -21.882 -16.583  0.00  0.00    +0.015 C 
ATOM      6  C   UNL     1      37.244 -22.333 -15.375  0.00  0.00    +0.008 C 
ENDROOT
BRANCH   1  11
ATOM      7  S   UNL     1      30.475 -24.483 -13.651  0.00  0.00    -0.060 S 
ATOM      8  O   UNL     1      32.612 -22.369 -17.203  0.00  0.00    -0.270 OA
ATOM      9  N   UNL     1      32.366 -23.400 -15.110  0.00  0.00    -0.251 N 
ATOM     10  N   UNL     1      30.127 -23.459 -15.999  0.00  0.00    -0.388 NA
ATOM     11  C   UNL     1      33.088 -22.770 -16.130  0.00  0.00    +0.253 C 
ATOM     12  C   UNL     1      30.984 -23.710 -15.072  0.00  0.00    +0.213 C 
ATOM     13  C   UNL     1      28.903 -23.923 -15.560  0.00  0.00    +0.101 C 
ATOM     14  C   UNL     1      28.892 -24.508 -14.310  0.00  0.00    +0.120 C 
ATOM     15  C   UNL     1      27.731 -23.758 -16.444  0.00  0.00    +0.063 C 
ATOM     16  H   UNL     1      32.885 -23.662 -14.315  0.00  0.00    +0.158 HD
ENDBRANCH   1  11
BRANCH   2  17
ATOM     17  N   UNL     1      34.832 -21.556 -18.070  0.00  0.00    -0.357 N 
ATOM     18  H   UNL     1      34.235 -22.131 -18.601  0.00  0.00    +0.142 HD
ATOM     19  H   UNL     1      35.068 -20.657 -18.395  0.00  0.00    +0.142 HD
ENDBRANCH   2  17
BRANCH   3  20
ATOM     20  S   UNL     1      37.092 -23.502 -12.882  0.00  0.00    -0.051 S 
BRANCH  20  24
ATOM     21  N   UNL     1      38.223 -25.646 -14.121  0.00  0.00    -0.246 N 
ATOM     22  N   UNL     1      39.666 -24.115 -13.519  0.00  0.00    -0.124 NA
ATOM     23  N   UNL     1      40.352 -25.144 -14.133  0.00  0.00    -0.128 NA
ATOM     24  C   UNL     1      38.428 -24.460 -13.540  0.00  0.00    +0.189 C 
ATOM     25  C   UNL     1      37.000 -26.380 -14.343  0.00  0.00    +0.121 C 
ATOM     26  C   UNL     1      39.471 -26.051 -14.487  0.00  0.00    +0.193 C 
ENDBRANCH  20  24
ENDBRANCH   3  20
TORSDOF 4
ENDMDL
MODEL 9
REMARK VINA RESULT:     -10.2      5.523      8.729
REMARK  Name = 9819610
REMARK  4 active torsions:
REMARK  status: ('A' for Active; 'I' for Inactive)
REMARK    1  A    between atoms: C_1  and  C_11
REMARK    2  A    between atoms: C_2  and  N_17
REMARK    3  A    between atoms: C_3  and  S_20
REMARK    4  A    between atoms: S_20  and  C_24
REMARK                            x       y       z     vdW  Elec       q    Type
REMARK                         _______ _______ _______ _____ _____    ______ ____
ROOT
ATOM      1  C   UNL     1      35.370 -22.988 -15.694  0.00  0.00    +0.067 C 
ATOM      2  C   UNL     1      36.267 -22.148 -16.353  0.00  0.00    +0.046 C 
ATOM      3  C   UNL     1      37.191 -23.935 -14.421  0.00  0.00    +0.032 C 
ATOM      4  C   UNL     1      35.831 -23.882 -14.728  0.00  0.00    +0.012 C 
ATOM      5  C   UNL     1      37.627 -22.202 -16.047  0.00  0.00    +0.015 C 
ATOM      6  C   UNL     1      38.089 -23.095 -15.081  0.00  0.00    +0.008 C 
ENDROOT
BRANCH   1  11
ATOM      7  S   UNL     1      30.994 -22.811 -13.311  0.00  0.00    -0.060 S 
ATOM      8  O   UNL     1      33.578 -22.999 -17.177  0.00  0.00    -0.270 OA
ATOM      9  N   UNL     1      33.091 -22.900 -14.884  0.00  0.00    -0.251 N 
ATOM     10  N   UNL     1      30.902 -22.915 -15.892  0.00  0.00    -0.388 NA
ATOM     11  C   UNL     1      33.943 -22.955 -15.993  0.00  0.00    +0.253 C 
ATOM     12  C   UNL     1      31.674 -22.882 -14.863  0.00  0.00    +0.213 C 
ATOM     13  C   UNL     1      29.602 -22.881 -15.429  0.00  0.00    +0.101 C 
ATOM     14  C   UNL     1      29.451 -22.822 -14.059  0.00  0.00    +0.120 C 
ATOM     15  C   UNL     1      28.504 -22.909 -16.416  0.00  0.00    +0.063 C 
ATOM     16  H   UNL     1      33.532 -22.870 -14.004  0.00  0.00    +0.158 HD
ENDBRANCH   1  11
BRANCH   2  17
ATOM     17  N   UNL     1      35.820 -21.236 -17.335  0.00  0.00    -0.357 N 
ATOM     18  H   UNL     1      34.982 -20.737 -17.198  0.00  0.00    +0.142 HD
ATOM     19  H   UNL     1      36.347 -21.099 -18.155  0.00  0.00    +0.142 HD
ENDBRANCH   2  17
BRANCH   3  20
ATOM     20  S   UNL     1      37.783 -25.077 -13.188  0.00  0.00    -0.051 S 
BRANCH  20  24
ATOM     21  N   UNL     1      36.725 -23.342 -11.376  0.00  0.00    -0.246 N 
ATOM     22  N   UNL     1      35.875 -25.355 -11.267  0.00  0.00    -0.124 NA
ATOM     23  N   UNL     1      35.264 -24.572 -10.308  0.00  0.00    -0.128 NA
ATOM     24  C   UNL     1      36.718 -24.587 -11.860  0.00  0.00    +0.189 C 
ATOM     25  C   UNL     1      37.512 -22.195 -11.758  0.00  0.00    +0.121 C 
ATOM     26  C   UNL     1      35.787 -23.369 -10.389  0.00  0.00    +0.193 C 
ENDBRANCH  20  24
ENDBRANCH   3  20
TORSDOF 4
ENDMDL
