MODEL 1
REMARK VINA RESULT:     -12.3      0.000      0.000
REMARK  Name = 86291103
REMARK  4 active torsions:
REMARK  status: ('A' for Active; 'I' for Inactive)
REMARK    1  A    between atoms: C_3  and  C_19
REMARK    2  A    between atoms: C_4  and  C_13
REMARK    3  A    between atoms: C_19  and  N_20
REMARK    4  A    between atoms: C_19  and  C_33
REMARK                            x       y       z     vdW  Elec       q    Type
REMARK                         _______ _______ _______ _____ _____    ______ ____
ROOT
ATOM      1  O   UNL     1      34.864 -22.379 -16.877  0.00  0.00    -0.456 OA
ATOM      2  O   UNL     1      31.027 -21.612 -17.987  0.00  0.00    -0.286 OA
ATOM      3  C   UNL     1      33.800 -22.814 -16.098  0.00  0.00    +0.143 A 
ATOM      4  C   UNL     1      32.503 -22.596 -16.401  0.00  0.00    +0.071 A 
ATOM      5  C   UNL     1      32.180 -21.846 -17.649  0.00  0.00    +0.201 A 
ATOM      6  C   UNL     1      33.318 -21.395 -18.461  0.00  0.00    +0.074 A 
ATOM      7  C   UNL     1      34.607 -21.687 -18.029  0.00  0.00    +0.148 A 
ATOM      8  C   UNL     1      33.115 -20.684 -19.647  0.00  0.00    +0.006 C 
ATOM      9  C   UNL     1      35.706 -21.270 -18.780  0.00  0.00    +0.038 C 
ATOM     10  C   UNL     1      34.215 -20.268 -20.397  0.00  0.00    +0.000 C 
ATOM     11  C   UNL     1      35.509 -20.560 -19.965  0.00  0.00    +0.003 C 
ENDROOT
BRANCH   4  13
ATOM     12  F   UNL     1      29.426 -26.071 -15.038  0.00  0.00    -0.204 F 
ATOM     13  C   UNL     1      31.417 -23.071 -15.554  0.00  0.00    +0.008 C 
ATOM     14  C   UNL     1      30.931 -24.370 -15.705  0.00  0.00    +0.030 C 
ATOM     15  C   UNL     1      30.862 -22.226 -14.592  0.00  0.00    +0.000 C 
ATOM     16  C   UNL     1      29.891 -24.824 -14.894  0.00  0.00    +0.140 C 
ATOM     17  C   UNL     1      29.822 -22.680 -13.781  0.00  0.00    +0.002 C 
ATOM     18  C   UNL     1      29.337 -23.980 -13.931  0.00  0.00    +0.030 C 
ENDBRANCH   4  13
BRANCH   3  19
ATOM     19  C   UNL     1      34.281 -23.553 -14.879  0.00  0.00    +0.128 C 
BRANCH  19  20
ATOM     20  N   UNL     1      35.724 -23.544 -14.915  0.00  0.00    -0.316 N 
ATOM     21  N   UNL     1      35.940 -25.876 -14.487  0.00  0.00    -0.232 NA
ATOM     22  N   UNL     1      38.789 -23.603 -14.977  0.00  0.00    -0.270 NA
ATOM     23  N   UNL     1      39.996 -25.451 -14.663  0.00  0.00    -0.307 N 
ATOM     24  N   UNL     1      38.120 -26.963 -14.337  0.00  0.00    -0.232 NA
ATOM     25  C   UNL     1      36.507 -24.672 -14.724  0.00  0.00    +0.124 C 
ATOM     26  C   UNL     1      37.884 -24.606 -14.770  0.00  0.00    +0.164 C 
ATOM     27  C   UNL     1      38.658 -25.743 -14.577  0.00  0.00    +0.125 C 
ATOM     28  C   UNL     1      40.040 -24.158 -14.903  0.00  0.00    +0.163 C 
ATOM     29  C   UNL     1      36.769 -26.933 -14.311  0.00  0.00    +0.252 C 
ATOM     30  H   UNL     1      36.179 -22.687 -15.085  0.00  0.00    +0.148 HD
ATOM     31  H   UNL     1      38.581 -22.657 -15.148  0.00  0.00    +0.126 HD
ATOM     32  H   UNL     1      40.755 -26.071 -14.565  0.00  0.00    +0.149 HD
ENDBRANCH  19  20
BRANCH  19  33
ATOM     33  C   UNL     1      33.764 -22.899 -13.597  0.00  0.00    +0.027 C 
ATOM     34  C   UNL     1      33.847 -23.837 -12.399  0.00  0.00    +0.002 C 
ENDBRANCH  19  33
ENDBRANCH   3  19
TORSDOF 4
ENDMDL
MODEL 2
REMARK VINA RESULT:     -12.0      0.927      1.242
REMARK  Name = 86291103
REMARK  4 active torsions:
REMARK  status: ('A' for Active; 'I' for Inactive)
REMARK    1  A    between atoms: C_3  and  C_19
REMARK    2  A    between atoms: C_4  and  C_13
REMARK    3  A    between atoms: C_19  and  N_20
REMARK    4  A    between atoms: C_19  and  C_33
REMARK                            x       y       z     vdW  Elec       q    Type
REMARK                         _______ _______ _______ _____ _____    ______ ____
ROOT
ATOM      1  O   UNL     1      34.912 -22.278 -17.030  0.00  0.00    -0.456 OA
ATOM      2  O   UNL     1      31.183 -21.461 -18.436  0.00  0.00    -0.286 OA
ATOM      3  C   UNL     1      33.785 -22.723 -16.351  0.00  0.00    +0.143 A 
ATOM      4  C   UNL     1      32.518 -22.490 -16.756  0.00  0.00    +0.071 A 
ATOM      5  C   UNL     1      32.304 -21.710 -18.009  0.00  0.00    +0.201 A 
ATOM      6  C   UNL     1      33.507 -21.249 -18.714  0.00  0.00    +0.074 A 
ATOM      7  C   UNL     1      34.754 -21.560 -18.183  0.00  0.00    +0.148 A 
ATOM      8  C   UNL     1      33.407 -20.512 -19.896  0.00  0.00    +0.006 C 
ATOM      9  C   UNL     1      35.914 -21.134 -18.832  0.00  0.00    +0.038 C 
ATOM     10  C   UNL     1      34.567 -20.086 -20.544  0.00  0.00    +0.000 C 
ATOM     11  C   UNL     1      35.820 -20.397 -20.012  0.00  0.00    +0.003 C 
ENDROOT
BRANCH   4  13
ATOM     12  F   UNL     1      28.447 -21.664 -14.276  0.00  0.00    -0.204 F 
ATOM     13  C   UNL     1      31.363 -22.975 -16.012  0.00  0.00    +0.008 C 
ATOM     14  C   UNL     1      30.440 -22.069 -15.489  0.00  0.00    +0.030 C 
ATOM     15  C   UNL     1      31.181 -24.345 -15.821  0.00  0.00    +0.000 C 
ATOM     16  C   UNL     1      29.334 -22.533 -14.777  0.00  0.00    +0.140 C 
ATOM     17  C   UNL     1      30.075 -24.809 -15.109  0.00  0.00    +0.002 C 
ATOM     18  C   UNL     1      29.151 -23.903 -14.587  0.00  0.00    +0.030 C 
ENDBRANCH   4  13
BRANCH   3  19
ATOM     19  C   UNL     1      34.159 -23.492 -15.114  0.00  0.00    +0.128 C 
BRANCH  19  20
ATOM     20  N   UNL     1      35.601 -23.515 -15.045  0.00  0.00    -0.316 N 
ATOM     21  N   UNL     1      35.732 -25.847 -14.579  0.00  0.00    -0.232 NA
ATOM     22  N   UNL     1      38.660 -23.643 -14.883  0.00  0.00    -0.270 NA
ATOM     23  N   UNL     1      39.798 -25.514 -14.463  0.00  0.00    -0.307 N 
ATOM     24  N   UNL     1      37.869 -26.979 -14.260  0.00  0.00    -0.232 NA
ATOM     25  C   UNL     1      36.342 -24.658 -14.787  0.00  0.00    +0.124 C 
ATOM     26  C   UNL     1      37.720 -24.623 -14.732  0.00  0.00    +0.164 C 
ATOM     27  C   UNL     1      38.452 -25.775 -14.472  0.00  0.00    +0.125 C 
ATOM     28  C   UNL     1      39.889 -24.225 -14.713  0.00  0.00    +0.163 C 
ATOM     29  C   UNL     1      36.522 -26.919 -14.332  0.00  0.00    +0.252 C 
ATOM     30  H   UNL     1      36.086 -22.671 -15.190  0.00  0.00    +0.148 HD
ATOM     31  H   UNL     1      38.487 -22.695 -15.079  0.00  0.00    +0.126 HD
ATOM     32  H   UNL     1      40.534 -26.149 -14.305  0.00  0.00    +0.149 HD
ENDBRANCH  19  20
BRANCH  19  33
ATOM     33  C   UNL     1      33.564 -22.846 -13.862  0.00  0.00    +0.027 C 
ATOM     34  C   UNL     1      33.248 -23.873 -12.781  0.00  0.00    +0.002 C 
ENDBRANCH  19  33
ENDBRANCH   3  19
TORSDOF 4
ENDMDL
MODEL 3
REMARK VINA RESULT:     -10.1      3.377      6.977
REMARK  Name = 86291103
REMARK  4 active torsions:
REMARK  status: ('A' for Active; 'I' for Inactive)
REMARK    1  A    between atoms: C_3  and  C_19
REMARK    2  A    between atoms: C_4  and  C_13
REMARK    3  A    between atoms: C_19  and  N_20
REMARK    4  A    between atoms: C_19  and  C_33
REMARK                            x       y       z     vdW  Elec       q    Type
REMARK                         _______ _______ _______ _____ _____    ______ ____
ROOT
ATOM      1  O   UNL     1      32.253 -23.006 -15.973  0.00  0.00    -0.456 OA
ATOM      2  O   UNL     1      32.947 -24.729 -12.354  0.00  0.00    -0.286 OA
ATOM      3  C   UNL     1      33.549 -23.169 -15.502  0.00  0.00    +0.143 A 
ATOM      4  C   UNL     1      33.856 -23.730 -14.313  0.00  0.00    +0.071 A 
ATOM      5  C   UNL     1      32.743 -24.211 -13.445  0.00  0.00    +0.201 A 
ATOM      6  C   UNL     1      31.379 -24.031 -13.960  0.00  0.00    +0.074 A 
ATOM      7  C   UNL     1      31.206 -23.435 -15.204  0.00  0.00    +0.148 A 
ATOM      8  C   UNL     1      30.272 -24.449 -13.217  0.00  0.00    +0.006 C 
ATOM      9  C   UNL     1      29.921 -23.251 -15.717  0.00  0.00    +0.038 C 
ATOM     10  C   UNL     1      28.988 -24.265 -13.731  0.00  0.00    +0.000 C 
ATOM     11  C   UNL     1      28.812 -23.666 -14.979  0.00  0.00    +0.003 C 
ENDROOT
BRANCH   4  13
ATOM     12  F   UNL     1      38.108 -26.036 -14.426  0.00  0.00    -0.204 F 
ATOM     13  C   UNL     1      35.232 -23.881 -13.858  0.00  0.00    +0.008 C 
ATOM     14  C   UNL     1      36.027 -24.907 -14.369  0.00  0.00    +0.030 C 
ATOM     15  C   UNL     1      35.754 -23.001 -12.910  0.00  0.00    +0.000 C 
ATOM     16  C   UNL     1      37.344 -25.053 -13.933  0.00  0.00    +0.140 C 
ATOM     17  C   UNL     1      37.070 -23.146 -12.474  0.00  0.00    +0.002 C 
ATOM     18  C   UNL     1      37.866 -24.172 -12.986  0.00  0.00    +0.030 C 
ENDBRANCH   4  13
BRANCH   3  19
ATOM     19  C   UNL     1      34.558 -22.641 -16.484  0.00  0.00    +0.128 C 
BRANCH  19  20
ATOM     20  N   UNL     1      33.823 -22.023 -17.563  0.00  0.00    -0.316 N 
ATOM     21  N   UNL     1      35.736 -20.980 -18.524  0.00  0.00    -0.232 NA
ATOM     22  N   UNL     1      32.330 -20.679 -19.879  0.00  0.00    -0.270 NA
ATOM     23  N   UNL     1      33.324 -19.407 -21.417  0.00  0.00    -0.307 N 
ATOM     24  N   UNL     1      35.579 -19.600 -20.530  0.00  0.00    -0.232 NA
ATOM     25  C   UNL     1      34.407 -21.227 -18.536  0.00  0.00    +0.124 C 
ATOM     26  C   UNL     1      33.655 -20.661 -19.545  0.00  0.00    +0.164 C 
ATOM     27  C   UNL     1      34.251 -19.865 -20.515  0.00  0.00    +0.125 C 
ATOM     28  C   UNL     1      32.181 -19.914 -21.006  0.00  0.00    +0.163 C 
ATOM     29  C   UNL     1      36.233 -20.194 -19.508  0.00  0.00    +0.252 C 
ATOM     30  H   UNL     1      32.852 -22.176 -17.609  0.00  0.00    +0.148 HD
ATOM     31  H   UNL     1      31.615 -21.154 -19.398  0.00  0.00    +0.126 HD
ATOM     32  H   UNL     1      33.479 -18.828 -22.198  0.00  0.00    +0.149 HD
ENDBRANCH  19  20
BRANCH  19  33
ATOM     33  C   UNL     1      35.500 -21.635 -15.820  0.00  0.00    +0.027 C 
ATOM     34  C   UNL     1      36.965 -21.948 -16.101  0.00  0.00    +0.002 C 
ENDBRANCH  19  33
ENDBRANCH   3  19
TORSDOF 4
ENDMDL
MODEL 4
REMARK VINA RESULT:     -10.1      2.852      5.613
REMARK  Name = 86291103
REMARK  4 active torsions:
REMARK  status: ('A' for Active; 'I' for Inactive)
REMARK    1  A    between atoms: C_3  and  C_19
REMARK    2  A    between atoms: C_4  and  C_13
REMARK    3  A    between atoms: C_19  and  N_20
REMARK    4  A    between atoms: C_19  and  C_33
REMARK                            x       y       z     vdW  Elec       q    Type
REMARK                         _______ _______ _______ _____ _____    ______ ____
ROOT
ATOM      1  O   UNL     1      32.231 -24.311 -14.705  0.00  0.00    -0.456 OA
ATOM      2  O   UNL     1      31.192 -21.737 -17.679  0.00  0.00    -0.286 OA
ATOM      3  C   UNL     1      33.202 -23.711 -15.496  0.00  0.00    +0.143 A 
ATOM      4  C   UNL     1      32.934 -22.849 -16.499  0.00  0.00    +0.071 A 
ATOM      5  C   UNL     1      31.510 -22.510 -16.784  0.00  0.00    +0.201 A 
ATOM      6  C   UNL     1      30.496 -23.153 -15.938  0.00  0.00    +0.074 A 
ATOM      7  C   UNL     1      30.913 -24.024 -14.938  0.00  0.00    +0.148 A 
ATOM      8  C   UNL     1      29.136 -22.898 -16.129  0.00  0.00    +0.006 C 
ATOM      9  C   UNL     1      29.972 -24.649 -14.119  0.00  0.00    +0.038 C 
ATOM     10  C   UNL     1      28.195 -23.524 -15.310  0.00  0.00    +0.000 C 
ATOM     11  C   UNL     1      28.612 -24.399 -14.307  0.00  0.00    +0.003 C 
ENDROOT
BRANCH   4  13
ATOM     12  F   UNL     1      37.303 -20.809 -16.888  0.00  0.00    -0.204 F 
ATOM     13  C   UNL     1      33.986 -22.243 -17.305  0.00  0.00    +0.008 C 
ATOM     14  C   UNL     1      35.164 -21.806 -16.699  0.00  0.00    +0.030 C 
ATOM     15  C   UNL     1      33.814 -22.097 -18.682  0.00  0.00    +0.000 C 
ATOM     16  C   UNL     1      36.171 -21.226 -17.469  0.00  0.00    +0.140 C 
ATOM     17  C   UNL     1      34.821 -21.517 -19.453  0.00  0.00    +0.002 C 
ATOM     18  C   UNL     1      36.000 -21.082 -18.846  0.00  0.00    +0.030 C 
ENDBRANCH   4  13
BRANCH   3  19
ATOM     19  C   UNL     1      34.584 -24.147 -15.089  0.00  0.00    +0.128 C 
BRANCH  19  20
ATOM     20  N   UNL     1      34.582 -24.286 -13.652  0.00  0.00    -0.316 N 
ATOM     21  N   UNL     1      36.417 -22.807 -13.316  0.00  0.00    -0.232 NA
ATOM     22  N   UNL     1      34.642 -24.532 -10.597  0.00  0.00    -0.270 NA
ATOM     23  N   UNL     1      36.100 -23.455  -9.299  0.00  0.00    -0.307 N 
ATOM     24  N   UNL     1      37.281 -22.310 -11.088  0.00  0.00    -0.232 NA
ATOM     25  C   UNL     1      35.473 -23.633 -12.814  0.00  0.00    +0.124 C 
ATOM     26  C   UNL     1      35.426 -23.803 -11.445  0.00  0.00    +0.164 C 
ATOM     27  C   UNL     1      36.323 -23.143 -10.616  0.00  0.00    +0.125 C 
ATOM     28  C   UNL     1      35.084 -24.291  -9.322  0.00  0.00    +0.163 C 
ATOM     29  C   UNL     1      37.251 -22.204 -12.435  0.00  0.00    +0.252 C 
ATOM     30  H   UNL     1      33.911 -24.880 -13.244  0.00  0.00    +0.148 HD
ATOM     31  H   UNL     1      33.897 -25.121 -10.853  0.00  0.00    +0.126 HD
ATOM     32  H   UNL     1      36.591 -23.127  -8.510  0.00  0.00    +0.149 HD
ENDBRANCH  19  20
BRANCH  19  33
ATOM     33  C   UNL     1      34.967 -25.464 -15.764  0.00  0.00    +0.027 C 
ATOM     34  C   UNL     1      36.126 -26.156 -15.057  0.00  0.00    +0.002 C 
ENDBRANCH  19  33
ENDBRANCH   3  19
TORSDOF 4
ENDMDL
MODEL 5
REMARK VINA RESULT:      -9.6      3.471      6.468
REMARK  Name = 86291103
REMARK  4 active torsions:
REMARK  status: ('A' for Active; 'I' for Inactive)
REMARK    1  A    between atoms: C_3  and  C_19
REMARK    2  A    between atoms: C_4  and  C_13
REMARK    3  A    between atoms: C_19  and  N_20
REMARK    4  A    between atoms: C_19  and  C_33
REMARK                            x       y       z     vdW  Elec       q    Type
REMARK                         _______ _______ _______ _____ _____    ______ ____
ROOT
ATOM      1  O   UNL     1      33.713 -22.095 -17.371  0.00  0.00    -0.456 OA
ATOM      2  O   UNL     1      37.643 -21.259 -16.736  0.00  0.00    -0.286 OA
ATOM      3  C   UNL     1      34.350 -22.517 -16.211  0.00  0.00    +0.143 A 
ATOM      4  C   UNL     1      35.649 -22.279 -15.933  0.00  0.00    +0.071 A 
ATOM      5  C   UNL     1      36.460 -21.513 -16.922  0.00  0.00    +0.201 A 
ATOM      6  C   UNL     1      35.770 -21.073 -18.142  0.00  0.00    +0.074 A 
ATOM      7  C   UNL     1      34.426 -21.390 -18.302  0.00  0.00    +0.148 A 
ATOM      8  C   UNL     1      36.447 -20.350 -19.127  0.00  0.00    +0.006 C 
ATOM      9  C   UNL     1      33.746 -20.985 -19.452  0.00  0.00    +0.038 C 
ATOM     10  C   UNL     1      35.766 -19.946 -20.276  0.00  0.00    +0.000 C 
ATOM     11  C   UNL     1      34.417 -20.263 -20.439  0.00  0.00    +0.003 C 
ENDROOT
BRANCH   4  13
ATOM     12  F   UNL     1      38.836 -25.091 -13.623  0.00  0.00    -0.204 F 
ATOM     13  C   UNL     1      36.277 -22.742 -14.702  0.00  0.00    +0.008 C 
ATOM     14  C   UNL     1      37.275 -23.715 -14.752  0.00  0.00    +0.030 C 
ATOM     15  C   UNL     1      35.879 -22.213 -13.474  0.00  0.00    +0.000 C 
ATOM     16  C   UNL     1      37.877 -24.159 -13.575  0.00  0.00    +0.140 C 
ATOM     17  C   UNL     1      36.481 -22.656 -12.296  0.00  0.00    +0.002 C 
ATOM     18  C   UNL     1      37.480 -23.629 -12.347  0.00  0.00    +0.030 C 
ENDBRANCH   4  13
BRANCH   3  19
ATOM     19  C   UNL     1      33.407 -23.272 -15.314  0.00  0.00    +0.128 C 
BRANCH  19  20
ATOM     20  N   UNL     1      32.065 -22.959 -15.744  0.00  0.00    -0.316 N 
ATOM     21  N   UNL     1      31.019 -24.410 -14.173  0.00  0.00    -0.232 NA
ATOM     22  N   UNL     1      29.186 -22.344 -16.601  0.00  0.00    -0.270 NA
ATOM     23  N   UNL     1      27.391 -23.273 -15.660  0.00  0.00    -0.307 N 
ATOM     24  N   UNL     1      28.593 -24.643 -14.051  0.00  0.00    -0.232 NA
ATOM     25  C   UNL     1      30.926 -23.516 -15.183  0.00  0.00    +0.124 C 
ATOM     26  C   UNL     1      29.666 -23.180 -15.633  0.00  0.00    +0.164 C 
ATOM     27  C   UNL     1      28.533 -23.745 -15.063  0.00  0.00    +0.125 C 
ATOM     28  C   UNL     1      27.819 -22.434 -16.580  0.00  0.00    +0.163 C 
ATOM     29  C   UNL     1      29.863 -24.911 -13.676  0.00  0.00    +0.252 C 
ATOM     30  H   UNL     1      31.952 -22.312 -16.478  0.00  0.00    +0.148 HD
ATOM     31  H   UNL     1      29.723 -21.781 -17.203  0.00  0.00    +0.126 HD
ATOM     32  H   UNL     1      26.459 -23.510 -15.448  0.00  0.00    +0.149 HD
ENDBRANCH  19  20
BRANCH  19  33
ATOM     33  C   UNL     1      33.665 -24.778 -15.385  0.00  0.00    +0.027 C 
ATOM     34  C   UNL     1      34.336 -25.306 -14.123  0.00  0.00    +0.002 C 
ENDBRANCH  19  33
ENDBRANCH   3  19
TORSDOF 4
ENDMDL
MODEL 6
REMARK VINA RESULT:      -9.6      3.111      6.099
REMARK  Name = 86291103
REMARK  4 active torsions:
REMARK  status: ('A' for Active; 'I' for Inactive)
REMARK    1  A    between atoms: C_3  and  C_19
REMARK    2  A    between atoms: C_4  and  C_13
REMARK    3  A    between atoms: C_19  and  N_20
REMARK    4  A    between atoms: C_19  and  C_33
REMARK                            x       y       z     vdW  Elec       q    Type
REMARK                         _______ _______ _______ _____ _____    ______ ____
ROOT
ATOM      1  O   UNL     1      34.801 -23.171 -15.939  0.00  0.00    -0.456 OA
ATOM      2  O   UNL     1      32.372 -23.519 -12.695  0.00  0.00    -0.286 OA
ATOM      3  C   UNL     1      33.421 -23.191 -16.086  0.00  0.00    +0.143 A 
ATOM      4  C   UNL     1      32.553 -23.304 -15.058  0.00  0.00    +0.071 A 
ATOM      5  C   UNL     1      33.099 -23.413 -13.675  0.00  0.00    +0.201 A 
ATOM      6  C   UNL     1      34.561 -23.389 -13.538  0.00  0.00    +0.074 A 
ATOM      7  C   UNL     1      35.339 -23.268 -14.685  0.00  0.00    +0.148 A 
ATOM      8  C   UNL     1      35.165 -23.485 -12.283  0.00  0.00    +0.006 C 
ATOM      9  C   UNL     1      36.730 -23.243 -14.585  0.00  0.00    +0.038 C 
ATOM     10  C   UNL     1      36.557 -23.460 -12.184  0.00  0.00    +0.000 C 
ATOM     11  C   UNL     1      37.339 -23.340 -13.333  0.00  0.00    +0.003 C 
ENDROOT
BRANCH   4  13
ATOM     12  F   UNL     1      28.214 -25.309 -14.310  0.00  0.00    -0.204 F 
ATOM     13  C   UNL     1      31.110 -23.322 -15.259  0.00  0.00    +0.008 C 
ATOM     14  C   UNL     1      30.337 -24.328 -14.678  0.00  0.00    +0.030 C 
ATOM     15  C   UNL     1      30.500 -22.333 -16.032  0.00  0.00    +0.000 C 
ATOM     16  C   UNL     1      28.956 -24.345 -14.869  0.00  0.00    +0.140 C 
ATOM     17  C   UNL     1      29.119 -22.350 -16.223  0.00  0.00    +0.002 C 
ATOM     18  C   UNL     1      28.346 -23.356 -15.641  0.00  0.00    +0.030 C 
ENDBRANCH   4  13
BRANCH   3  19
ATOM     19  C   UNL     1      33.023 -23.071 -17.532  0.00  0.00    +0.128 C 
BRANCH  19  20
ATOM     20  N   UNL     1      33.959 -22.169 -18.160  0.00  0.00    -0.316 N 
ATOM     21  N   UNL     1      32.321 -21.123 -19.536  0.00  0.00    -0.232 NA
ATOM     22  N   UNL     1      35.887 -20.223 -19.537  0.00  0.00    -0.270 NA
ATOM     23  N   UNL     1      35.256 -18.744 -21.081  0.00  0.00    -0.307 N 
ATOM     24  N   UNL     1      32.897 -19.330 -21.088  0.00  0.00    -0.232 NA
ATOM     25  C   UNL     1      33.603 -21.237 -19.123  0.00  0.00    +0.124 C 
ATOM     26  C   UNL     1      34.541 -20.398 -19.690  0.00  0.00    +0.164 C 
ATOM     27  C   UNL     1      34.173 -19.469 -20.654  0.00  0.00    +0.125 C 
ATOM     28  C   UNL     1      36.269 -19.222 -20.390  0.00  0.00    +0.163 C 
ATOM     29  C   UNL     1      32.050 -20.189 -20.479  0.00  0.00    +0.252 C 
ATOM     30  H   UNL     1      34.904 -22.219 -17.889  0.00  0.00    +0.148 HD
ATOM     31  H   UNL     1      36.474 -20.723 -18.926  0.00  0.00    +0.126 HD
ATOM     32  H   UNL     1      35.272 -18.025 -21.754  0.00  0.00    +0.149 HD
ENDBRANCH  19  20
BRANCH  19  33
ATOM     33  C   UNL     1      33.035 -24.436 -18.222  0.00  0.00    +0.027 C 
ATOM     34  C   UNL     1      33.483 -24.341 -19.676  0.00  0.00    +0.002 C 
ENDBRANCH  19  33
ENDBRANCH   3  19
TORSDOF 4
ENDMDL
