MODEL 1
REMARK VINA RESULT:     -12.2      0.000      0.000
REMARK  Name = 11256720
REMARK  3 active torsions:
REMARK  status: ('A' for Active; 'I' for Inactive)
REMARK    1  A    between atoms: C_2  and  N_11
REMARK    2  A    between atoms: C_6  and  S_19
REMARK    3  A    between atoms: S_19  and  C_22
REMARK                            x       y       z     vdW  Elec       q    Type
REMARK                         _______ _______ _______ _____ _____    ______ ____
ROOT
ATOM      1  N   UNL     1      35.815 -20.672 -18.918  0.00  0.00    -0.245 NA
ATOM      2  C   UNL     1      34.247 -21.844 -17.576  0.00  0.00    +0.120 C 
ATOM      3  C   UNL     1      34.544 -21.043 -18.677  0.00  0.00    +0.074 C 
ATOM      4  C   UNL     1      33.480 -20.643 -19.512  0.00  0.00    -0.001 C 
ATOM      5  C   UNL     1      32.940 -22.248 -17.295  0.00  0.00    -0.009 C 
ATOM      6  C   UNL     1      35.086 -19.454 -20.871  0.00  0.00    +0.129 C 
ATOM      7  C   UNL     1      33.777 -19.837 -20.619  0.00  0.00    +0.018 C 
ATOM      8  C   UNL     1      32.164 -21.050 -19.229  0.00  0.00    +0.053 C 
ATOM      9  C   UNL     1      31.897 -21.850 -18.122  0.00  0.00    -0.024 C 
ATOM     10  C   UNL     1      36.059 -19.893 -19.997  0.00  0.00    +0.117 C 
ENDROOT
BRANCH   2  11
ATOM     11  N   UNL     1      35.269 -22.266 -16.718  0.00  0.00    -0.270 NA
ATOM     12  N   UNL     1      37.292 -22.928 -14.816  0.00  0.00    +0.386 N 
ATOM     13  C   UNL     1      36.434 -21.388 -16.547  0.00  0.00    +0.049 C 
ATOM     14  C   UNL     1      34.949 -23.127 -15.574  0.00  0.00    +0.049 C 
ATOM     15  C   UNL     1      37.632 -22.183 -16.028  0.00  0.00    -0.064 C 
ATOM     16  C   UNL     1      36.199 -23.860 -15.088  0.00  0.00    -0.064 C 
ATOM     17  H   UNL     1      37.004 -22.274 -14.088  0.00  0.00    -0.084 HD
ATOM     18  H   UNL     1      38.110 -23.453 -14.507  0.00  0.00    -0.084 HD
ENDBRANCH   2  11
BRANCH   6  19
ATOM     19  S   UNL     1      35.486 -18.455 -22.239  0.00  0.00    +0.029 S 
ATOM     20  O   UNL     1      34.809 -18.968 -23.425  0.00  0.00    -0.164 OA
ATOM     21  O   UNL     1      36.937 -18.317 -22.243  0.00  0.00    -0.164 OA
BRANCH  19  22
ATOM     22  C   UNL     1      34.795 -16.840 -21.985  0.00  0.00    +0.110 C 
ATOM     23  C   UNL     1      34.538 -16.043 -23.083  0.00  0.00    +0.019 C 
ATOM     24  C   UNL     1      34.531 -16.421 -20.696  0.00  0.00    +0.019 C 
ATOM     25  C   UNL     1      33.995 -14.773 -22.883  0.00  0.00    +0.001 C 
ATOM     26  C   UNL     1      33.987 -15.151 -20.497  0.00  0.00    +0.001 C 
ATOM     27  C   UNL     1      33.720 -14.327 -21.591  0.00  0.00    +0.000 C 
ENDBRANCH  19  22
ENDBRANCH   6  19
TORSDOF 3
ENDMDL
MODEL 2
REMARK VINA RESULT:     -11.7      3.739      8.571
REMARK  Name = 11256720
REMARK  3 active torsions:
REMARK  status: ('A' for Active; 'I' for Inactive)
REMARK    1  A    between atoms: C_2  and  N_11
REMARK    2  A    between atoms: C_6  and  S_19
REMARK    3  A    between atoms: S_19  and  C_22
REMARK                            x       y       z     vdW  Elec       q    Type
REMARK                         _______ _______ _______ _____ _____    ______ ____
ROOT
ATOM      1  N   UNL     1      33.782 -14.855 -21.388  0.00  0.00    -0.245 NA
ATOM      2  C   UNL     1      32.879 -13.519 -23.129  0.00  0.00    +0.120 C 
ATOM      3  C   UNL     1      33.553 -14.660 -22.700  0.00  0.00    +0.074 C 
ATOM      4  C   UNL     1      33.979 -15.585 -23.676  0.00  0.00    -0.001 C 
ATOM      5  C   UNL     1      32.624 -13.285 -24.483  0.00  0.00    -0.009 C 
ATOM      6  C   UNL     1      34.894 -16.937 -21.893  0.00  0.00    +0.129 C 
ATOM      7  C   UNL     1      34.657 -16.733 -23.245  0.00  0.00    +0.018 C 
ATOM      8  C   UNL     1      33.722 -15.349 -25.037  0.00  0.00    +0.053 C 
ATOM      9  C   UNL     1      33.047 -14.200 -25.438  0.00  0.00    -0.024 C 
ATOM     10  C   UNL     1      34.440 -15.976 -21.014  0.00  0.00    +0.117 C 
ENDROOT
BRANCH   2  11
ATOM     11  N   UNL     1      32.437 -12.572 -22.199  0.00  0.00    -0.270 NA
ATOM     12  N   UNL     1      31.299 -10.668 -20.401  0.00  0.00    +0.386 N 
ATOM     13  C   UNL     1      31.944 -11.284 -22.705  0.00  0.00    +0.049 C 
ATOM     14  C   UNL     1      31.860 -13.017 -20.926  0.00  0.00    +0.049 C 
ATOM     15  C   UNL     1      31.996 -10.222 -21.607  0.00  0.00    -0.064 C 
ATOM     16  C   UNL     1      31.913 -11.894 -19.891  0.00  0.00    -0.064 C 
ATOM     17  H   UNL     1      30.321 -10.848 -20.624  0.00  0.00    -0.084 HD
ATOM     18  H   UNL     1      31.365  -9.941 -19.689  0.00  0.00    -0.084 HD
ENDBRANCH   2  11
BRANCH   6  19
ATOM     19  S   UNL     1      35.732 -18.353 -21.328  0.00  0.00    +0.029 S 
ATOM     20  O   UNL     1      36.618 -17.983 -20.229  0.00  0.00    -0.164 OA
ATOM     21  O   UNL     1      36.285 -19.008 -22.507  0.00  0.00    -0.164 OA
BRANCH  19  22
ATOM     22  C   UNL     1      34.551 -19.462 -20.604  0.00  0.00    +0.110 C 
ATOM     23  C   UNL     1      33.210 -19.284 -20.881  0.00  0.00    +0.019 C 
ATOM     24  C   UNL     1      35.002 -20.476 -19.781  0.00  0.00    +0.019 C 
ATOM     25  C   UNL     1      32.281 -20.155 -20.310  0.00  0.00    +0.001 C 
ATOM     26  C   UNL     1      34.073 -21.347 -19.212  0.00  0.00    +0.001 C 
ATOM     27  C   UNL     1      32.712 -21.187 -19.477  0.00  0.00    +0.000 C 
ENDBRANCH  19  22
ENDBRANCH   6  19
TORSDOF 3
ENDMDL
MODEL 3
REMARK VINA RESULT:     -11.0      6.217     10.822
REMARK  Name = 11256720
REMARK  3 active torsions:
REMARK  status: ('A' for Active; 'I' for Inactive)
REMARK    1  A    between atoms: C_2  and  N_11
REMARK    2  A    between atoms: C_6  and  S_19
REMARK    3  A    between atoms: S_19  and  C_22
REMARK                            x       y       z     vdW  Elec       q    Type
REMARK                         _______ _______ _______ _____ _____    ______ ____
ROOT
ATOM      1  N   UNL     1      32.700 -11.461 -23.934  0.00  0.00    -0.245 NA
ATOM      2  C   UNL     1      31.877 -10.278 -22.048  0.00  0.00    +0.120 C 
ATOM      3  C   UNL     1      32.303 -11.461 -22.648  0.00  0.00    +0.074 C 
ATOM      4  C   UNL     1      32.302 -12.637 -21.868  0.00  0.00    -0.001 C 
ATOM      5  C   UNL     1      31.458 -10.241 -20.716  0.00  0.00    -0.009 C 
ATOM      6  C   UNL     1      33.142 -13.831 -23.795  0.00  0.00    +0.129 C 
ATOM      7  C   UNL     1      32.731 -13.827 -22.471  0.00  0.00    +0.018 C 
ATOM      8  C   UNL     1      31.881 -12.600 -20.528  0.00  0.00    +0.053 C 
ATOM      9  C   UNL     1      31.460 -11.404 -19.955  0.00  0.00    -0.024 C 
ATOM     10  C   UNL     1      33.107 -12.631 -24.477  0.00  0.00    +0.117 C 
ENDROOT
BRANCH   2  11
ATOM     11  N   UNL     1      31.860  -9.085 -22.780  0.00  0.00    -0.270 NA
ATOM     12  N   UNL     1      31.770  -6.532 -24.053  0.00  0.00    +0.386 N 
ATOM     13  C   UNL     1      30.584  -8.369 -22.905  0.00  0.00    +0.049 C 
ATOM     14  C   UNL     1      33.065  -8.251 -22.839  0.00  0.00    +0.049 C 
ATOM     15  C   UNL     1      30.614  -7.425 -24.106  0.00  0.00    -0.064 C 
ATOM     16  C   UNL     1      33.008  -7.311 -24.043  0.00  0.00    -0.064 C 
ATOM     17  H   UNL     1      31.721  -5.966 -23.205  0.00  0.00    -0.084 HD
ATOM     18  H   UNL     1      31.763  -5.927 -24.874  0.00  0.00    -0.084 HD
ENDBRANCH   2  11
BRANCH   6  19
ATOM     19  S   UNL     1      33.680 -15.292 -24.569  0.00  0.00    +0.029 S 
ATOM     20  O   UNL     1      34.937 -15.035 -25.266  0.00  0.00    -0.164 OA
ATOM     21  O   UNL     1      32.541 -15.814 -25.314  0.00  0.00    -0.164 OA
BRANCH  19  22
ATOM     22  C   UNL     1      34.091 -16.481 -23.317  0.00  0.00    +0.110 C 
ATOM     23  C   UNL     1      34.621 -16.036 -22.122  0.00  0.00    +0.019 C 
ATOM     24  C   UNL     1      33.871 -17.821 -23.569  0.00  0.00    +0.019 C 
ATOM     25  C   UNL     1      34.945 -16.971 -21.138  0.00  0.00    +0.001 C 
ATOM     26  C   UNL     1      34.195 -18.755 -22.583  0.00  0.00    +0.001 C 
ATOM     27  C   UNL     1      34.732 -18.329 -21.368  0.00  0.00    +0.000 C 
ENDBRANCH  19  22
ENDBRANCH   6  19
TORSDOF 3
ENDMDL
MODEL 4
REMARK VINA RESULT:     -10.6      3.042      4.641
REMARK  Name = 11256720
REMARK  3 active torsions:
REMARK  status: ('A' for Active; 'I' for Inactive)
REMARK    1  A    between atoms: C_2  and  N_11
REMARK    2  A    between atoms: C_6  and  S_19
REMARK    3  A    between atoms: S_19  and  C_22
REMARK                            x       y       z     vdW  Elec       q    Type
REMARK                         _______ _______ _______ _____ _____    ______ ____
ROOT
ATOM      1  N   UNL     1      34.962 -22.856 -15.783  0.00  0.00    -0.245 NA
ATOM      2  C   UNL     1      34.152 -23.359 -13.610  0.00  0.00    +0.120 C 
ATOM      3  C   UNL     1      33.924 -23.057 -14.951  0.00  0.00    +0.074 C 
ATOM      4  C   UNL     1      32.587 -22.972 -15.393  0.00  0.00    -0.001 C 
ATOM      5  C   UNL     1      33.098 -23.574 -12.718  0.00  0.00    -0.009 C 
ATOM      6  C   UNL     1      33.424 -22.460 -17.602  0.00  0.00    +0.129 C 
ATOM      7  C   UNL     1      32.356 -22.668 -16.742  0.00  0.00    +0.018 C 
ATOM      8  C   UNL     1      31.527 -23.188 -14.496  0.00  0.00    +0.053 C 
ATOM      9  C   UNL     1      31.784 -23.488 -13.161  0.00  0.00    -0.024 C 
ATOM     10  C   UNL     1      34.696 -22.564 -17.077  0.00  0.00    +0.117 C 
ENDROOT
BRANCH   2  11
ATOM     11  N   UNL     1      35.460 -23.455 -13.124  0.00  0.00    -0.270 NA
ATOM     12  N   UNL     1      38.033 -23.778 -11.930  0.00  0.00    +0.386 N 
ATOM     13  C   UNL     1      35.787 -22.752 -11.876  0.00  0.00    +0.049 C 
ATOM     14  C   UNL     1      36.253 -24.657 -13.402  0.00  0.00    +0.049 C 
ATOM     15  C   UNL     1      37.295 -22.527 -11.767  0.00  0.00    -0.064 C 
ATOM     16  C   UNL     1      37.745 -24.366 -13.238  0.00  0.00    -0.064 C 
ATOM     17  H   UNL     1      37.755 -24.432 -11.198  0.00  0.00    -0.084 HD
ATOM     18  H   UNL     1      39.033 -23.587 -11.864  0.00  0.00    -0.084 HD
ENDBRANCH   2  11
BRANCH   6  19
ATOM     19  S   UNL     1      33.170 -22.083 -19.281  0.00  0.00    +0.029 S 
ATOM     20  O   UNL     1      31.845 -21.493 -19.448  0.00  0.00    -0.164 OA
ATOM     21  O   UNL     1      33.523 -23.279 -20.035  0.00  0.00    -0.164 OA
BRANCH  19  22
ATOM     22  C   UNL     1      34.300 -20.798 -19.753  0.00  0.00    +0.110 C 
ATOM     23  C   UNL     1      33.841 -19.760 -20.540  0.00  0.00    +0.019 C 
ATOM     24  C   UNL     1      35.610 -20.869 -19.322  0.00  0.00    +0.019 C 
ATOM     25  C   UNL     1      34.730 -18.751 -20.912  0.00  0.00    +0.001 C 
ATOM     26  C   UNL     1      36.498 -19.858 -19.693  0.00  0.00    +0.001 C 
ATOM     27  C   UNL     1      36.058 -18.800 -20.488  0.00  0.00    +0.000 C 
ENDBRANCH  19  22
ENDBRANCH   6  19
TORSDOF 3
ENDMDL
MODEL 5
REMARK VINA RESULT:     -10.5      6.202      9.363
REMARK  Name = 11256720
REMARK  3 active torsions:
REMARK  status: ('A' for Active; 'I' for Inactive)
REMARK    1  A    between atoms: C_2  and  N_11
REMARK    2  A    between atoms: C_6  and  S_19
REMARK    3  A    between atoms: S_19  and  C_22
REMARK                            x       y       z     vdW  Elec       q    Type
REMARK                         _______ _______ _______ _____ _____    ______ ____
ROOT
ATOM      1  N   UNL     1      32.360 -23.519 -13.947  0.00  0.00    -0.245 NA
ATOM      2  C   UNL     1      31.685 -22.844 -16.120  0.00  0.00    +0.120 C 
ATOM      3  C   UNL     1      32.684 -23.080 -15.178  0.00  0.00    +0.074 C 
ATOM      4  C   UNL     1      34.022 -22.845 -15.557  0.00  0.00    -0.001 C 
ATOM      5  C   UNL     1      31.985 -22.389 -17.406  0.00  0.00    -0.009 C 
ATOM      6  C   UNL     1      34.697 -23.535 -13.340  0.00  0.00    +0.129 C 
ATOM      7  C   UNL     1      35.027 -23.082 -14.609  0.00  0.00    +0.018 C 
ATOM      8  C   UNL     1      34.324 -22.387 -16.851  0.00  0.00    +0.053 C 
ATOM      9  C   UNL     1      33.306 -22.159 -17.772  0.00  0.00    -0.024 C 
ATOM     10  C   UNL     1      33.360 -23.735 -13.062  0.00  0.00    +0.117 C 
ENDROOT
BRANCH   2  11
ATOM     11  N   UNL     1      30.343 -23.062 -15.791  0.00  0.00    -0.270 NA
ATOM     12  N   UNL     1      27.561 -23.549 -15.372  0.00  0.00    +0.386 N 
ATOM     13  C   UNL     1      29.344 -22.110 -16.295  0.00  0.00    +0.049 C 
ATOM     14  C   UNL     1      29.861 -24.430 -15.571  0.00  0.00    +0.049 C 
ATOM     15  C   UNL     1      28.068 -22.179 -15.458  0.00  0.00    -0.064 C 
ATOM     16  C   UNL     1      28.565 -24.419 -14.761  0.00  0.00    -0.064 C 
ATOM     17  H   UNL     1      27.346 -23.888 -16.309  0.00  0.00    -0.084 HD
ATOM     18  H   UNL     1      26.719 -23.557 -14.798  0.00  0.00    -0.084 HD
ENDBRANCH   2  11
BRANCH   6  19
ATOM     19  S   UNL     1      35.923 -23.839 -12.144  0.00  0.00    +0.029 S 
ATOM     20  O   UNL     1      35.443 -24.852 -11.209  0.00  0.00    -0.164 OA
ATOM     21  O   UNL     1      36.345 -22.539 -11.640  0.00  0.00    -0.164 OA
BRANCH  19  22
ATOM     22  C   UNL     1      37.323 -24.585 -12.941  0.00  0.00    +0.110 C 
ATOM     23  C   UNL     1      38.555 -23.972 -12.838  0.00  0.00    +0.019 C 
ATOM     24  C   UNL     1      37.144 -25.761 -13.644  0.00  0.00    +0.019 C 
ATOM     25  C   UNL     1      39.655 -24.558 -13.465  0.00  0.00    +0.001 C 
ATOM     26  C   UNL     1      38.245 -26.346 -14.270  0.00  0.00    +0.001 C 
ATOM     27  C   UNL     1      39.500 -25.745 -14.181  0.00  0.00    +0.000 C 
ENDBRANCH  19  22
ENDBRANCH   6  19
TORSDOF 3
ENDMDL
MODEL 6
REMARK VINA RESULT:     -10.0      5.952      9.108
REMARK  Name = 11256720
REMARK  3 active torsions:
REMARK  status: ('A' for Active; 'I' for Inactive)
REMARK    1  A    between atoms: C_2  and  N_11
REMARK    2  A    between atoms: C_6  and  S_19
REMARK    3  A    between atoms: S_19  and  C_22
REMARK                            x       y       z     vdW  Elec       q    Type
REMARK                         _______ _______ _______ _____ _____    ______ ____
ROOT
ATOM      1  N   UNL     1      32.806 -13.835 -21.652  0.00  0.00    -0.245 NA
ATOM      2  C   UNL     1      33.427 -14.820 -23.720  0.00  0.00    +0.120 C 
ATOM      3  C   UNL     1      32.887 -13.761 -22.994  0.00  0.00    +0.074 C 
ATOM      4  C   UNL     1      32.435 -12.630 -23.707  0.00  0.00    -0.001 C 
ATOM      5  C   UNL     1      33.526 -14.778 -25.113  0.00  0.00    -0.009 C 
ATOM      6  C   UNL     1      31.807 -11.637 -21.594  0.00  0.00    +0.129 C 
ATOM      7  C   UNL     1      31.891 -11.565 -22.977  0.00  0.00    +0.018 C 
ATOM      8  C   UNL     1      32.535 -12.588 -25.108  0.00  0.00    +0.053 C 
ATOM      9  C   UNL     1      33.079 -13.661 -25.808  0.00  0.00    -0.024 C 
ATOM     10  C   UNL     1      32.274 -12.784 -20.986  0.00  0.00    +0.117 C 
ENDROOT
BRANCH   2  11
ATOM     11  N   UNL     1      33.888 -15.963 -23.059  0.00  0.00    -0.270 NA
ATOM     12  N   UNL     1      35.040 -18.283 -21.857  0.00  0.00    +0.386 N 
ATOM     13  C   UNL     1      34.027 -17.202 -23.835  0.00  0.00    +0.049 C 
ATOM     14  C   UNL     1      34.797 -15.824 -21.915  0.00  0.00    +0.049 C 
ATOM     15  C   UNL     1      34.031 -18.418 -22.908  0.00  0.00    -0.064 C 
ATOM     16  C   UNL     1      34.775 -17.089 -21.056  0.00  0.00    -0.064 C 
ATOM     17  H   UNL     1      35.963 -18.205 -22.284  0.00  0.00    -0.084 HD
ATOM     18  H   UNL     1      35.005 -19.104 -21.254  0.00  0.00    -0.084 HD
ENDBRANCH   2  11
BRANCH   6  19
ATOM     19  S   UNL     1      31.139 -10.330 -20.661  0.00  0.00    +0.029 S 
ATOM     20  O   UNL     1      31.557 -10.467 -19.270  0.00  0.00    -0.164 OA
ATOM     21  O   UNL     1      29.718 -10.274 -20.982  0.00  0.00    -0.164 OA
BRANCH  19  22
ATOM     22  C   UNL     1      31.871  -8.808 -21.208  0.00  0.00    +0.110 C 
ATOM     23  C   UNL     1      32.258  -8.689 -22.528  0.00  0.00    +0.019 C 
ATOM     24  C   UNL     1      32.036  -7.781 -20.299  0.00  0.00    +0.019 C 
ATOM     25  C   UNL     1      32.835  -7.493 -22.957  0.00  0.00    +0.001 C 
ATOM     26  C   UNL     1      32.612  -6.585 -20.729  0.00  0.00    +0.001 C 
ATOM     27  C   UNL     1      33.012  -6.442 -22.058  0.00  0.00    +0.000 C 
ENDBRANCH  19  22
ENDBRANCH   6  19
TORSDOF 3
ENDMDL
MODEL 7
REMARK VINA RESULT:      -9.8      6.286      8.126
REMARK  Name = 11256720
REMARK  3 active torsions:
REMARK  status: ('A' for Active; 'I' for Inactive)
REMARK    1  A    between atoms: C_2  and  N_11
REMARK    2  A    between atoms: C_6  and  S_19
REMARK    3  A    between atoms: S_19  and  C_22
REMARK                            x       y       z     vdW  Elec       q    Type
REMARK                         _______ _______ _______ _____ _____    ______ ____
ROOT
ATOM      1  N   UNL     1      33.726 -24.036 -13.633  0.00  0.00    -0.245 NA
ATOM      2  C   UNL     1      35.399 -23.040 -14.989  0.00  0.00    +0.120 C 
ATOM      3  C   UNL     1      34.069 -23.386 -14.760  0.00  0.00    +0.074 C 
ATOM      4  C   UNL     1      33.115 -23.035 -15.738  0.00  0.00    -0.001 C 
ATOM      5  C   UNL     1      35.791 -22.365 -16.148  0.00  0.00    -0.009 C 
ATOM      6  C   UNL     1      31.419 -24.053 -14.347  0.00  0.00    +0.129 C 
ATOM      7  C   UNL     1      31.777 -23.383 -15.508  0.00  0.00    +0.018 C 
ATOM      8  C   UNL     1      33.510 -22.356 -16.904  0.00  0.00    +0.053 C 
ATOM      9  C   UNL     1      34.846 -22.023 -17.107  0.00  0.00    -0.024 C 
ATOM     10  C   UNL     1      32.424 -24.354 -13.450  0.00  0.00    +0.117 C 
ENDROOT
BRANCH   2  11
ATOM     11  N   UNL     1      36.383 -23.367 -14.049  0.00  0.00    -0.270 NA
ATOM     12  N   UNL     1      38.550 -23.882 -12.264  0.00  0.00    +0.386 N 
ATOM     13  C   UNL     1      37.540 -24.150 -14.502  0.00  0.00    +0.049 C 
ATOM     14  C   UNL     1      36.627 -22.472 -12.912  0.00  0.00    +0.049 C 
ATOM     15  C   UNL     1      38.217 -24.839 -13.319  0.00  0.00    -0.064 C 
ATOM     16  C   UNL     1      37.337 -23.221 -11.784  0.00  0.00    -0.064 C 
ATOM     17  H   UNL     1      39.192 -23.182 -12.635  0.00  0.00    -0.084 HD
ATOM     18  H   UNL     1      38.988 -24.379 -11.489  0.00  0.00    -0.084 HD
ENDBRANCH   2  11
BRANCH   6  19
ATOM     19  S   UNL     1      29.767 -24.496 -14.034  0.00  0.00    +0.029 S 
ATOM     20  O   UNL     1      29.407 -24.089 -12.680  0.00  0.00    -0.164 OA
ATOM     21  O   UNL     1      29.630 -25.894 -14.424  0.00  0.00    -0.164 OA
BRANCH  19  22
ATOM     22  C   UNL     1      28.711 -23.538 -15.091  0.00  0.00    +0.110 C 
ATOM     23  C   UNL     1      28.394 -22.245 -14.726  0.00  0.00    +0.019 C 
ATOM     24  C   UNL     1      28.233 -24.110 -16.254  0.00  0.00    +0.019 C 
ATOM     25  C   UNL     1      27.562 -21.493 -15.556  0.00  0.00    +0.001 C 
ATOM     26  C   UNL     1      27.403 -23.357 -17.085  0.00  0.00    +0.001 C 
ATOM     27  C   UNL     1      27.067 -22.048 -16.736  0.00  0.00    +0.000 C 
ENDBRANCH  19  22
ENDBRANCH   6  19
TORSDOF 3
ENDMDL
MODEL 8
REMARK VINA RESULT:      -9.7      4.769      8.128
REMARK  Name = 11256720
REMARK  3 active torsions:
REMARK  status: ('A' for Active; 'I' for Inactive)
REMARK    1  A    between atoms: C_2  and  N_11
REMARK    2  A    between atoms: C_6  and  S_19
REMARK    3  A    between atoms: S_19  and  C_22
REMARK                            x       y       z     vdW  Elec       q    Type
REMARK                         _______ _______ _______ _____ _____    ______ ____
ROOT
ATOM      1  N   UNL     1      33.150 -22.023 -17.012  0.00  0.00    -0.245 NA
ATOM      2  C   UNL     1      35.443 -21.575 -17.432  0.00  0.00    +0.120 C 
ATOM      3  C   UNL     1      34.438 -22.111 -16.630  0.00  0.00    +0.074 C 
ATOM      4  C   UNL     1      34.816 -22.736 -15.423  0.00  0.00    -0.001 C 
ATOM      5  C   UNL     1      36.789 -21.648 -17.067  0.00  0.00    -0.009 C 
ATOM      6  C   UNL     1      32.478 -23.187 -15.006  0.00  0.00    +0.129 C 
ATOM      7  C   UNL     1      33.806 -23.275 -14.615  0.00  0.00    +0.018 C 
ATOM      8  C   UNL     1      36.171 -22.810 -15.056  0.00  0.00    +0.053 C 
ATOM      9  C   UNL     1      37.154 -22.266 -15.877  0.00  0.00    -0.024 C 
ATOM     10  C   UNL     1      32.206 -22.556 -16.203  0.00  0.00    +0.117 C 
ENDROOT
BRANCH   2  11
ATOM     11  N   UNL     1      35.118 -20.945 -18.638  0.00  0.00    -0.270 NA
ATOM     12  N   UNL     1      34.557 -19.862 -21.220  0.00  0.00    +0.386 N 
ATOM     13  C   UNL     1      36.218 -20.511 -19.510  0.00  0.00    +0.049 C 
ATOM     14  C   UNL     1      33.862 -21.280 -19.319  0.00  0.00    +0.049 C 
ATOM     15  C   UNL     1      35.740 -19.429 -20.477  0.00  0.00    -0.064 C 
ATOM     16  C   UNL     1      33.468 -20.171 -20.294  0.00  0.00    -0.064 C 
ATOM     17  H   UNL     1      34.785 -20.695 -21.762  0.00  0.00    -0.084 HD
ATOM     18  H   UNL     1      34.261 -19.112 -21.844  0.00  0.00    -0.084 HD
ENDBRANCH   2  11
BRANCH   6  19
ATOM     19  S   UNL     1      31.203 -23.848 -14.025  0.00  0.00    +0.029 S 
ATOM     20  O   UNL     1      31.183 -23.164 -12.735  0.00  0.00    -0.164 OA
ATOM     21  O   UNL     1      31.353 -25.297 -14.067  0.00  0.00    -0.164 OA
BRANCH  19  22
ATOM     22  C   UNL     1      29.644 -23.448 -14.774  0.00  0.00    +0.110 C 
ATOM     23  C   UNL     1      29.023 -24.392 -15.568  0.00  0.00    +0.019 C 
ATOM     24  C   UNL     1      29.091 -22.204 -14.544  0.00  0.00    +0.019 C 
ATOM     25  C   UNL     1      27.798 -24.077 -16.157  0.00  0.00    +0.001 C 
ATOM     26  C   UNL     1      27.865 -21.891 -15.133  0.00  0.00    +0.001 C 
ATOM     27  C   UNL     1      27.219 -22.828 -15.940  0.00  0.00    +0.000 C 
ENDBRANCH  19  22
ENDBRANCH   6  19
TORSDOF 3
ENDMDL
MODEL 9
REMARK VINA RESULT:      -9.5      9.176     14.356
REMARK  Name = 11256720
REMARK  3 active torsions:
REMARK  status: ('A' for Active; 'I' for Inactive)
REMARK    1  A    between atoms: C_2  and  N_11
REMARK    2  A    between atoms: C_6  and  S_19
REMARK    3  A    between atoms: S_19  and  C_22
REMARK                            x       y       z     vdW  Elec       q    Type
REMARK                         _______ _______ _______ _____ _____    ______ ____
ROOT
ATOM      1  N   UNL     1      32.346  -7.871 -23.616  0.00  0.00    -0.245 NA
ATOM      2  C   UNL     1      32.445  -5.502 -23.528  0.00  0.00    +0.120 C 
ATOM      3  C   UNL     1      32.133  -6.727 -22.941  0.00  0.00    +0.074 C 
ATOM      4  C   UNL     1      31.594  -6.719 -21.637  0.00  0.00    -0.001 C 
ATOM      5  C   UNL     1      32.237  -4.294 -22.857  0.00  0.00    -0.009 C 
ATOM      6  C   UNL     1      31.498  -9.132 -21.739  0.00  0.00    +0.129 C 
ATOM      7  C   UNL     1      31.279  -7.951 -21.047  0.00  0.00    +0.018 C 
ATOM      8  C   UNL     1      31.385  -5.504 -20.963  0.00  0.00    +0.053 C 
ATOM      9  C   UNL     1      31.706  -4.295 -21.573  0.00  0.00    -0.024 C 
ATOM     10  C   UNL     1      32.028  -9.039 -23.010  0.00  0.00    +0.117 C 
ENDROOT
BRANCH   2  11
ATOM     11  N   UNL     1      32.981  -5.458 -24.819  0.00  0.00    -0.270 NA
ATOM     12  N   UNL     1      33.985  -5.126 -27.471  0.00  0.00    +0.386 N 
ATOM     13  C   UNL     1      32.051  -5.348 -25.951  0.00  0.00    +0.049 C 
ATOM     14  C   UNL     1      34.314  -4.882 -25.034  0.00  0.00    +0.049 C 
ATOM     15  C   UNL     1      32.719  -5.820 -27.242  0.00  0.00    -0.064 C 
ATOM     16  C   UNL     1      34.902  -5.370 -26.358  0.00  0.00    -0.064 C 
ATOM     17  H   UNL     1      33.811  -4.124 -27.551  0.00  0.00    -0.084 HD
ATOM     18  H   UNL     1      34.406  -5.475 -28.332  0.00  0.00    -0.084 HD
ENDBRANCH   2  11
BRANCH   6  19
ATOM     19  S   UNL     1      31.119 -10.676 -21.032  0.00  0.00    +0.029 S 
ATOM     20  O   UNL     1      29.786 -11.087 -21.457  0.00  0.00    -0.164 OA
ATOM     21  O   UNL     1      31.417 -10.566 -19.609  0.00  0.00    -0.164 OA
BRANCH  19  22
ATOM     22  C   UNL     1      32.210 -11.898 -21.715  0.00  0.00    +0.110 C 
ATOM     23  C   UNL     1      32.797 -12.818 -20.869  0.00  0.00    +0.019 C 
ATOM     24  C   UNL     1      32.445 -11.898 -23.076  0.00  0.00    +0.019 C 
ATOM     25  C   UNL     1      33.655 -13.778 -21.406  0.00  0.00    +0.001 C 
ATOM     26  C   UNL     1      33.303 -12.859 -23.613  0.00  0.00    +0.001 C 
ATOM     27  C   UNL     1      33.908 -13.799 -22.778  0.00  0.00    +0.000 C 
ENDBRANCH  19  22
ENDBRANCH   6  19
TORSDOF 3
ENDMDL
