MODEL 1
REMARK VINA RESULT:     -11.9      0.000      0.000
REMARK  Name = 118435360
REMARK  4 active torsions:
REMARK  status: ('A' for Active; 'I' for Inactive)
REMARK    1  A    between atoms: C_3  and  C_11
REMARK    2  A    between atoms: C_22  and  C_25
REMARK    3  A    between atoms: C_29  and  O_30
REMARK    4  A    between atoms: O_30  and  C_33
REMARK                            x       y       z     vdW  Elec       q    Type
REMARK                         _______ _______ _______ _____ _____    ______ ____
ROOT
ATOM      1  S   UNL     1      34.367 -23.483 -15.285  0.00  0.00    -0.076 S 
ATOM      2  N   UNL     1      36.229 -22.293 -16.626  0.00  0.00    -0.387 NA
ATOM      3  C   UNL     1      36.004 -23.065 -15.587  0.00  0.00    +0.158 C 
ATOM      4  C   UNL     1      35.024 -22.003 -17.236  0.00  0.00    +0.174 C 
ATOM      5  C   UNL     1      33.904 -22.558 -16.653  0.00  0.00    +0.139 C 
ATOM      6  O   UNL     1      32.689 -21.103 -18.888  0.00  0.00    -0.268 OA
ATOM      7  N   UNL     1      34.982 -21.201 -18.357  0.00  0.00    -0.257 N 
ATOM      8  C   UNL     1      33.857 -20.799 -19.108  0.00  0.00    +0.269 C 
ATOM      9  H   UNL     1      35.851 -20.865 -18.675  0.00  0.00    +0.157 HD
ENDROOT
BRANCH   3  15
ATOM     10  S   UNL     1      35.410 -24.197 -12.047  0.00  0.00    -0.081 S 
ATOM     11  O   UNL     1      39.536 -24.014 -14.624  0.00  0.00    -0.354 OA
ATOM     12  N   UNL     1      37.266 -22.783 -13.439  0.00  0.00    -0.245 NA
ATOM     13  N   UNL     1      36.797 -22.140 -11.255  0.00  0.00    -0.338 N 
ATOM     14  C   UNL     1      36.894 -25.092 -14.255  0.00  0.00    +0.044 C 
ATOM     15  C   UNL     1      37.100 -23.604 -14.648  0.00  0.00    +0.166 C 
ATOM     16  C   UNL     1      38.135 -25.670 -13.546  0.00  0.00    +0.033 C 
ATOM     17  C   UNL     1      39.390 -25.413 -14.378  0.00  0.00    +0.116 C 
ATOM     18  C   UNL     1      38.456 -23.478 -15.392  0.00  0.00    +0.172 C 
ATOM     19  C   UNL     1      35.613 -25.305 -13.452  0.00  0.00    +0.067 C 
ATOM     20  C   UNL     1      40.639 -25.888 -13.647  0.00  0.00    +0.032 C 
ATOM     21  C   UNL     1      36.611 -22.950 -12.343  0.00  0.00    +0.148 C 
ATOM     22  H   UNL     1      36.282 -22.295 -10.431  0.00  0.00    +0.144 HD
ATOM     23  H   UNL     1      37.448 -21.402 -11.296  0.00  0.00    +0.144 HD
ENDBRANCH   3  15
BRANCH   8  25
ATOM     24  N   UNL     1      35.332 -19.278 -20.245  0.00  0.00    -0.236 NA
ATOM     25  C   UNL     1      34.132 -19.901 -20.261  0.00  0.00    +0.135 C 
ATOM     26  C   UNL     1      33.189 -19.742 -21.263  0.00  0.00    +0.027 C 
ATOM     27  C   UNL     1      33.499 -18.890 -22.318  0.00  0.00    +0.040 C 
ATOM     28  C   UNL     1      35.597 -18.458 -21.286  0.00  0.00    +0.136 C 
ATOM     29  C   UNL     1      34.723 -18.231 -22.337  0.00  0.00    +0.163 C 
BRANCH  29  30
ATOM     30  O   UNL     1      35.051 -17.395 -23.353  0.00  0.00    -0.422 OA
BRANCH  30  33
ATOM     31  F   UNL     1      34.855 -15.311 -22.532  0.00  0.00    -0.155 F 
ATOM     32  F   UNL     1      34.574 -15.613 -24.667  0.00  0.00    -0.155 F 
ATOM     33  C   UNL     1      34.337 -16.166 -23.452  0.00  0.00    +0.509 C 
ENDBRANCH  30  33
ENDBRANCH  29  30
ENDBRANCH   8  25
TORSDOF 4
ENDMDL
MODEL 2
REMARK VINA RESULT:     -11.8      2.077      3.055
REMARK  Name = 118435360
REMARK  4 active torsions:
REMARK  status: ('A' for Active; 'I' for Inactive)
REMARK    1  A    between atoms: C_3  and  C_11
REMARK    2  A    between atoms: C_22  and  C_25
REMARK    3  A    between atoms: C_29  and  O_30
REMARK    4  A    between atoms: O_30  and  C_33
REMARK                            x       y       z     vdW  Elec       q    Type
REMARK                         _______ _______ _______ _____ _____    ______ ____
ROOT
ATOM      1  S   UNL     1      32.770 -24.085 -15.506  0.00  0.00    -0.076 S 
ATOM      2  N   UNL     1      34.793 -22.545 -15.976  0.00  0.00    -0.387 NA
ATOM      3  C   UNL     1      34.296 -23.404 -15.114  0.00  0.00    +0.158 C 
ATOM      4  C   UNL     1      33.909 -22.407 -17.029  0.00  0.00    +0.174 C 
ATOM      5  C   UNL     1      32.757 -23.161 -16.951  0.00  0.00    +0.139 C 
ATOM      6  O   UNL     1      32.332 -21.778 -19.500  0.00  0.00    -0.268 OA
ATOM      7  N   UNL     1      34.194 -21.556 -18.075  0.00  0.00    -0.257 N 
ATOM      8  C   UNL     1      33.421 -21.286 -19.225  0.00  0.00    +0.269 C 
ATOM      9  H   UNL     1      35.049 -21.072 -18.011  0.00  0.00    +0.157 HD
ENDROOT
BRANCH   3  15
ATOM     10  S   UNL     1      37.983 -24.077 -14.773  0.00  0.00    -0.081 S 
ATOM     11  O   UNL     1      34.430 -24.349 -11.455  0.00  0.00    -0.354 OA
ATOM     12  N   UNL     1      35.638 -25.140 -13.901  0.00  0.00    -0.245 NA
ATOM     13  N   UNL     1      37.395 -26.585 -14.384  0.00  0.00    -0.338 N 
ATOM     14  C   UNL     1      35.999 -22.770 -13.278  0.00  0.00    +0.044 C 
ATOM     15  C   UNL     1      34.988 -23.824 -13.804  0.00  0.00    +0.166 C 
ATOM     16  C   UNL     1      36.466 -23.093 -11.845  0.00  0.00    +0.033 C 
ATOM     17  C   UNL     1      35.261 -23.312 -10.931  0.00  0.00    +0.116 C 
ATOM     18  C   UNL     1      33.882 -24.017 -12.733  0.00  0.00    +0.172 C 
ATOM     19  C   UNL     1      37.169 -22.563 -14.238  0.00  0.00    +0.067 C 
ATOM     20  C   UNL     1      35.702 -23.731  -9.534  0.00  0.00    +0.032 C 
ATOM     21  C   UNL     1      36.850 -25.332 -14.296  0.00  0.00    +0.148 C 
ATOM     22  H   UNL     1      38.324 -26.698 -14.688  0.00  0.00    +0.144 HD
ATOM     23  H   UNL     1      36.857 -27.374 -14.141  0.00  0.00    +0.144 HD
ENDBRANCH   3  15
BRANCH   8  25
ATOM     24  N   UNL     1      33.124 -19.787 -21.081  0.00  0.00    -0.236 NA
ATOM     25  C   UNL     1      33.989 -20.289 -20.170  0.00  0.00    +0.135 C 
ATOM     26  C   UNL     1      35.323 -19.927 -20.087  0.00  0.00    +0.027 C 
ATOM     27  C   UNL     1      35.801 -18.990 -20.996  0.00  0.00    +0.040 C 
ATOM     28  C   UNL     1      33.624 -18.879 -21.948  0.00  0.00    +0.136 C 
ATOM     29  C   UNL     1      34.943 -18.452 -21.948  0.00  0.00    +0.163 C 
BRANCH  29  30
ATOM     30  O   UNL     1      35.381 -17.536 -22.847  0.00  0.00    -0.422 OA
BRANCH  30  33
ATOM     31  F   UNL     1      34.924 -15.354 -22.556  0.00  0.00    -0.155 F 
ATOM     32  F   UNL     1      34.600 -16.226 -24.522  0.00  0.00    -0.155 F 
ATOM     33  C   UNL     1      34.496 -16.474 -23.193  0.00  0.00    +0.509 C 
ENDBRANCH  30  33
ENDBRANCH  29  30
ENDBRANCH   8  25
TORSDOF 4
ENDMDL
MODEL 3
REMARK VINA RESULT:     -11.7      9.495     15.820
REMARK  Name = 118435360
REMARK  4 active torsions:
REMARK  status: ('A' for Active; 'I' for Inactive)
REMARK    1  A    between atoms: C_3  and  C_11
REMARK    2  A    between atoms: C_22  and  C_25
REMARK    3  A    between atoms: C_29  and  O_30
REMARK    4  A    between atoms: O_30  and  C_33
REMARK                            x       y       z     vdW  Elec       q    Type
REMARK                         _______ _______ _______ _____ _____    ______ ____
ROOT
ATOM      1  S   UNL     1      30.450  -8.424 -21.737  0.00  0.00    -0.076 S 
ATOM      2  N   UNL     1      32.299  -9.396 -23.261  0.00  0.00    -0.387 NA
ATOM      3  C   UNL     1      31.576  -8.324 -23.028  0.00  0.00    +0.158 C 
ATOM      4  C   UNL     1      31.944 -10.378 -22.356  0.00  0.00    +0.174 C 
ATOM      5  C   UNL     1      30.959 -10.037 -21.452  0.00  0.00    +0.139 C 
ATOM      6  O   UNL     1      31.523 -12.793 -20.629  0.00  0.00    -0.268 OA
ATOM      7  N   UNL     1      32.557 -11.613 -22.386  0.00  0.00    -0.257 N 
ATOM      8  C   UNL     1      32.328 -12.728 -21.552  0.00  0.00    +0.269 C 
ATOM      9  H   UNL     1      33.244 -11.731 -23.082  0.00  0.00    +0.157 HD
ENDROOT
BRANCH   3  15
ATOM     10  S   UNL     1      32.142  -4.930 -21.501  0.00  0.00    -0.081 S 
ATOM     11  O   UNL     1      31.533  -6.204 -26.160  0.00  0.00    -0.354 OA
ATOM     12  N   UNL     1      30.635  -6.042 -23.470  0.00  0.00    -0.245 NA
ATOM     13  N   UNL     1      29.721  -4.302 -22.228  0.00  0.00    -0.338 N 
ATOM     14  C   UNL     1      33.078  -6.344 -23.737  0.00  0.00    +0.044 C 
ATOM     15  C   UNL     1      31.680  -7.012 -23.830  0.00  0.00    +0.166 C 
ATOM     16  C   UNL     1      33.230  -5.196 -24.755  0.00  0.00    +0.033 C 
ATOM     17  C   UNL     1      32.860  -5.678 -26.158  0.00  0.00    +0.116 C 
ATOM     18  C   UNL     1      31.398  -7.352 -25.318  0.00  0.00    +0.172 C 
ATOM     19  C   UNL     1      33.417  -5.909 -22.314  0.00  0.00    +0.067 C 
ATOM     20  C   UNL     1      32.908  -4.532 -27.160  0.00  0.00    +0.032 C 
ATOM     21  C   UNL     1      30.738  -5.168 -22.529  0.00  0.00    +0.148 C 
ATOM     22  H   UNL     1      29.831  -3.645 -21.504  0.00  0.00    +0.144 HD
ATOM     23  H   UNL     1      28.878  -4.336 -22.737  0.00  0.00    +0.144 HD
ENDBRANCH   3  15
BRANCH   8  25
ATOM     24  N   UNL     1      33.297 -14.226 -23.164  0.00  0.00    -0.236 NA
ATOM     25  C   UNL     1      33.135 -13.941 -21.853  0.00  0.00    +0.135 C 
ATOM     26  C   UNL     1      33.666 -14.699 -20.823  0.00  0.00    +0.027 C 
ATOM     27  C   UNL     1      34.413 -15.822 -21.161  0.00  0.00    +0.040 C 
ATOM     28  C   UNL     1      34.028 -15.325 -23.454  0.00  0.00    +0.136 C 
ATOM     29  C   UNL     1      34.602 -16.149 -22.499  0.00  0.00    +0.163 C 
BRANCH  29  30
ATOM     30  O   UNL     1      35.325 -17.238 -22.857  0.00  0.00    -0.422 OA
BRANCH  30  33
ATOM     31  F   UNL     1      35.297 -19.197 -21.754  0.00  0.00    -0.155 F 
ATOM     32  F   UNL     1      37.220 -18.261 -22.152  0.00  0.00    -0.155 F 
ATOM     33  C   UNL     1      35.933 -17.998 -21.816  0.00  0.00    +0.509 C 
ENDBRANCH  30  33
ENDBRANCH  29  30
ENDBRANCH   8  25
TORSDOF 4
ENDMDL
MODEL 4
REMARK VINA RESULT:     -10.9     10.962     16.373
REMARK  Name = 118435360
REMARK  4 active torsions:
REMARK  status: ('A' for Active; 'I' for Inactive)
REMARK    1  A    between atoms: C_3  and  C_11
REMARK    2  A    between atoms: C_22  and  C_25
REMARK    3  A    between atoms: C_29  and  O_30
REMARK    4  A    between atoms: O_30  and  C_33
REMARK                            x       y       z     vdW  Elec       q    Type
REMARK                         _______ _______ _______ _____ _____    ______ ____
ROOT
ATOM      1  S   UNL     1      31.208  -7.711 -20.710  0.00  0.00    -0.076 S 
ATOM      2  N   UNL     1      32.289  -8.456 -22.937  0.00  0.00    -0.387 NA
ATOM      3  C   UNL     1      31.842  -7.412 -22.276  0.00  0.00    +0.158 C 
ATOM      4  C   UNL     1      32.123  -9.583 -22.155  0.00  0.00    +0.174 C 
ATOM      5  C   UNL     1      31.553  -9.378 -20.916  0.00  0.00    +0.139 C 
ATOM      6  O   UNL     1      31.970 -12.279 -20.851  0.00  0.00    -0.268 OA
ATOM      7  N   UNL     1      32.513 -10.821 -22.620  0.00  0.00    -0.257 N 
ATOM      8  C   UNL     1      32.423 -12.072 -21.972  0.00  0.00    +0.269 C 
ATOM      9  H   UNL     1      32.906 -10.834 -23.523  0.00  0.00    +0.157 HD
ENDROOT
BRANCH   3  15
ATOM     10  S   UNL     1      31.877  -6.501 -25.928  0.00  0.00    -0.081 S 
ATOM     11  O   UNL     1      31.917  -3.642 -21.987  0.00  0.00    -0.354 OA
ATOM     12  N   UNL     1      33.049  -5.673 -23.620  0.00  0.00    -0.245 NA
ATOM     13  N   UNL     1      34.293  -5.590 -25.582  0.00  0.00    -0.338 N 
ATOM     14  C   UNL     1      30.573  -5.600 -23.612  0.00  0.00    +0.044 C 
ATOM     15  C   UNL     1      31.854  -5.969 -22.816  0.00  0.00    +0.166 C 
ATOM     16  C   UNL     1      30.497  -4.087 -23.899  0.00  0.00    +0.033 C 
ATOM     17  C   UNL     1      30.680  -3.291 -22.608  0.00  0.00    +0.116 C 
ATOM     18  C   UNL     1      31.962  -5.016 -21.595  0.00  0.00    +0.172 C 
ATOM     19  C   UNL     1      30.417  -6.442 -24.876  0.00  0.00    +0.067 C 
ATOM     20  C   UNL     1      30.708  -1.794 -22.887  0.00  0.00    +0.032 C 
ATOM     21  C   UNL     1      33.145  -5.869 -24.890  0.00  0.00    +0.148 C 
ATOM     22  H   UNL     1      34.335  -5.751 -26.552  0.00  0.00    +0.144 HD
ATOM     23  H   UNL     1      35.078  -5.229 -25.109  0.00  0.00    +0.144 HD
ENDBRANCH   3  15
BRANCH   8  25
ATOM     24  N   UNL     1      32.473 -13.318 -24.028  0.00  0.00    -0.236 NA
ATOM     25  C   UNL     1      32.907 -13.243 -22.750  0.00  0.00    +0.135 C 
ATOM     26  C   UNL     1      33.747 -14.173 -22.161  0.00  0.00    +0.027 C 
ATOM     27  C   UNL     1      34.170 -15.249 -22.934  0.00  0.00    +0.040 C 
ATOM     28  C   UNL     1      32.903 -14.377 -24.749  0.00  0.00    +0.136 C 
ATOM     29  C   UNL     1      33.744 -15.361 -24.253  0.00  0.00    +0.163 C 
BRANCH  29  30
ATOM     30  O   UNL     1      34.141 -16.399 -25.030  0.00  0.00    -0.422 OA
BRANCH  30  33
ATOM     31  F   UNL     1      33.694 -17.881 -23.399  0.00  0.00    -0.155 F 
ATOM     32  F   UNL     1      32.276 -17.685 -25.037  0.00  0.00    -0.155 F 
ATOM     33  C   UNL     1      33.599 -17.685 -24.739  0.00  0.00    +0.509 C 
ENDBRANCH  30  33
ENDBRANCH  29  30
ENDBRANCH   8  25
TORSDOF 4
ENDMDL
MODEL 5
REMARK VINA RESULT:     -10.7      2.997      4.157
REMARK  Name = 118435360
REMARK  4 active torsions:
REMARK  status: ('A' for Active; 'I' for Inactive)
REMARK    1  A    between atoms: C_3  and  C_11
REMARK    2  A    between atoms: C_22  and  C_25
REMARK    3  A    between atoms: C_29  and  O_30
REMARK    4  A    between atoms: O_30  and  C_33
REMARK                            x       y       z     vdW  Elec       q    Type
REMARK                         _______ _______ _______ _____ _____    ______ ____
ROOT
ATOM      1  S   UNL     1      36.346 -22.023 -16.475  0.00  0.00    -0.076 S 
ATOM      2  N   UNL     1      34.127 -21.622 -17.740  0.00  0.00    -0.387 NA
ATOM      3  C   UNL     1      34.663 -22.253 -16.720  0.00  0.00    +0.158 C 
ATOM      4  C   UNL     1      35.113 -20.899 -18.384  0.00  0.00    +0.174 C 
ATOM      5  C   UNL     1      36.379 -20.992 -17.845  0.00  0.00    +0.139 C 
ATOM      6  O   UNL     1      36.878 -19.187 -20.099  0.00  0.00    -0.268 OA
ATOM      7  N   UNL     1      34.812 -20.143 -19.498  0.00  0.00    -0.257 N 
ATOM      8  C   UNL     1      35.676 -19.348 -20.281  0.00  0.00    +0.269 C 
ATOM      9  H   UNL     1      33.870 -20.161 -19.784  0.00  0.00    +0.157 HD
ENDROOT
BRANCH   3  15
ATOM     10  S   UNL     1      36.221 -24.179 -13.885  0.00  0.00    -0.081 S 
ATOM     11  O   UNL     1      31.588 -23.993 -15.371  0.00  0.00    -0.354 OA
ATOM     12  N   UNL     1      34.337 -24.565 -15.805  0.00  0.00    -0.245 NA
ATOM     13  N   UNL     1      35.676 -26.364 -15.193  0.00  0.00    -0.338 N 
ATOM     14  C   UNL     1      33.895 -22.659 -14.286  0.00  0.00    +0.044 C 
ATOM     15  C   UNL     1      33.884 -23.166 -15.753  0.00  0.00    +0.166 C 
ATOM     16  C   UNL     1      32.894 -23.436 -13.408  0.00  0.00    +0.033 C 
ATOM     17  C   UNL     1      31.511 -23.440 -14.056  0.00  0.00    +0.116 C 
ATOM     18  C   UNL     1      32.412 -23.216 -16.243  0.00  0.00    +0.172 C 
ATOM     19  C   UNL     1      35.301 -22.642 -13.691  0.00  0.00    +0.067 C 
ATOM     20  C   UNL     1      30.532 -24.288 -13.253  0.00  0.00    +0.032 C 
ATOM     21  C   UNL     1      35.287 -25.056 -15.087  0.00  0.00    +0.148 C 
ATOM     22  H   UNL     1      36.405 -26.709 -14.629  0.00  0.00    +0.144 HD
ATOM     23  H   UNL     1      35.225 -26.961 -15.834  0.00  0.00    +0.144 HD
ENDBRANCH   3  15
BRANCH   8  25
ATOM     24  N   UNL     1      35.186 -17.322 -21.479  0.00  0.00    -0.236 NA
ATOM     25  C   UNL     1      35.055 -18.667 -21.447  0.00  0.00    +0.135 C 
ATOM     26  C   UNL     1      34.394 -19.405 -22.416  0.00  0.00    +0.027 C 
ATOM     27  C   UNL     1      33.832 -18.717 -23.486  0.00  0.00    +0.040 C 
ATOM     28  C   UNL     1      34.626 -16.688 -22.533  0.00  0.00    +0.136 C 
ATOM     29  C   UNL     1      33.945 -17.333 -23.553  0.00  0.00    +0.163 C 
BRANCH  29  30
ATOM     30  O   UNL     1      33.407 -16.636 -24.585  0.00  0.00    -0.422 OA
BRANCH  30  33
ATOM     31  F   UNL     1      33.270 -14.780 -25.846  0.00  0.00    -0.155 F 
ATOM     32  F   UNL     1      32.775 -14.635 -23.733  0.00  0.00    -0.155 F 
ATOM     33  C   UNL     1      33.620 -15.228 -24.612  0.00  0.00    +0.509 C 
ENDBRANCH  30  33
ENDBRANCH  29  30
ENDBRANCH   8  25
TORSDOF 4
ENDMDL
MODEL 6
REMARK VINA RESULT:      -9.9      4.431      6.533
REMARK  Name = 118435360
REMARK  4 active torsions:
REMARK  status: ('A' for Active; 'I' for Inactive)
REMARK    1  A    between atoms: C_3  and  C_11
REMARK    2  A    between atoms: C_22  and  C_25
REMARK    3  A    between atoms: C_29  and  O_30
REMARK    4  A    between atoms: O_30  and  C_33
REMARK                            x       y       z     vdW  Elec       q    Type
REMARK                         _______ _______ _______ _____ _____    ______ ____
ROOT
ATOM      1  S   UNL     1      32.256 -23.750 -16.494  0.00  0.00    -0.076 S 
ATOM      2  N   UNL     1      31.272 -21.658 -17.650  0.00  0.00    -0.387 NA
ATOM      3  C   UNL     1      31.001 -22.620 -16.798  0.00  0.00    +0.158 C 
ATOM      4  C   UNL     1      32.567 -21.815 -18.103  0.00  0.00    +0.174 C 
ATOM      5  C   UNL     1      33.259 -22.893 -17.590  0.00  0.00    +0.139 C 
ATOM      6  O   UNL     1      35.286 -21.741 -19.366  0.00  0.00    -0.268 OA
ATOM      7  N   UNL     1      33.102 -20.931 -19.016  0.00  0.00    -0.257 N 
ATOM      8  C   UNL     1      34.392 -20.932 -19.589  0.00  0.00    +0.269 C 
ATOM      9  H   UNL     1      32.505 -20.204 -19.306  0.00  0.00    +0.157 HD
ENDROOT
BRANCH   3  15
ATOM     10  S   UNL     1      30.629 -23.636 -13.192  0.00  0.00    -0.081 S 
ATOM     11  O   UNL     1      27.228 -22.649 -16.533  0.00  0.00    -0.354 OA
ATOM     12  N   UNL     1      29.439 -24.158 -15.579  0.00  0.00    -0.245 NA
ATOM     13  N   UNL     1      29.604 -25.880 -14.026  0.00  0.00    -0.338 N 
ATOM     14  C   UNL     1      29.442 -21.770 -14.920  0.00  0.00    +0.044 C 
ATOM     15  C   UNL     1      29.651 -22.788 -16.073  0.00  0.00    +0.166 C 
ATOM     16  C   UNL     1      27.991 -21.787 -14.401  0.00  0.00    +0.033 C 
ATOM     17  C   UNL     1      27.010 -21.625 -15.562  0.00  0.00    +0.116 C 
ATOM     18  C   UNL     1      28.528 -22.576 -17.123  0.00  0.00    +0.172 C 
ATOM     19  C   UNL     1      30.464 -21.949 -13.799  0.00  0.00    +0.067 C 
ATOM     20  C   UNL     1      25.569 -21.740 -15.081  0.00  0.00    +0.032 C 
ATOM     21  C   UNL     1      29.814 -24.587 -14.424  0.00  0.00    +0.148 C 
ATOM     22  H   UNL     1      29.902 -26.178 -13.137  0.00  0.00    +0.144 HD
ATOM     23  H   UNL     1      29.153 -26.514 -14.631  0.00  0.00    +0.144 HD
ENDBRANCH   3  15
BRANCH   8  25
ATOM     24  N   UNL     1      33.679 -19.605 -21.463  0.00  0.00    -0.236 NA
ATOM     25  C   UNL     1      34.667 -19.851 -20.573  0.00  0.00    +0.135 C 
ATOM     26  C   UNL     1      35.871 -19.168 -20.542  0.00  0.00    +0.027 C 
ATOM     27  C   UNL     1      36.075 -18.167 -21.486  0.00  0.00    +0.040 C 
ATOM     28  C   UNL     1      33.914 -18.626 -22.365  0.00  0.00    +0.136 C 
ATOM     29  C   UNL     1      35.084 -17.885 -22.418  0.00  0.00    +0.163 C 
BRANCH  29  30
ATOM     30  O   UNL     1      35.256 -16.914 -23.349  0.00  0.00    -0.422 OA
BRANCH  30  33
ATOM     31  F   UNL     1      34.724 -14.784 -22.865  0.00  0.00    -0.155 F 
ATOM     32  F   UNL     1      34.052 -15.613 -24.760  0.00  0.00    -0.155 F 
ATOM     33  C   UNL     1      34.248 -15.913 -23.452  0.00  0.00    +0.509 C 
ENDBRANCH  30  33
ENDBRANCH  29  30
ENDBRANCH   8  25
TORSDOF 4
ENDMDL
