MODEL 1
REMARK VINA RESULT:     -11.3      0.000      0.000
REMARK  Name = 22425
REMARK  7 active torsions:
REMARK  status: ('A' for Active; 'I' for Inactive)
REMARK    1  A    between atoms: C_9  and  O_17
REMARK    2  A    between atoms: O_17  and  C_18
REMARK    3  A    between atoms: C_18  and  C_19
REMARK    4  A    between atoms: C_19  and  O_20
REMARK    5  A    between atoms: O_20  and  C_21
REMARK    6  A    between atoms: C_21  and  C_22
REMARK    7  A    between atoms: C_22  and  N_23
REMARK                            x       y       z     vdW  Elec       q    Type
REMARK                         _______ _______ _______ _____ _____    ______ ____
ROOT
ATOM      1  S   UNL     1      34.545 -24.553 -14.149  0.00  0.00    -0.083 S 
ATOM      2  O   UNL     1      31.712 -21.851 -17.862  0.00  0.00    -0.225 OA
ATOM      3  N   UNL     1      33.385 -22.693 -16.429  0.00  0.00    -0.187 N 
ATOM      4  N   UNL     1      31.160 -22.824 -15.524  0.00  0.00    -0.228 NA
ATOM      5  C   UNL     1      34.795 -22.595 -16.120  0.00  0.00    +0.069 C 
ATOM      6  C   UNL     1      32.476 -23.154 -15.398  0.00  0.00    +0.150 C 
ATOM      7  C   UNL     1      35.417 -23.363 -15.124  0.00  0.00    +0.044 C 
ATOM      8  C   UNL     1      32.901 -23.931 -14.320  0.00  0.00    +0.062 C 
ATOM      9  C   UNL     1      32.846 -22.290 -17.680  0.00  0.00    +0.414 C 
ATOM     10  C   UNL     1      35.597 -21.640 -16.784  0.00  0.00    +0.016 C 
ATOM     11  C   UNL     1      36.794 -23.227 -14.866  0.00  0.00    +0.008 C 
ATOM     12  C   UNL     1      31.961 -24.327 -13.356  0.00  0.00    +0.011 C 
ATOM     13  C   UNL     1      36.962 -21.503 -16.521  0.00  0.00    +0.001 C 
ATOM     14  C   UNL     1      37.565 -22.305 -15.567  0.00  0.00    +0.001 C 
ATOM     15  C   UNL     1      30.630 -23.961 -13.474  0.00  0.00    +0.021 C 
ATOM     16  C   UNL     1      30.281 -23.218 -14.576  0.00  0.00    +0.100 C 
ENDROOT
BRANCH   9  17
ATOM     17  O   UNL     1      33.699 -22.531 -18.731  0.00  0.00    -0.431 OA
BRANCH  17  18
ATOM     18  C   UNL     1      33.548 -21.691 -19.882  0.00  0.00    +0.242 C 
BRANCH  18  19
ATOM     19  C   UNL     1      34.681 -20.684 -19.912  0.00  0.00    +0.189 C 
BRANCH  19  20
ATOM     20  O   UNL     1      34.149 -19.392 -20.179  0.00  0.00    -0.352 OA
BRANCH  20  21
ATOM     21  C   UNL     1      34.520 -18.932 -21.470  0.00  0.00    +0.120 C 
BRANCH  21  22
ATOM     22  C   UNL     1      35.433 -17.726 -21.317  0.00  0.00    -0.045 C 
BRANCH  22  23
ATOM     23  N   UNL     1      35.120 -16.710 -22.320  0.00  0.00    +0.389 N 
ATOM     24  C   UNL     1      34.333 -17.295 -23.416  0.00  0.00    -0.077 C 
ATOM     25  C   UNL     1      34.414 -15.578 -21.705  0.00  0.00    -0.077 C 
ATOM     26  C   UNL     1      34.039 -16.255 -24.499  0.00  0.00    -0.023 C 
ATOM     27  C   UNL     1      34.123 -14.483 -22.732  0.00  0.00    -0.023 C 
ATOM     28  C   UNL     1      33.340 -15.031 -23.919  0.00  0.00    -0.004 C 
ATOM     29  H   UNL     1      35.994 -16.359 -22.714  0.00  0.00    -0.080 HD
ENDBRANCH  22  23
ENDBRANCH  21  22
ENDBRANCH  20  21
ENDBRANCH  19  20
ENDBRANCH  18  19
ENDBRANCH  17  18
ENDBRANCH   9  17
TORSDOF 7
ENDMDL
MODEL 2
REMARK VINA RESULT:     -11.0      1.494      2.307
REMARK  Name = 22425
REMARK  7 active torsions:
REMARK  status: ('A' for Active; 'I' for Inactive)
REMARK    1  A    between atoms: C_9  and  O_17
REMARK    2  A    between atoms: O_17  and  C_18
REMARK    3  A    between atoms: C_18  and  C_19
REMARK    4  A    between atoms: C_19  and  O_20
REMARK    5  A    between atoms: O_20  and  C_21
REMARK    6  A    between atoms: C_21  and  C_22
REMARK    7  A    between atoms: C_22  and  N_23
REMARK                            x       y       z     vdW  Elec       q    Type
REMARK                         _______ _______ _______ _____ _____    ______ ____
ROOT
ATOM      1  S   UNL     1      31.477 -24.640 -13.879  0.00  0.00    -0.083 S 
ATOM      2  O   UNL     1      31.754 -21.606 -18.332  0.00  0.00    -0.225 OA
ATOM      3  N   UNL     1      32.174 -22.730 -16.302  0.00  0.00    -0.187 N 
ATOM      4  N   UNL     1      29.853 -22.225 -16.683  0.00  0.00    -0.228 NA
ATOM      5  C   UNL     1      33.195 -22.967 -15.305  0.00  0.00    +0.069 C 
ATOM      6  C   UNL     1      30.782 -22.866 -15.920  0.00  0.00    +0.150 C 
ATOM      7  C   UNL     1      32.997 -23.788 -14.184  0.00  0.00    +0.044 C 
ATOM      8  C   UNL     1      30.377 -23.639 -14.830  0.00  0.00    +0.062 C 
ATOM      9  C   UNL     1      32.478 -22.302 -17.622  0.00  0.00    +0.414 C 
ATOM     10  C   UNL     1      34.437 -22.300 -15.396  0.00  0.00    +0.016 C 
ATOM     11  C   UNL     1      34.027 -23.984 -13.245  0.00  0.00    +0.008 C 
ATOM     12  C   UNL     1      29.011 -23.709 -14.517  0.00  0.00    +0.011 C 
ATOM     13  C   UNL     1      35.455 -22.492 -14.458  0.00  0.00    +0.001 C 
ATOM     14  C   UNL     1      35.254 -23.344 -13.386  0.00  0.00    +0.001 C 
ATOM     15  C   UNL     1      28.075 -23.029 -15.280  0.00  0.00    +0.021 C 
ATOM     16  C   UNL     1      28.545 -22.310 -16.352  0.00  0.00    +0.100 C 
ENDROOT
BRANCH   9  17
ATOM     17  O   UNL     1      33.654 -22.832 -18.096  0.00  0.00    -0.431 OA
BRANCH  17  18
ATOM     18  C   UNL     1      34.331 -22.077 -19.110  0.00  0.00    +0.242 C 
BRANCH  18  19
ATOM     19  C   UNL     1      35.394 -21.215 -18.458  0.00  0.00    +0.189 C 
BRANCH  19  20
ATOM     20  O   UNL     1      35.988 -20.382 -19.447  0.00  0.00    -0.352 OA
BRANCH  20  21
ATOM     21  C   UNL     1      35.012 -19.828 -20.317  0.00  0.00    +0.120 C 
BRANCH  21  22
ATOM     22  C   UNL     1      35.655 -18.714 -21.127  0.00  0.00    -0.045 C 
BRANCH  22  23
ATOM     23  N   UNL     1      34.672 -18.078 -22.002  0.00  0.00    +0.389 N 
ATOM     24  C   UNL     1      35.102 -16.718 -22.357  0.00  0.00    -0.077 C 
ATOM     25  C   UNL     1      34.449 -18.894 -23.204  0.00  0.00    -0.077 C 
ATOM     26  C   UNL     1      34.060 -16.020 -23.233  0.00  0.00    -0.023 C 
ATOM     27  C   UNL     1      33.386 -18.267 -24.108  0.00  0.00    -0.023 C 
ATOM     28  C   UNL     1      33.751 -16.836 -24.483  0.00  0.00    -0.004 C 
ATOM     29  H   UNL     1      33.785 -18.007 -21.502  0.00  0.00    -0.080 HD
ENDBRANCH  22  23
ENDBRANCH  21  22
ENDBRANCH  20  21
ENDBRANCH  19  20
ENDBRANCH  18  19
ENDBRANCH  17  18
ENDBRANCH   9  17
TORSDOF 7
ENDMDL
MODEL 3
REMARK VINA RESULT:     -10.5      2.226      4.041
REMARK  Name = 22425
REMARK  7 active torsions:
REMARK  status: ('A' for Active; 'I' for Inactive)
REMARK    1  A    between atoms: C_9  and  O_17
REMARK    2  A    between atoms: O_17  and  C_18
REMARK    3  A    between atoms: C_18  and  C_19
REMARK    4  A    between atoms: C_19  and  O_20
REMARK    5  A    between atoms: O_20  and  C_21
REMARK    6  A    between atoms: C_21  and  C_22
REMARK    7  A    between atoms: C_22  and  N_23
REMARK                            x       y       z     vdW  Elec       q    Type
REMARK                         _______ _______ _______ _____ _____    ______ ____
ROOT
ATOM      1  S   UNL     1      34.076 -23.762 -12.534  0.00  0.00    -0.083 S 
ATOM      2  O   UNL     1      37.888 -22.550 -16.155  0.00  0.00    -0.225 OA
ATOM      3  N   UNL     1      35.866 -23.001 -15.027  0.00  0.00    -0.187 N 
ATOM      4  N   UNL     1      37.775 -24.146 -14.115  0.00  0.00    -0.228 NA
ATOM      5  C   UNL     1      34.430 -23.028 -15.202  0.00  0.00    +0.069 C 
ATOM      6  C   UNL     1      36.457 -23.822 -13.990  0.00  0.00    +0.150 C 
ATOM      7  C   UNL     1      33.538 -23.359 -14.170  0.00  0.00    +0.044 C 
ATOM      8  C   UNL     1      35.734 -24.258 -12.878  0.00  0.00    +0.062 C 
ATOM      9  C   UNL     1      36.726 -22.256 -15.878  0.00  0.00    +0.414 C 
ATOM     10  C   UNL     1      33.870 -22.783 -16.475  0.00  0.00    +0.016 C 
ATOM     11  C   UNL     1      32.149 -23.368 -14.396  0.00  0.00    +0.008 C 
ATOM     12  C   UNL     1      36.376 -25.062 -11.923  0.00  0.00    +0.011 C 
ATOM     13  C   UNL     1      32.490 -22.800 -16.697  0.00  0.00    +0.001 C 
ATOM     14  C   UNL     1      31.627 -23.083 -15.653  0.00  0.00    +0.001 C 
ATOM     15  C   UNL     1      37.708 -25.412 -12.074  0.00  0.00    +0.021 C 
ATOM     16  C   UNL     1      38.362 -24.924 -13.180  0.00  0.00    +0.100 C 
ENDROOT
BRANCH   9  17
ATOM     17  O   UNL     1      36.161 -21.078 -16.308  0.00  0.00    -0.431 OA
BRANCH  17  18
ATOM     18  C   UNL     1      36.665 -20.541 -17.538  0.00  0.00    +0.242 C 
BRANCH  18  19
ATOM     19  C   UNL     1      35.739 -20.945 -18.669  0.00  0.00    +0.189 C 
BRANCH  19  20
ATOM     20  O   UNL     1      35.864 -20.006 -19.731  0.00  0.00    -0.352 OA
BRANCH  20  21
ATOM     21  C   UNL     1      34.623 -19.792 -20.386  0.00  0.00    +0.120 C 
BRANCH  21  22
ATOM     22  C   UNL     1      34.894 -19.359 -21.818  0.00  0.00    -0.045 C 
BRANCH  22  23
ATOM     23  N   UNL     1      34.315 -18.041 -22.077  0.00  0.00    +0.389 N 
ATOM     24  C   UNL     1      34.958 -17.023 -21.234  0.00  0.00    -0.077 C 
ATOM     25  C   UNL     1      34.429 -17.700 -23.501  0.00  0.00    -0.077 C 
ATOM     26  C   UNL     1      34.330 -15.646 -21.458  0.00  0.00    -0.023 C 
ATOM     27  C   UNL     1      33.785 -16.346 -23.799  0.00  0.00    -0.023 C 
ATOM     28  C   UNL     1      34.379 -15.246 -22.928  0.00  0.00    -0.004 C 
ATOM     29  H   UNL     1      33.323 -18.066 -21.839  0.00  0.00    -0.080 HD
ENDBRANCH  22  23
ENDBRANCH  21  22
ENDBRANCH  20  21
ENDBRANCH  19  20
ENDBRANCH  18  19
ENDBRANCH  17  18
ENDBRANCH   9  17
TORSDOF 7
ENDMDL
MODEL 4
REMARK VINA RESULT:     -10.2      6.920     10.617
REMARK  Name = 22425
REMARK  7 active torsions:
REMARK  status: ('A' for Active; 'I' for Inactive)
REMARK    1  A    between atoms: C_9  and  O_17
REMARK    2  A    between atoms: O_17  and  C_18
REMARK    3  A    between atoms: C_18  and  C_19
REMARK    4  A    between atoms: C_19  and  O_20
REMARK    5  A    between atoms: O_20  and  C_21
REMARK    6  A    between atoms: C_21  and  C_22
REMARK    7  A    between atoms: C_22  and  N_23
REMARK                            x       y       z     vdW  Elec       q    Type
REMARK                         _______ _______ _______ _____ _____    ______ ____
ROOT
ATOM      1  S   UNL     1      33.370 -16.657 -24.724  0.00  0.00    -0.083 S 
ATOM      2  O   UNL     1      33.973 -14.585 -19.779  0.00  0.00    -0.225 OA
ATOM      3  N   UNL     1      33.658 -14.929 -22.091  0.00  0.00    -0.187 N 
ATOM      4  N   UNL     1      34.974 -16.632 -21.015  0.00  0.00    -0.228 NA
ATOM      5  C   UNL     1      33.386 -14.239 -23.333  0.00  0.00    +0.069 C 
ATOM      6  C   UNL     1      34.329 -16.213 -22.140  0.00  0.00    +0.150 C 
ATOM      7  C   UNL     1      33.247 -14.900 -24.563  0.00  0.00    +0.044 C 
ATOM      8  C   UNL     1      34.310 -17.024 -23.276  0.00  0.00    +0.062 C 
ATOM      9  C   UNL     1      33.357 -14.367 -20.822  0.00  0.00    +0.414 C 
ATOM     10  C   UNL     1      33.322 -12.828 -23.356  0.00  0.00    +0.016 C 
ATOM     11  C   UNL     1      32.981 -14.177 -25.741  0.00  0.00    +0.008 C 
ATOM     12  C   UNL     1      34.995 -18.249 -23.248  0.00  0.00    +0.011 C 
ATOM     13  C   UNL     1      33.065 -12.114 -24.529  0.00  0.00    +0.001 C 
ATOM     14  C   UNL     1      32.884 -12.790 -25.723  0.00  0.00    +0.001 C 
ATOM     15  C   UNL     1      35.674 -18.653 -22.110  0.00  0.00    +0.021 C 
ATOM     16  C   UNL     1      35.627 -17.815 -21.022  0.00  0.00    +0.100 C 
ENDROOT
BRANCH   9  17
ATOM     17  O   UNL     1      32.214 -13.603 -20.834  0.00  0.00    -0.431 OA
BRANCH  17  18
ATOM     18  C   UNL     1      32.207 -12.452 -19.981  0.00  0.00    +0.242 C 
BRANCH  18  19
ATOM     19  C   UNL     1      31.479 -11.321 -20.682  0.00  0.00    +0.189 C 
BRANCH  19  20
ATOM     20  O   UNL     1      31.180 -10.303 -19.735  0.00  0.00    -0.352 OA
BRANCH  20  21
ATOM     21  C   UNL     1      30.900  -9.065 -20.372  0.00  0.00    +0.120 C 
BRANCH  21  22
ATOM     22  C   UNL     1      31.075  -9.236 -21.872  0.00  0.00    -0.045 C 
BRANCH  22  23
ATOM     23  N   UNL     1      31.833  -8.119 -22.435  0.00  0.00    +0.389 N 
ATOM     24  C   UNL     1      32.104  -7.109 -21.401  0.00  0.00    -0.077 C 
ATOM     25  C   UNL     1      33.079  -8.599 -23.048  0.00  0.00    -0.077 C 
ATOM     26  C   UNL     1      32.854  -5.911 -21.985  0.00  0.00    -0.023 C 
ATOM     27  C   UNL     1      33.860  -7.450 -23.685  0.00  0.00    -0.023 C 
ATOM     28  C   UNL     1      34.143  -6.344 -22.675  0.00  0.00    -0.004 C 
ATOM     29  H   UNL     1      31.273  -7.679 -23.165  0.00  0.00    -0.080 HD
ENDBRANCH  22  23
ENDBRANCH  21  22
ENDBRANCH  20  21
ENDBRANCH  19  20
ENDBRANCH  18  19
ENDBRANCH  17  18
ENDBRANCH   9  17
TORSDOF 7
ENDMDL
MODEL 5
REMARK VINA RESULT:      -9.6      3.930      8.778
REMARK  Name = 22425
REMARK  7 active torsions:
REMARK  status: ('A' for Active; 'I' for Inactive)
REMARK    1  A    between atoms: C_9  and  O_17
REMARK    2  A    between atoms: O_17  and  C_18
REMARK    3  A    between atoms: C_18  and  C_19
REMARK    4  A    between atoms: C_19  and  O_20
REMARK    5  A    between atoms: O_20  and  C_21
REMARK    6  A    between atoms: C_21  and  C_22
REMARK    7  A    between atoms: C_22  and  N_23
REMARK                            x       y       z     vdW  Elec       q    Type
REMARK                         _______ _______ _______ _____ _____    ______ ____
ROOT
ATOM      1  S   UNL     1      32.004 -22.600 -17.679  0.00  0.00    -0.083 S 
ATOM      2  O   UNL     1      36.903 -22.899 -15.438  0.00  0.00    -0.225 OA
ATOM      3  N   UNL     1      34.585 -22.801 -15.863  0.00  0.00    -0.187 N 
ATOM      4  N   UNL     1      35.932 -21.666 -17.500  0.00  0.00    -0.228 NA
ATOM      5  C   UNL     1      33.291 -22.864 -15.218  0.00  0.00    +0.069 C 
ATOM      6  C   UNL     1      34.698 -22.112 -17.132  0.00  0.00    +0.150 C 
ATOM      7  C   UNL     1      32.080 -22.777 -15.921  0.00  0.00    +0.044 C 
ATOM      8  C   UNL     1      33.606 -21.920 -17.979  0.00  0.00    +0.062 C 
ATOM      9  C   UNL     1      35.763 -23.327 -15.267  0.00  0.00    +0.414 C 
ATOM     10  C   UNL     1      33.208 -22.946 -13.811  0.00  0.00    +0.016 C 
ATOM     11  C   UNL     1      30.849 -22.846 -15.242  0.00  0.00    +0.008 C 
ATOM     12  C   UNL     1      33.795 -21.231 -19.187  0.00  0.00    +0.011 C 
ATOM     13  C   UNL     1      31.984 -23.007 -13.139  0.00  0.00    +0.001 C 
ATOM     14  C   UNL     1      30.801 -22.967 -13.858  0.00  0.00    +0.001 C 
ATOM     15  C   UNL     1      35.047 -20.753 -19.540  0.00  0.00    +0.021 C 
ATOM     16  C   UNL     1      36.080 -21.002 -18.668  0.00  0.00    +0.100 C 
ENDROOT
BRANCH   9  17
ATOM     17  O   UNL     1      35.526 -24.463 -14.529  0.00  0.00    -0.431 OA
BRANCH  17  18
ATOM     18  C   UNL     1      35.539 -25.704 -15.246  0.00  0.00    +0.242 C 
BRANCH  18  19
ATOM     19  C   UNL     1      36.702 -26.545 -14.757  0.00  0.00    +0.189 C 
BRANCH  19  20
ATOM     20  O   UNL     1      37.914 -25.830 -14.967  0.00  0.00    -0.352 OA
BRANCH  20  21
ATOM     21  C   UNL     1      38.805 -25.982 -13.872  0.00  0.00    +0.120 C 
BRANCH  21  22
ATOM     22  C   UNL     1      38.919 -24.651 -13.145  0.00  0.00    -0.045 C 
BRANCH  22  23
ATOM     23  N   UNL     1      37.625 -24.250 -12.596  0.00  0.00    +0.389 N 
ATOM     24  C   UNL     1      37.147 -25.245 -11.625  0.00  0.00    -0.077 C 
ATOM     25  C   UNL     1      37.716 -22.916 -11.986  0.00  0.00    -0.077 C 
ATOM     26  C   UNL     1      35.771 -24.864 -11.077  0.00  0.00    -0.023 C 
ATOM     27  C   UNL     1      36.359 -22.459 -11.450  0.00  0.00    -0.023 C 
ATOM     28  C   UNL     1      35.784 -23.469 -10.464  0.00  0.00    -0.004 C 
ATOM     29  H   UNL     1      36.947 -24.201 -13.357  0.00  0.00    -0.080 HD
ENDBRANCH  22  23
ENDBRANCH  21  22
ENDBRANCH  20  21
ENDBRANCH  19  20
ENDBRANCH  18  19
ENDBRANCH  17  18
ENDBRANCH   9  17
TORSDOF 7
ENDMDL
MODEL 6
REMARK VINA RESULT:      -9.3      1.717      3.702
REMARK  Name = 22425
REMARK  7 active torsions:
REMARK  status: ('A' for Active; 'I' for Inactive)
REMARK    1  A    between atoms: C_9  and  O_17
REMARK    2  A    between atoms: O_17  and  C_18
REMARK    3  A    between atoms: C_18  and  C_19
REMARK    4  A    between atoms: C_19  and  O_20
REMARK    5  A    between atoms: O_20  and  C_21
REMARK    6  A    between atoms: C_21  and  C_22
REMARK    7  A    between atoms: C_22  and  N_23
REMARK                            x       y       z     vdW  Elec       q    Type
REMARK                         _______ _______ _______ _____ _____    ______ ____
ROOT
ATOM      1  S   UNL     1      31.910 -22.452 -13.061  0.00  0.00    -0.083 S 
ATOM      2  O   UNL     1      34.041 -23.261 -17.952  0.00  0.00    -0.225 OA
ATOM      3  N   UNL     1      32.609 -22.901 -16.113  0.00  0.00    -0.187 N 
ATOM      4  N   UNL     1      34.631 -24.082 -15.565  0.00  0.00    -0.228 NA
ATOM      5  C   UNL     1      31.225 -22.675 -15.756  0.00  0.00    +0.069 C 
ATOM      6  C   UNL     1      33.501 -23.464 -15.120  0.00  0.00    +0.150 C 
ATOM      7  C   UNL     1      30.796 -22.473 -14.435  0.00  0.00    +0.044 C 
ATOM      8  C   UNL     1      33.251 -23.370 -13.750  0.00  0.00    +0.062 C 
ATOM      9  C   UNL     1      33.111 -22.657 -17.419  0.00  0.00    +0.414 C 
ATOM     10  C   UNL     1      30.223 -22.726 -16.751  0.00  0.00    +0.016 C 
ATOM     11  C   UNL     1      29.436 -22.257 -14.146  0.00  0.00    +0.008 C 
ATOM     12  C   UNL     1      34.158 -23.954 -12.852  0.00  0.00    +0.011 C 
ATOM     13  C   UNL     1      28.873 -22.518 -16.459  0.00  0.00    +0.001 C 
ATOM     14  C   UNL     1      28.479 -22.273 -15.155  0.00  0.00    +0.001 C 
ATOM     15  C   UNL     1      35.289 -24.607 -13.314  0.00  0.00    +0.021 C 
ATOM     16  C   UNL     1      35.483 -24.637 -14.675  0.00  0.00    +0.100 C 
ENDROOT
BRANCH   9  17
ATOM     17  O   UNL     1      32.512 -21.580 -18.028  0.00  0.00    -0.431 OA
BRANCH  17  18
ATOM     18  C   UNL     1      33.169 -21.058 -19.191  0.00  0.00    +0.242 C 
BRANCH  18  19
ATOM     19  C   UNL     1      32.192 -20.192 -19.963  0.00  0.00    +0.189 C 
BRANCH  19  20
ATOM     20  O   UNL     1      32.820 -19.731 -21.154  0.00  0.00    -0.352 OA
BRANCH  20  21
ATOM     21  C   UNL     1      34.011 -19.013 -20.870  0.00  0.00    +0.120 C 
BRANCH  21  22
ATOM     22  C   UNL     1      34.884 -19.002 -22.115  0.00  0.00    -0.045 C 
BRANCH  22  23
ATOM     23  N   UNL     1      34.835 -17.696 -22.770  0.00  0.00    +0.389 N 
ATOM     24  C   UNL     1      33.849 -17.704 -23.861  0.00  0.00    -0.077 C 
ATOM     25  C   UNL     1      34.534 -16.640 -21.792  0.00  0.00    -0.077 C 
ATOM     26  C   UNL     1      33.821 -16.359 -24.588  0.00  0.00    -0.023 C 
ATOM     27  C   UNL     1      34.528 -15.261 -22.452  0.00  0.00    -0.023 C 
ATOM     28  C   UNL     1      33.553 -15.211 -23.622  0.00  0.00    -0.004 C 
ATOM     29  H   UNL     1      35.750 -17.497 -23.174  0.00  0.00    -0.080 HD
ENDBRANCH  22  23
ENDBRANCH  21  22
ENDBRANCH  20  21
ENDBRANCH  19  20
ENDBRANCH  18  19
ENDBRANCH  17  18
ENDBRANCH   9  17
TORSDOF 7
ENDMDL
MODEL 7
REMARK VINA RESULT:      -9.3      9.114     15.804
REMARK  Name = 22425
REMARK  7 active torsions:
REMARK  status: ('A' for Active; 'I' for Inactive)
REMARK    1  A    between atoms: C_9  and  O_17
REMARK    2  A    between atoms: O_17  and  C_18
REMARK    3  A    between atoms: C_18  and  C_19
REMARK    4  A    between atoms: C_19  and  O_20
REMARK    5  A    between atoms: O_20  and  C_21
REMARK    6  A    between atoms: C_21  and  C_22
REMARK    7  A    between atoms: C_22  and  N_23
REMARK                            x       y       z     vdW  Elec       q    Type
REMARK                         _______ _______ _______ _____ _____    ______ ____
ROOT
ATOM      1  S   UNL     1      30.919  -4.453 -24.612  0.00  0.00    -0.083 S 
ATOM      2  O   UNL     1      34.759  -8.116 -23.639  0.00  0.00    -0.225 OA
ATOM      3  N   UNL     1      33.022  -6.528 -23.484  0.00  0.00    -0.187 N 
ATOM      4  N   UNL     1      34.478  -6.209 -25.372  0.00  0.00    -0.228 NA
ATOM      5  C   UNL     1      32.127  -5.886 -22.546  0.00  0.00    +0.069 C 
ATOM      6  C   UNL     1      33.334  -5.848 -24.726  0.00  0.00    +0.150 C 
ATOM      7  C   UNL     1      31.160  -4.944 -22.930  0.00  0.00    +0.044 C 
ATOM      8  C   UNL     1      32.499  -4.875 -25.276  0.00  0.00    +0.062 C 
ATOM      9  C   UNL     1      33.662  -7.765 -23.206  0.00  0.00    +0.414 C 
ATOM     10  C   UNL     1      32.252  -6.144 -21.163  0.00  0.00    +0.016 C 
ATOM     11  C   UNL     1      30.314  -4.351 -21.974  0.00  0.00    +0.008 C 
ATOM     12  C   UNL     1      32.879  -4.254 -26.476  0.00  0.00    +0.011 C 
ATOM     13  C   UNL     1      31.415  -5.548 -20.216  0.00  0.00    +0.001 C 
ATOM     14  C   UNL     1      30.436  -4.658 -20.623  0.00  0.00    +0.001 C 
ATOM     15  C   UNL     1      34.059  -4.604 -27.111  0.00  0.00    +0.021 C 
ATOM     16  C   UNL     1      34.817  -5.589 -26.523  0.00  0.00    +0.100 C 
ENDROOT
BRANCH   9  17
ATOM     17  O   UNL     1      32.879  -8.615 -22.461  0.00  0.00    -0.431 OA
BRANCH  17  18
ATOM     18  C   UNL     1      31.950  -9.429 -23.189  0.00  0.00    +0.242 C 
BRANCH  18  19
ATOM     19  C   UNL     1      32.468 -10.854 -23.230  0.00  0.00    +0.189 C 
BRANCH  19  20
ATOM     20  O   UNL     1      31.964 -11.564 -22.105  0.00  0.00    -0.352 OA
BRANCH  20  21
ATOM     21  C   UNL     1      32.231 -12.955 -22.205  0.00  0.00    +0.120 C 
BRANCH  21  22
ATOM     22  C   UNL     1      33.669 -13.209 -21.783  0.00  0.00    -0.045 C 
BRANCH  22  23
ATOM     23  N   UNL     1      34.223 -14.357 -22.499  0.00  0.00    +0.389 N 
ATOM     24  C   UNL     1      34.272 -15.536 -21.622  0.00  0.00    -0.077 C 
ATOM     25  C   UNL     1      33.444 -14.631 -23.714  0.00  0.00    -0.077 C 
ATOM     26  C   UNL     1      34.895 -16.733 -22.342  0.00  0.00    -0.023 C 
ATOM     27  C   UNL     1      34.040 -15.798 -24.502  0.00  0.00    -0.023 C 
ATOM     28  C   UNL     1      34.156 -17.048 -23.638  0.00  0.00    -0.004 C 
ATOM     29  H   UNL     1      35.178 -14.136 -22.782  0.00  0.00    -0.080 HD
ENDBRANCH  22  23
ENDBRANCH  21  22
ENDBRANCH  20  21
ENDBRANCH  19  20
ENDBRANCH  18  19
ENDBRANCH  17  18
ENDBRANCH   9  17
TORSDOF 7
ENDMDL
MODEL 8
REMARK VINA RESULT:      -9.1      2.497      3.841
REMARK  Name = 22425
REMARK  7 active torsions:
REMARK  status: ('A' for Active; 'I' for Inactive)
REMARK    1  A    between atoms: C_9  and  O_17
REMARK    2  A    between atoms: O_17  and  C_18
REMARK    3  A    between atoms: C_18  and  C_19
REMARK    4  A    between atoms: C_19  and  O_20
REMARK    5  A    between atoms: O_20  and  C_21
REMARK    6  A    between atoms: C_21  and  C_22
REMARK    7  A    between atoms: C_22  and  N_23
REMARK                            x       y       z     vdW  Elec       q    Type
REMARK                         _______ _______ _______ _____ _____    ______ ____
ROOT
ATOM      1  S   UNL     1      37.743 -23.989 -13.541  0.00  0.00    -0.083 S 
ATOM      2  O   UNL     1      32.413 -23.158 -13.435  0.00  0.00    -0.225 OA
ATOM      3  N   UNL     1      34.716 -23.168 -13.945  0.00  0.00    -0.187 N 
ATOM      4  N   UNL     1      34.225 -23.500 -11.613  0.00  0.00    -0.228 NA
ATOM      5  C   UNL     1      35.687 -22.685 -14.903  0.00  0.00    +0.069 C 
ATOM      6  C   UNL     1      35.161 -23.491 -12.604  0.00  0.00    +0.150 C 
ATOM      7  C   UNL     1      37.057 -22.978 -14.820  0.00  0.00    +0.044 C 
ATOM      8  C   UNL     1      36.488 -23.810 -12.312  0.00  0.00    +0.062 C 
ATOM      9  C   UNL     1      33.331 -23.272 -14.246  0.00  0.00    +0.414 C 
ATOM     10  C   UNL     1      35.281 -21.819 -15.941  0.00  0.00    +0.016 C 
ATOM     11  C   UNL     1      37.957 -22.483 -15.781  0.00  0.00    +0.008 C 
ATOM     12  C   UNL     1      36.841 -24.098 -10.985  0.00  0.00    +0.011 C 
ATOM     13  C   UNL     1      36.180 -21.322 -16.890  0.00  0.00    +0.001 C 
ATOM     14  C   UNL     1      37.519 -21.664 -16.816  0.00  0.00    +0.001 C 
ATOM     15  C   UNL     1      35.890 -24.075  -9.979  0.00  0.00    +0.021 C 
ATOM     16  C   UNL     1      34.599 -23.778 -10.345  0.00  0.00    +0.100 C 
ENDROOT
BRANCH   9  17
ATOM     17  O   UNL     1      33.095 -23.622 -15.554  0.00  0.00    -0.431 OA
BRANCH  17  18
ATOM     18  C   UNL     1      32.171 -22.800 -16.278  0.00  0.00    +0.242 C 
BRANCH  18  19
ATOM     19  C   UNL     1      32.516 -22.849 -17.754  0.00  0.00    +0.189 C 
BRANCH  19  20
ATOM     20  O   UNL     1      32.346 -21.552 -18.315  0.00  0.00    -0.352 OA
BRANCH  20  21
ATOM     21  C   UNL     1      33.387 -21.238 -19.227  0.00  0.00    +0.120 C 
BRANCH  21  22
ATOM     22  C   UNL     1      32.880 -20.194 -20.208  0.00  0.00    -0.045 C 
BRANCH  22  23
ATOM     23  N   UNL     1      33.951 -19.272 -20.582  0.00  0.00    +0.389 N 
ATOM     24  C   UNL     1      35.261 -19.830 -20.216  0.00  0.00    -0.077 C 
ATOM     25  C   UNL     1      33.888 -18.963 -22.017  0.00  0.00    -0.077 C 
ATOM     26  C   UNL     1      36.390 -18.855 -20.555  0.00  0.00    -0.023 C 
ATOM     27  C   UNL     1      34.971 -17.960 -22.415  0.00  0.00    -0.023 C 
ATOM     28  C   UNL     1      36.358 -18.460 -22.027  0.00  0.00    -0.004 C 
ATOM     29  H   UNL     1      33.826 -18.399 -20.067  0.00  0.00    -0.080 HD
ENDBRANCH  22  23
ENDBRANCH  21  22
ENDBRANCH  20  21
ENDBRANCH  19  20
ENDBRANCH  18  19
ENDBRANCH  17  18
ENDBRANCH   9  17
TORSDOF 7
ENDMDL
MODEL 9
REMARK VINA RESULT:      -8.9     10.027     16.282
REMARK  Name = 22425
REMARK  7 active torsions:
REMARK  status: ('A' for Active; 'I' for Inactive)
REMARK    1  A    between atoms: C_9  and  O_17
REMARK    2  A    between atoms: O_17  and  C_18
REMARK    3  A    between atoms: C_18  and  C_19
REMARK    4  A    between atoms: C_19  and  O_20
REMARK    5  A    between atoms: O_20  and  C_21
REMARK    6  A    between atoms: C_21  and  C_22
REMARK    7  A    between atoms: C_22  and  N_23
REMARK                            x       y       z     vdW  Elec       q    Type
REMARK                         _______ _______ _______ _____ _____    ______ ____
ROOT
ATOM      1  S   UNL     1      30.951  -4.088 -24.621  0.00  0.00    -0.083 S 
ATOM      2  O   UNL     1      34.747  -7.853 -23.892  0.00  0.00    -0.225 OA
ATOM      3  N   UNL     1      33.045  -6.241 -23.630  0.00  0.00    -0.187 N 
ATOM      4  N   UNL     1      34.455  -5.877 -25.545  0.00  0.00    -0.228 NA
ATOM      5  C   UNL     1      32.188  -5.619 -22.644  0.00  0.00    +0.069 C 
ATOM      6  C   UNL     1      33.336  -5.521 -24.854  0.00  0.00    +0.150 C 
ATOM      7  C   UNL     1      31.229  -4.647 -22.966  0.00  0.00    +0.044 C 
ATOM      8  C   UNL     1      32.504  -4.513 -25.345  0.00  0.00    +0.062 C 
ATOM      9  C   UNL     1      33.669  -7.499 -23.416  0.00  0.00    +0.414 C 
ATOM     10  C   UNL     1      32.347  -5.931 -21.276  0.00  0.00    +0.016 C 
ATOM     11  C   UNL     1      30.421  -4.075 -21.965  0.00  0.00    +0.008 C 
ATOM     12  C   UNL     1      32.862  -3.855 -26.531  0.00  0.00    +0.011 C 
ATOM     13  C   UNL     1      31.547  -5.356 -20.284  0.00  0.00    +0.001 C 
ATOM     14  C   UNL     1      30.575  -4.434 -20.631  0.00  0.00    +0.001 C 
ATOM     15  C   UNL     1      34.018  -4.202 -27.211  0.00  0.00    +0.021 C 
ATOM     16  C   UNL     1      34.773  -5.221 -26.682  0.00  0.00    +0.100 C 
ENDROOT
BRANCH   9  17
ATOM     17  O   UNL     1      32.891  -8.363 -22.682  0.00  0.00    -0.431 OA
BRANCH  17  18
ATOM     18  C   UNL     1      31.745  -8.911 -23.346  0.00  0.00    +0.242 C 
BRANCH  18  19
ATOM     19  C   UNL     1      30.746  -9.377 -22.304  0.00  0.00    +0.189 C 
BRANCH  19  20
ATOM     20  O   UNL     1      31.331  -9.256 -21.013  0.00  0.00    -0.352 OA
BRANCH  20  21
ATOM     21  C   UNL     1      31.152 -10.438 -20.246  0.00  0.00    +0.120 C 
BRANCH  21  22
ATOM     22  C   UNL     1      30.989 -11.615 -21.194  0.00  0.00    -0.045 C 
BRANCH  22  23
ATOM     23  N   UNL     1      32.256 -12.326 -21.358  0.00  0.00    +0.389 N 
ATOM     24  C   UNL     1      32.293 -13.516 -20.495  0.00  0.00    -0.077 C 
ATOM     25  C   UNL     1      32.465 -12.686 -22.767  0.00  0.00    -0.077 C 
ATOM     26  C   UNL     1      33.633 -14.244 -20.619  0.00  0.00    -0.023 C 
ATOM     27  C   UNL     1      33.810 -13.387 -22.965  0.00  0.00    -0.023 C 
ATOM     28  C   UNL     1      33.933 -14.612 -22.068  0.00  0.00    -0.004 C 
ATOM     29  H   UNL     1      33.017 -11.708 -21.076  0.00  0.00    -0.080 HD
ENDBRANCH  22  23
ENDBRANCH  21  22
ENDBRANCH  20  21
ENDBRANCH  19  20
ENDBRANCH  18  19
ENDBRANCH  17  18
ENDBRANCH   9  17
TORSDOF 7
ENDMDL
