MODEL 1
REMARK VINA RESULT:      -6.9      0.000      0.000
REMARK  Name = 46188928
REMARK  3 active torsions:
REMARK  status: ('A' for Active; 'I' for Inactive)
REMARK    1  A    between atoms: C_5  and  C_28
REMARK    2  A    between atoms: C_12  and  N_17
REMARK    3  A    between atoms: C_18  and  O_24
REMARK                            x       y       z     vdW  Elec       q    Type
REMARK                         _______ _______ _______ _____ _____    ______ ____
ROOT
ATOM      1  N   UNL     1      31.004 -23.110 -16.513  0.00  0.00    -0.281 N 
ATOM      2  N   UNL     1      33.252 -22.701 -16.797  0.00  0.00    -0.372 NA
ATOM      3  N   UNL     1      33.958 -21.164 -18.505  0.00  0.00    -0.163 N 
ATOM      4  N   UNL     1      35.092 -20.628 -19.028  0.00  0.00    -0.173 NA
ATOM      5  C   UNL     1      31.197 -24.161 -15.510  0.00  0.00    +0.100 C 
ATOM      6  C   UNL     1      29.804 -24.795 -15.373  0.00  0.00    +0.026 C 
ATOM      7  C   UNL     1      28.848 -23.669 -15.740  0.00  0.00    +0.024 C 
ATOM      8  C   UNL     1      29.595 -22.924 -16.841  0.00  0.00    +0.093 C 
ATOM      9  C   UNL     1      32.009 -22.477 -17.157  0.00  0.00    +0.186 C 
ATOM     10  C   UNL     1      31.638 -21.533 -18.269  0.00  0.00    +0.066 C 
ATOM     11  C   UNL     1      34.241 -22.047 -17.468  0.00  0.00    +0.208 C 
ATOM     12  C   UNL     1      35.611 -22.064 -17.336  0.00  0.00    +0.186 C 
ATOM     13  C   UNL     1      32.648 -20.919 -18.891  0.00  0.00    +0.096 C 
ATOM     14  C   UNL     1      36.076 -21.178 -18.316  0.00  0.00    +0.120 C 
ENDROOT
BRANCH  12  17
ATOM     15  O   UNL     1      35.652 -21.944 -14.364  0.00  0.00    -0.253 OA
ATOM     16  N   UNL     1      37.215 -23.625 -14.380  0.00  0.00    -0.262 N 
ATOM     17  N   UNL     1      36.362 -22.822 -16.405  0.00  0.00    -0.278 N 
ATOM     18  C   UNL     1      38.968 -25.132 -13.874  0.00  0.00    +0.132 C 
ATOM     19  C   UNL     1      38.071 -24.980 -12.651  0.00  0.00    +0.053 C 
ATOM     20  C   UNL     1      38.109 -24.598 -15.014  0.00  0.00    +0.124 C 
ATOM     21  C   UNL     1      37.332 -23.678 -12.928  0.00  0.00    +0.098 C 
ATOM     22  C   UNL     1      36.349 -22.726 -15.013  0.00  0.00    +0.305 C 
ATOM     23  H   UNL     1      36.968 -23.499 -16.786  0.00  0.00    +0.152 HD
BRANCH  18  24
ATOM     24  O   UNL     1      40.124 -24.314 -13.739  0.00  0.00    -0.383 OA
ATOM     25  H   UNL     1      39.860 -23.382 -13.719  0.00  0.00    +0.210 HD
ENDBRANCH  18  24
ENDBRANCH  12  17
BRANCH   5  28
ATOM     26  F   UNL     1      30.004 -22.021 -14.074  0.00  0.00    -0.204 F 
ATOM     27  F   UNL     1      34.461 -24.304 -11.873  0.00  0.00    -0.204 F 
ATOM     28  C   UNL     1      31.735 -23.641 -14.191  0.00  0.00    +0.025 C 
ATOM     29  C   UNL     1      31.097 -22.585 -13.541  0.00  0.00    +0.138 C 
ATOM     30  C   UNL     1      32.872 -24.221 -13.628  0.00  0.00    +0.029 C 
ATOM     31  C   UNL     1      33.370 -23.747 -12.414  0.00  0.00    +0.140 C 
ATOM     32  C   UNL     1      31.595 -22.109 -12.328  0.00  0.00    +0.032 C 
ATOM     33  C   UNL     1      32.732 -22.689 -11.765  0.00  0.00    +0.032 C 
ENDBRANCH   5  28
TORSDOF 3
ENDMDL
MODEL 2
REMARK VINA RESULT:      -4.5     18.512     21.718
REMARK  Name = 46188928
REMARK  3 active torsions:
REMARK  status: ('A' for Active; 'I' for Inactive)
REMARK    1  A    between atoms: C_5  and  C_28
REMARK    2  A    between atoms: C_12  and  N_17
REMARK    3  A    between atoms: C_18  and  O_24
REMARK                            x       y       z     vdW  Elec       q    Type
REMARK                         _______ _______ _______ _____ _____    ______ ____
ROOT
ATOM      1  N   UNL     1      31.184  -4.077 -22.511  0.00  0.00    -0.281 N 
ATOM      2  N   UNL     1      32.850  -5.193 -23.642  0.00  0.00    -0.372 NA
ATOM      3  N   UNL     1      33.148  -7.548 -23.265  0.00  0.00    -0.163 N 
ATOM      4  N   UNL     1      33.937  -8.580 -23.664  0.00  0.00    -0.173 NA
ATOM      5  C   UNL     1      31.569  -2.751 -23.003  0.00  0.00    +0.100 C 
ATOM      6  C   UNL     1      30.746  -1.786 -22.136  0.00  0.00    +0.026 C 
ATOM      7  C   UNL     1      29.516  -2.594 -21.750  0.00  0.00    +0.024 C 
ATOM      8  C   UNL     1      30.068  -4.005 -21.575  0.00  0.00    +0.093 C 
ATOM      9  C   UNL     1      31.856  -5.215 -22.783  0.00  0.00    +0.186 C 
ATOM     10  C   UNL     1      31.419  -6.469 -22.074  0.00  0.00    +0.066 C 
ATOM     11  C   UNL     1      33.507  -6.359 -23.892  0.00  0.00    +0.208 C 
ATOM     12  C   UNL     1      34.566  -6.661 -24.719  0.00  0.00    +0.186 C 
ATOM     13  C   UNL     1      32.099  -7.583 -22.358  0.00  0.00    +0.096 C 
ATOM     14  C   UNL     1      34.783  -8.033 -24.537  0.00  0.00    +0.120 C 
ENDROOT
BRANCH  12  17
ATOM     15  O   UNL     1      33.809  -5.536 -27.367  0.00  0.00    -0.253 OA
ATOM     16  N   UNL     1      35.796  -4.388 -27.378  0.00  0.00    -0.262 N 
ATOM     17  N   UNL     1      35.266  -5.762 -25.560  0.00  0.00    -0.278 N 
ATOM     18  C   UNL     1      37.766  -3.217 -27.970  0.00  0.00    +0.132 C 
ATOM     19  C   UNL     1      36.590  -2.651 -28.760  0.00  0.00    +0.053 C 
ATOM     20  C   UNL     1      37.096  -3.982 -26.835  0.00  0.00    +0.124 C 
ATOM     21  C   UNL     1      35.553  -3.761 -28.670  0.00  0.00    +0.098 C 
ATOM     22  C   UNL     1      34.869  -5.264 -26.801  0.00  0.00    +0.305 C 
ATOM     23  H   UNL     1      36.141  -5.451 -25.229  0.00  0.00    +0.152 HD
BRANCH  18  24
ATOM     24  O   UNL     1      38.504  -4.129 -28.774  0.00  0.00    -0.383 OA
ATOM     25  H   UNL     1      38.016  -4.305 -29.594  0.00  0.00    +0.210 HD
ENDBRANCH  18  24
ENDBRANCH  12  17
BRANCH   5  28
ATOM     26  F   UNL     1      33.599  -3.000 -24.974  0.00  0.00    -0.204 F 
ATOM     27  F   UNL     1      28.566  -1.786 -26.738  0.00  0.00    -0.204 F 
ATOM     28  C   UNL     1      31.317  -2.564 -24.487  0.00  0.00    +0.025 C 
ATOM     29  C   UNL     1      32.363  -2.702 -25.399  0.00  0.00    +0.138 C 
ATOM     30  C   UNL     1      30.034  -2.254 -24.939  0.00  0.00    +0.029 C 
ATOM     31  C   UNL     1      29.797  -2.083 -26.304  0.00  0.00    +0.140 C 
ATOM     32  C   UNL     1      32.127  -2.530 -26.763  0.00  0.00    +0.032 C 
ATOM     33  C   UNL     1      30.844  -2.220 -27.216  0.00  0.00    +0.032 C 
ENDBRANCH   5  28
TORSDOF 3
ENDMDL
MODEL 3
REMARK VINA RESULT:      -4.1     17.091     20.484
REMARK  Name = 46188928
REMARK  3 active torsions:
REMARK  status: ('A' for Active; 'I' for Inactive)
REMARK    1  A    between atoms: C_5  and  C_28
REMARK    2  A    between atoms: C_12  and  N_17
REMARK    3  A    between atoms: C_18  and  O_24
REMARK                            x       y       z     vdW  Elec       q    Type
REMARK                         _______ _______ _______ _____ _____    ______ ____
ROOT
ATOM      1  N   UNL     1      33.394  -3.029 -25.522  0.00  0.00    -0.281 N 
ATOM      2  N   UNL     1      32.166  -4.249 -24.003  0.00  0.00    -0.372 NA
ATOM      3  N   UNL     1      30.681  -3.099 -22.504  0.00  0.00    -0.163 N 
ATOM      4  N   UNL     1      29.804  -3.355 -21.497  0.00  0.00    -0.173 NA
ATOM      5  C   UNL     1      34.162  -4.179 -26.009  0.00  0.00    +0.100 C 
ATOM      6  C   UNL     1      35.275  -3.542 -26.856  0.00  0.00    +0.026 C 
ATOM      7  C   UNL     1      34.667  -2.233 -27.339  0.00  0.00    +0.024 C 
ATOM      8  C   UNL     1      33.818  -1.786 -26.155  0.00  0.00    +0.093 C 
ATOM      9  C   UNL     1      32.494  -3.085 -24.517  0.00  0.00    +0.186 C 
ATOM     10  C   UNL     1      31.907  -1.786 -24.036  0.00  0.00    +0.066 C 
ATOM     11  C   UNL     1      31.256  -4.268 -22.990  0.00  0.00    +0.208 C 
ATOM     12  C   UNL     1      30.716  -5.301 -22.257  0.00  0.00    +0.186 C 
ATOM     13  C   UNL     1      31.019  -1.865 -23.040  0.00  0.00    +0.096 C 
ATOM     14  C   UNL     1      29.836  -4.681 -21.361  0.00  0.00    +0.120 C 
ENDROOT
BRANCH  12  17
ATOM     15  O   UNL     1      31.194  -7.375 -20.179  0.00  0.00    -0.253 OA
ATOM     16  N   UNL     1      31.487  -8.906 -21.864  0.00  0.00    -0.262 N 
ATOM     17  N   UNL     1      31.004  -6.680 -22.398  0.00  0.00    -0.278 N 
ATOM     18  C   UNL     1      32.099 -10.767 -23.192  0.00  0.00    +0.132 C 
ATOM     19  C   UNL     1      31.617 -11.259 -21.832  0.00  0.00    +0.053 C 
ATOM     20  C   UNL     1      31.569  -9.340 -23.262  0.00  0.00    +0.124 C 
ATOM     21  C   UNL     1      31.735 -10.019 -20.957  0.00  0.00    +0.098 C 
ATOM     22  C   UNL     1      31.225  -7.616 -21.387  0.00  0.00    +0.305 C 
ATOM     23  H   UNL     1      31.056  -7.020 -23.321  0.00  0.00    +0.152 HD
BRANCH  18  24
ATOM     24  O   UNL     1      33.522 -10.737 -23.227  0.00  0.00    -0.383 OA
ATOM     25  H   UNL     1      33.849 -11.504 -23.722  0.00  0.00    +0.210 HD
ENDBRANCH  18  24
ENDBRANCH  12  17
BRANCH   5  28
ATOM     26  F   UNL     1      34.487  -4.637 -28.793  0.00  0.00    -0.204 F 
ATOM     27  F   UNL     1      30.620  -7.540 -26.235  0.00  0.00    -0.204 F 
ATOM     28  C   UNL     1      33.326  -5.171 -26.792  0.00  0.00    +0.025 C 
ATOM     29  C   UNL     1      33.541  -5.345 -28.160  0.00  0.00    +0.138 C 
ATOM     30  C   UNL     1      32.339  -5.913 -26.143  0.00  0.00    +0.029 C 
ATOM     31  C   UNL     1      31.567  -6.828 -26.859  0.00  0.00    +0.140 C 
ATOM     32  C   UNL     1      32.769  -6.259 -28.877  0.00  0.00    +0.032 C 
ATOM     33  C   UNL     1      31.782  -7.000 -28.227  0.00  0.00    +0.032 C 
ENDBRANCH   5  28
TORSDOF 3
ENDMDL
MODEL 4
REMARK VINA RESULT:      -3.9     16.687     19.923
REMARK  Name = 46188928
REMARK  3 active torsions:
REMARK  status: ('A' for Active; 'I' for Inactive)
REMARK    1  A    between atoms: C_5  and  C_28
REMARK    2  A    between atoms: C_12  and  N_17
REMARK    3  A    between atoms: C_18  and  O_24
REMARK                            x       y       z     vdW  Elec       q    Type
REMARK                         _______ _______ _______ _____ _____    ______ ____
ROOT
ATOM      1  N   UNL     1      30.928  -7.609 -21.657  0.00  0.00    -0.281 N 
ATOM      2  N   UNL     1      31.352  -5.825 -23.050  0.00  0.00    -0.372 NA
ATOM      3  N   UNL     1      31.058  -3.591 -22.214  0.00  0.00    -0.163 N 
ATOM      4  N   UNL     1      31.171  -2.298 -22.619  0.00  0.00    -0.173 NA
ATOM      5  C   UNL     1      31.121  -8.624 -22.697  0.00  0.00    +0.100 C 
ATOM      6  C   UNL     1      30.601  -9.916 -22.048  0.00  0.00    +0.026 C 
ATOM      7  C   UNL     1      30.815  -9.692 -20.557  0.00  0.00    +0.024 C 
ATOM      8  C   UNL     1      30.532  -8.203 -20.385  0.00  0.00    +0.093 C 
ATOM      9  C   UNL     1      30.982  -6.277 -21.873  0.00  0.00    +0.186 C 
ATOM     10  C   UNL     1      30.609  -5.371 -20.730  0.00  0.00    +0.066 C 
ATOM     11  C   UNL     1      31.393  -4.476 -23.233  0.00  0.00    +0.208 C 
ATOM     12  C   UNL     1      31.730  -3.705 -24.322  0.00  0.00    +0.186 C 
ATOM     13  C   UNL     1      30.668  -4.058 -20.967  0.00  0.00    +0.096 C 
ATOM     14  C   UNL     1      31.575  -2.382 -23.886  0.00  0.00    +0.120 C 
ENDROOT
BRANCH  12  17
ATOM     15  O   UNL     1      32.120  -2.216 -26.868  0.00  0.00    -0.253 OA
ATOM     16  N   UNL     1      32.725  -4.195 -27.860  0.00  0.00    -0.262 N 
ATOM     17  N   UNL     1      32.141  -4.171 -25.595  0.00  0.00    -0.278 N 
ATOM     18  C   UNL     1      33.176  -5.961 -29.370  0.00  0.00    +0.132 C 
ATOM     19  C   UNL     1      33.720  -4.658 -29.946  0.00  0.00    +0.053 C 
ATOM     20  C   UNL     1      32.973  -5.640 -27.894  0.00  0.00    +0.124 C 
ATOM     21  C   UNL     1      32.959  -3.595 -29.167  0.00  0.00    +0.098 C 
ATOM     22  C   UNL     1      32.306  -3.430 -26.766  0.00  0.00    +0.305 C 
ATOM     23  H   UNL     1      32.332  -5.135 -25.662  0.00  0.00    +0.152 HD
BRANCH  18  24
ATOM     24  O   UNL     1      31.917  -6.268 -29.958  0.00  0.00    -0.383 OA
ATOM     25  H   UNL     1      31.868  -5.875 -30.843  0.00  0.00    +0.210 HD
ENDBRANCH  18  24
ENDBRANCH  12  17
BRANCH   5  28
ATOM     26  F   UNL     1      32.337 -11.093 -23.396  0.00  0.00    -0.204 F 
ATOM     27  F   UNL     1      35.435  -6.602 -23.793  0.00  0.00    -0.204 F 
ATOM     28  C   UNL     1      32.559  -8.741 -23.163  0.00  0.00    +0.025 C 
ATOM     29  C   UNL     1      33.091  -9.988 -23.491  0.00  0.00    +0.138 C 
ATOM     30  C   UNL     1      33.351  -7.597 -23.265  0.00  0.00    +0.029 C 
ATOM     31  C   UNL     1      34.674  -7.701 -23.695  0.00  0.00    +0.140 C 
ATOM     32  C   UNL     1      34.414 -10.092 -23.919  0.00  0.00    +0.032 C 
ATOM     33  C   UNL     1      35.206  -8.949 -24.021  0.00  0.00    +0.032 C 
ENDBRANCH   5  28
TORSDOF 3
ENDMDL
