MODEL 1
REMARK VINA RESULT:     -10.5      0.000      0.000
REMARK  Name = 24178121
REMARK  2 active torsions:
REMARK  status: ('A' for Active; 'I' for Inactive)
REMARK    1  A    between atoms: N_2  and  C_15
REMARK    2  A    between atoms: C_4  and  O_21
REMARK                            x       y       z     vdW  Elec       q    Type
REMARK                         _______ _______ _______ _____ _____    ______ ____
ROOT
ATOM      1  O   UNL     1      31.437 -21.516 -18.145  0.00  0.00    -0.288 OA
ATOM      2  N   UNL     1      34.457 -23.389 -15.227  0.00  0.00    -0.264 N 
ATOM      3  N   UNL     1      35.339 -22.103 -17.103  0.00  0.00    -0.392 NA
ATOM      4  C   UNL     1      33.037 -22.959 -17.065  0.00  0.00    +0.204 C 
ATOM      5  C   UNL     1      32.193 -23.163 -15.812  0.00  0.00    +0.065 C 
ATOM      6  C   UNL     1      33.135 -23.911 -14.858  0.00  0.00    +0.101 C 
ATOM      7  C   UNL     1      34.421 -22.761 -16.468  0.00  0.00    +0.195 C 
ATOM      8  C   UNL     1      32.603 -21.849 -17.982  0.00  0.00    +0.207 C 
ATOM      9  C   UNL     1      33.703 -21.236 -18.750  0.00  0.00    +0.063 C 
ATOM     10  C   UNL     1      35.019 -21.441 -18.304  0.00  0.00    +0.117 C 
ATOM     11  C   UNL     1      33.431 -20.499 -19.906  0.00  0.00    +0.005 C 
ATOM     12  C   UNL     1      36.065 -20.890 -19.055  0.00  0.00    +0.085 C 
ATOM     13  C   UNL     1      34.488 -19.962 -20.639  0.00  0.00    -0.004 C 
ATOM     14  C   UNL     1      35.802 -20.159 -20.217  0.00  0.00    -0.019 C 
ENDROOT
BRANCH   2  15
ATOM     15  C   UNL     1      35.554 -23.561 -14.420  0.00  0.00    +0.053 C 
ATOM     16  C   UNL     1      36.520 -24.513 -14.749  0.00  0.00    +0.015 C 
ATOM     17  C   UNL     1      35.705 -22.785 -13.271  0.00  0.00    +0.015 C 
ATOM     18  C   UNL     1      37.635 -24.689 -13.928  0.00  0.00    +0.001 C 
ATOM     19  C   UNL     1      36.819 -22.959 -12.452  0.00  0.00    +0.001 C 
ATOM     20  C   UNL     1      37.784 -23.911 -12.779  0.00  0.00    +0.000 C 
ENDBRANCH   2  15
BRANCH   4  21
ATOM     21  O   UNL     1      33.069 -24.124 -17.874  0.00  0.00    -0.372 OA
ATOM     22  H   UNL     1      32.264 -24.645 -17.723  0.00  0.00    +0.211 HD
ENDBRANCH   4  21
TORSDOF 2
ENDMDL
MODEL 2
REMARK VINA RESULT:     -10.5      1.385      1.948
REMARK  Name = 24178121
REMARK  2 active torsions:
REMARK  status: ('A' for Active; 'I' for Inactive)
REMARK    1  A    between atoms: N_2  and  C_15
REMARK    2  A    between atoms: C_4  and  O_21
REMARK                            x       y       z     vdW  Elec       q    Type
REMARK                         _______ _______ _______ _____ _____    ______ ____
ROOT
ATOM      1  O   UNL     1      31.764 -20.435 -20.067  0.00  0.00    -0.288 OA
ATOM      2  N   UNL     1      34.319 -22.358 -16.763  0.00  0.00    -0.264 N 
ATOM      3  N   UNL     1      35.449 -20.932 -18.387  0.00  0.00    -0.392 NA
ATOM      4  C   UNL     1      33.219 -21.877 -18.797  0.00  0.00    +0.204 C 
ATOM      5  C   UNL     1      32.182 -22.185 -17.723  0.00  0.00    +0.065 C 
ATOM      6  C   UNL     1      32.979 -22.950 -16.658  0.00  0.00    +0.101 C 
ATOM      7  C   UNL     1      34.469 -21.660 -17.958  0.00  0.00    +0.195 C 
ATOM      8  C   UNL     1      32.899 -20.733 -19.719  0.00  0.00    +0.207 C 
ATOM      9  C   UNL     1      34.085 -20.035 -20.251  0.00  0.00    +0.063 C 
ATOM     10  C   UNL     1      35.312 -20.214 -19.591  0.00  0.00    +0.117 C 
ATOM     11  C   UNL     1      33.982 -19.242 -21.397  0.00  0.00    +0.005 C 
ATOM     12  C   UNL     1      36.444 -19.582 -20.119  0.00  0.00    +0.085 C 
ATOM     13  C   UNL     1      35.123 -18.624 -21.905  0.00  0.00    -0.004 C 
ATOM     14  C   UNL     1      36.352 -18.795 -21.270  0.00  0.00    -0.019 C 
ENDROOT
BRANCH   2  15
ATOM     15  C   UNL     1      35.267 -22.535 -15.786  0.00  0.00    +0.053 C 
ATOM     16  C   UNL     1      36.622 -22.410 -16.097  0.00  0.00    +0.015 C 
ATOM     17  C   UNL     1      34.877 -22.839 -14.482  0.00  0.00    +0.015 C 
ATOM     18  C   UNL     1      37.585 -22.591 -15.104  0.00  0.00    +0.001 C 
ATOM     19  C   UNL     1      35.840 -23.018 -13.489  0.00  0.00    +0.001 C 
ATOM     20  C   UNL     1      37.194 -22.895 -13.800  0.00  0.00    +0.000 C 
ENDBRANCH   2  15
BRANCH   4  21
ATOM     21  O   UNL     1      33.446 -22.990 -19.646  0.00  0.00    -0.372 OA
ATOM     22  H   UNL     1      34.265 -22.853 -20.148  0.00  0.00    +0.211 HD
ENDBRANCH   4  21
TORSDOF 2
ENDMDL
MODEL 3
REMARK VINA RESULT:     -10.3      2.029      6.072
REMARK  Name = 24178121
REMARK  2 active torsions:
REMARK  status: ('A' for Active; 'I' for Inactive)
REMARK    1  A    between atoms: N_2  and  C_15
REMARK    2  A    between atoms: C_4  and  O_21
REMARK                            x       y       z     vdW  Elec       q    Type
REMARK                         _______ _______ _______ _____ _____    ______ ____
ROOT
ATOM      1  O   UNL     1      34.105 -23.661 -12.579  0.00  0.00    -0.288 OA
ATOM      2  N   UNL     1      34.861 -22.138 -16.851  0.00  0.00    -0.264 N 
ATOM      3  N   UNL     1      32.595 -22.838 -16.279  0.00  0.00    -0.392 NA
ATOM      4  C   UNL     1      34.548 -23.494 -14.941  0.00  0.00    +0.204 C 
ATOM      5  C   UNL     1      35.817 -22.666 -14.771  0.00  0.00    +0.065 C 
ATOM      6  C   UNL     1      36.174 -22.250 -16.204  0.00  0.00    +0.101 C 
ATOM      7  C   UNL     1      33.877 -22.782 -16.105  0.00  0.00    +0.195 C 
ATOM      8  C   UNL     1      33.676 -23.628 -13.724  0.00  0.00    +0.207 C 
ATOM      9  C   UNL     1      32.242 -23.804 -14.024  0.00  0.00    +0.063 C 
ATOM     10  C   UNL     1      31.785 -23.453 -15.305  0.00  0.00    +0.117 C 
ATOM     11  C   UNL     1      31.380 -24.334 -13.061  0.00  0.00    +0.005 C 
ATOM     12  C   UNL     1      30.431 -23.657 -15.602  0.00  0.00    +0.085 C 
ATOM     13  C   UNL     1      30.037 -24.529 -13.379  0.00  0.00    -0.004 C 
ATOM     14  C   UNL     1      29.564 -24.195 -14.647  0.00  0.00    -0.019 C 
ENDROOT
BRANCH   2  15
ATOM     15  C   UNL     1      34.698 -21.495 -18.052  0.00  0.00    +0.053 C 
ATOM     16  C   UNL     1      35.809 -20.999 -18.736  0.00  0.00    +0.015 C 
ATOM     17  C   UNL     1      33.421 -21.335 -18.591  0.00  0.00    +0.015 C 
ATOM     18  C   UNL     1      35.643 -20.344 -19.956  0.00  0.00    +0.001 C 
ATOM     19  C   UNL     1      33.255 -20.681 -19.811  0.00  0.00    +0.001 C 
ATOM     20  C   UNL     1      34.365 -20.185 -20.494  0.00  0.00    +0.000 C 
ENDBRANCH   2  15
BRANCH   4  21
ATOM     21  O   UNL     1      34.836 -24.822 -15.345  0.00  0.00    -0.372 OA
ATOM     22  H   UNL     1      34.009 -25.323 -15.426  0.00  0.00    +0.211 HD
ENDBRANCH   4  21
TORSDOF 2
ENDMDL
MODEL 4
REMARK VINA RESULT:      -9.7      4.667      7.436
REMARK  Name = 24178121
REMARK  2 active torsions:
REMARK  status: ('A' for Active; 'I' for Inactive)
REMARK    1  A    between atoms: N_2  and  C_15
REMARK    2  A    between atoms: C_4  and  O_21
REMARK                            x       y       z     vdW  Elec       q    Type
REMARK                         _______ _______ _______ _____ _____    ______ ____
ROOT
ATOM      1  O   UNL     1      34.178 -16.245 -24.696  0.00  0.00    -0.288 OA
ATOM      2  N   UNL     1      34.381 -19.504 -21.459  0.00  0.00    -0.264 N 
ATOM      3  N   UNL     1      34.068 -17.197 -20.730  0.00  0.00    -0.392 NA
ATOM      4  C   UNL     1      34.900 -17.764 -22.971  0.00  0.00    +0.204 C 
ATOM      5  C   UNL     1      34.537 -19.021 -23.753  0.00  0.00    +0.065 C 
ATOM      6  C   UNL     1      34.725 -20.151 -22.732  0.00  0.00    +0.101 C 
ATOM      7  C   UNL     1      34.396 -18.117 -21.580  0.00  0.00    +0.195 C 
ATOM      8  C   UNL     1      34.354 -16.469 -23.507  0.00  0.00    +0.207 C 
ATOM      9  C   UNL     1      34.121 -15.440 -22.476  0.00  0.00    +0.063 C 
ATOM     10  C   UNL     1      34.045 -15.848 -21.134  0.00  0.00    +0.117 C 
ATOM     11  C   UNL     1      34.008 -14.094 -22.836  0.00  0.00    +0.005 C 
ATOM     12  C   UNL     1      33.862 -14.866 -20.154  0.00  0.00    +0.085 C 
ATOM     13  C   UNL     1      33.828 -13.133 -21.843  0.00  0.00    -0.004 C 
ATOM     14  C   UNL     1      33.758 -13.517 -20.504  0.00  0.00    -0.019 C 
ENDROOT
BRANCH   2  15
ATOM     15  C   UNL     1      34.120 -20.231 -20.325  0.00  0.00    +0.053 C 
ATOM     16  C   UNL     1      35.173 -20.749 -19.570  0.00  0.00    +0.015 C 
ATOM     17  C   UNL     1      32.802 -20.452 -19.925  0.00  0.00    +0.015 C 
ATOM     18  C   UNL     1      34.908 -21.489 -18.418  0.00  0.00    +0.001 C 
ATOM     19  C   UNL     1      32.537 -21.191 -18.773  0.00  0.00    +0.001 C 
ATOM     20  C   UNL     1      33.589 -21.710 -18.019  0.00  0.00    +0.000 C 
ENDBRANCH   2  15
BRANCH   4  21
ATOM     21  O   UNL     1      36.304 -17.577 -22.896  0.00  0.00    -0.372 OA
ATOM     22  H   UNL     1      36.585 -16.954 -23.585  0.00  0.00    +0.211 HD
ENDBRANCH   4  21
TORSDOF 2
ENDMDL
MODEL 5
REMARK VINA RESULT:      -9.4      6.259      9.275
REMARK  Name = 24178121
REMARK  2 active torsions:
REMARK  status: ('A' for Active; 'I' for Inactive)
REMARK    1  A    between atoms: N_2  and  C_15
REMARK    2  A    between atoms: C_4  and  O_21
REMARK                            x       y       z     vdW  Elec       q    Type
REMARK                         _______ _______ _______ _____ _____    ______ ____
ROOT
ATOM      1  O   UNL     1      32.261 -14.448 -25.381  0.00  0.00    -0.288 OA
ATOM      2  N   UNL     1      34.322 -17.744 -22.925  0.00  0.00    -0.264 N 
ATOM      3  N   UNL     1      34.061 -15.551 -21.888  0.00  0.00    -0.392 NA
ATOM      4  C   UNL     1      33.873 -15.887 -24.314  0.00  0.00    +0.204 C 
ATOM      5  C   UNL     1      33.372 -17.157 -24.991  0.00  0.00    +0.065 C 
ATOM      6  C   UNL     1      34.145 -18.276 -24.281  0.00  0.00    +0.101 C 
ATOM      7  C   UNL     1      34.095 -16.371 -22.890  0.00  0.00    +0.195 C 
ATOM      8  C   UNL     1      32.978 -14.683 -24.417  0.00  0.00    +0.207 C 
ATOM      9  C   UNL     1      33.093 -13.746 -23.284  0.00  0.00    +0.063 C 
ATOM     10  C   UNL     1      33.680 -14.211 -22.095  0.00  0.00    +0.117 C 
ATOM     11  C   UNL     1      32.653 -12.426 -23.412  0.00  0.00    +0.005 C 
ATOM     12  C   UNL     1      33.824 -13.310 -21.033  0.00  0.00    +0.085 C 
ATOM     13  C   UNL     1      32.807 -11.547 -22.343  0.00  0.00    -0.004 C 
ATOM     14  C   UNL     1      33.394 -11.986 -21.157  0.00  0.00    -0.019 C 
ENDROOT
BRANCH   2  15
ATOM     15  C   UNL     1      34.695 -18.545 -21.874  0.00  0.00    +0.053 C 
ATOM     16  C   UNL     1      36.002 -18.495 -21.387  0.00  0.00    +0.015 C 
ATOM     17  C   UNL     1      33.768 -19.411 -21.294  0.00  0.00    +0.015 C 
ATOM     18  C   UNL     1      36.381 -19.311 -20.321  0.00  0.00    +0.001 C 
ATOM     19  C   UNL     1      34.146 -20.225 -20.227  0.00  0.00    +0.001 C 
ATOM     20  C   UNL     1      35.453 -20.176 -19.741  0.00  0.00    +0.000 C 
ENDBRANCH   2  15
BRANCH   4  21
ATOM     21  O   UNL     1      35.124 -15.470 -24.837  0.00  0.00    -0.372 OA
ATOM     22  H   UNL     1      35.015 -14.625 -25.303  0.00  0.00    +0.211 HD
ENDBRANCH   4  21
TORSDOF 2
ENDMDL
MODEL 6
REMARK VINA RESULT:      -9.3     11.603     14.629
REMARK  Name = 24178121
REMARK  2 active torsions:
REMARK  status: ('A' for Active; 'I' for Inactive)
REMARK    1  A    between atoms: N_2  and  C_15
REMARK    2  A    between atoms: C_4  and  O_21
REMARK                            x       y       z     vdW  Elec       q    Type
REMARK                         _______ _______ _______ _____ _____    ______ ____
ROOT
ATOM      1  O   UNL     1      31.323  -6.792 -20.538  0.00  0.00    -0.288 OA
ATOM      2  N   UNL     1      31.994 -11.126 -21.916  0.00  0.00    -0.264 N 
ATOM      3  N   UNL     1      33.154  -9.357 -23.130  0.00  0.00    -0.392 NA
ATOM      4  C   UNL     1      31.218  -8.907 -21.687  0.00  0.00    +0.204 C 
ATOM      5  C   UNL     1      30.843  -9.705 -20.443  0.00  0.00    +0.065 C 
ATOM      6  C   UNL     1      30.927 -11.165 -20.909  0.00  0.00    +0.101 C 
ATOM      7  C   UNL     1      32.245  -9.823 -22.334  0.00  0.00    +0.195 C 
ATOM      8  C   UNL     1      31.712  -7.506 -21.451  0.00  0.00    +0.207 C 
ATOM      9  C   UNL     1      32.656  -7.019 -22.475  0.00  0.00    +0.063 C 
ATOM     10  C   UNL     1      33.287  -7.965 -23.300  0.00  0.00    +0.117 C 
ATOM     11  C   UNL     1      32.886  -5.649 -22.628  0.00  0.00    +0.005 C 
ATOM     12  C   UNL     1      34.154  -7.499 -24.296  0.00  0.00    +0.085 C 
ATOM     13  C   UNL     1      33.751  -5.208 -23.627  0.00  0.00    -0.004 C 
ATOM     14  C   UNL     1      34.381  -6.130 -24.462  0.00  0.00    -0.019 C 
ENDROOT
BRANCH   2  15
ATOM     15  C   UNL     1      32.604 -12.270 -22.369  0.00  0.00    +0.053 C 
ATOM     16  C   UNL     1      32.508 -12.628 -23.714  0.00  0.00    +0.015 C 
ATOM     17  C   UNL     1      33.321 -13.075 -21.484  0.00  0.00    +0.015 C 
ATOM     18  C   UNL     1      33.127 -13.790 -24.173  0.00  0.00    +0.001 C 
ATOM     19  C   UNL     1      33.941 -14.237 -21.943  0.00  0.00    +0.001 C 
ATOM     20  C   UNL     1      33.844 -14.595 -23.287  0.00  0.00    +0.000 C 
ENDBRANCH   2  15
BRANCH   4  21
ATOM     21  O   UNL     1      30.123  -8.774 -22.578  0.00  0.00    -0.372 OA
ATOM     22  H   UNL     1      29.306  -8.644 -22.070  0.00  0.00    +0.211 HD
ENDBRANCH   4  21
TORSDOF 2
ENDMDL
MODEL 7
REMARK VINA RESULT:      -9.1     10.995     13.849
REMARK  Name = 24178121
REMARK  2 active torsions:
REMARK  status: ('A' for Active; 'I' for Inactive)
REMARK    1  A    between atoms: N_2  and  C_15
REMARK    2  A    between atoms: C_4  and  O_21
REMARK                            x       y       z     vdW  Elec       q    Type
REMARK                         _______ _______ _______ _____ _____    ______ ____
ROOT
ATOM      1  O   UNL     1      31.224  -8.473 -19.613  0.00  0.00    -0.288 OA
ATOM      2  N   UNL     1      32.253 -12.328 -21.898  0.00  0.00    -0.264 N 
ATOM      3  N   UNL     1      32.133 -10.251 -23.172  0.00  0.00    -0.392 NA
ATOM      4  C   UNL     1      31.133 -10.482 -20.940  0.00  0.00    +0.204 C 
ATOM      5  C   UNL     1      31.655 -11.387 -19.831  0.00  0.00    +0.065 C 
ATOM      6  C   UNL     1      31.884 -12.731 -20.536  0.00  0.00    +0.101 C 
ATOM      7  C   UNL     1      31.903 -11.003 -22.143  0.00  0.00    +0.195 C 
ATOM      8  C   UNL     1      31.282  -9.003 -20.714  0.00  0.00    +0.207 C 
ATOM      9  C   UNL     1      31.422  -8.214 -21.953  0.00  0.00    +0.063 C 
ATOM     10  C   UNL     1      31.785  -8.887 -23.131  0.00  0.00    +0.117 C 
ATOM     11  C   UNL     1      31.168  -6.840 -21.947  0.00  0.00    +0.005 C 
ATOM     12  C   UNL     1      31.880  -8.143 -24.314  0.00  0.00    +0.085 C 
ATOM     13  C   UNL     1      31.267  -6.121 -23.136  0.00  0.00    -0.004 C 
ATOM     14  C   UNL     1      31.619  -6.771 -24.318  0.00  0.00    -0.019 C 
ENDROOT
BRANCH   2  15
ATOM     15  C   UNL     1      32.838 -13.203 -22.779  0.00  0.00    +0.053 C 
ATOM     16  C   UNL     1      33.784 -14.124 -22.324  0.00  0.00    +0.015 C 
ATOM     17  C   UNL     1      32.489 -13.174 -24.129  0.00  0.00    +0.015 C 
ATOM     18  C   UNL     1      34.379 -15.012 -23.219  0.00  0.00    +0.001 C 
ATOM     19  C   UNL     1      33.083 -14.063 -25.023  0.00  0.00    +0.001 C 
ATOM     20  C   UNL     1      34.029 -14.982 -24.569  0.00  0.00    +0.000 C 
ENDBRANCH   2  15
BRANCH   4  21
ATOM     21  O   UNL     1      29.750 -10.688 -21.181  0.00  0.00    -0.372 OA
ATOM     22  H   UNL     1      29.307 -10.912 -20.347  0.00  0.00    +0.211 HD
ENDBRANCH   4  21
TORSDOF 2
ENDMDL
MODEL 8
REMARK VINA RESULT:      -8.9      2.698      6.597
REMARK  Name = 24178121
REMARK  2 active torsions:
REMARK  status: ('A' for Active; 'I' for Inactive)
REMARK    1  A    between atoms: N_2  and  C_15
REMARK    2  A    between atoms: C_4  and  O_21
REMARK                            x       y       z     vdW  Elec       q    Type
REMARK                         _______ _______ _______ _____ _____    ______ ____
ROOT
ATOM      1  O   UNL     1      36.967 -22.073 -14.801  0.00  0.00    -0.288 OA
ATOM      2  N   UNL     1      32.566 -23.154 -15.576  0.00  0.00    -0.264 N 
ATOM      3  N   UNL     1      33.445 -23.515 -13.330  0.00  0.00    -0.392 NA
ATOM      4  C   UNL     1      34.909 -23.229 -15.281  0.00  0.00    +0.204 C 
ATOM      5  C   UNL     1      34.581 -22.393 -16.513  0.00  0.00    +0.065 C 
ATOM      6  C   UNL     1      33.156 -22.830 -16.880  0.00  0.00    +0.101 C 
ATOM      7  C   UNL     1      33.549 -23.316 -14.605  0.00  0.00    +0.195 C 
ATOM      8  C   UNL     1      36.000 -22.701 -14.393  0.00  0.00    +0.207 C 
ATOM      9  C   UNL     1      35.858 -23.077 -12.973  0.00  0.00    +0.063 C 
ATOM     10  C   UNL     1      34.602 -23.519 -12.526  0.00  0.00    +0.117 C 
ATOM     11  C   UNL     1      36.959 -23.018 -12.114  0.00  0.00    +0.005 C 
ATOM     12  C   UNL     1      34.478 -23.912 -11.188  0.00  0.00    +0.085 C 
ATOM     13  C   UNL     1      36.812 -23.416 -10.787  0.00  0.00    -0.004 C 
ATOM     14  C   UNL     1      35.576 -23.865 -10.325  0.00  0.00    -0.019 C 
ENDROOT
BRANCH   2  15
ATOM     15  C   UNL     1      31.210 -23.296 -15.410  0.00  0.00    +0.053 C 
ATOM     16  C   UNL     1      30.331 -22.453 -16.090  0.00  0.00    +0.015 C 
ATOM     17  C   UNL     1      30.711 -24.283 -14.560  0.00  0.00    +0.015 C 
ATOM     18  C   UNL     1      28.954 -22.596 -15.920  0.00  0.00    +0.001 C 
ATOM     19  C   UNL     1      29.334 -24.428 -14.391  0.00  0.00    +0.001 C 
ATOM     20  C   UNL     1      28.455 -23.584 -15.071  0.00  0.00    +0.000 C 
ENDBRANCH   2  15
BRANCH   4  21
ATOM     21  O   UNL     1      35.311 -24.544 -15.630  0.00  0.00    -0.372 OA
ATOM     22  H   UNL     1      36.210 -24.521 -15.995  0.00  0.00    +0.211 HD
ENDBRANCH   4  21
TORSDOF 2
ENDMDL
MODEL 9
REMARK VINA RESULT:      -8.2     13.689     17.228
REMARK  Name = 24178121
REMARK  2 active torsions:
REMARK  status: ('A' for Active; 'I' for Inactive)
REMARK    1  A    between atoms: N_2  and  C_15
REMARK    2  A    between atoms: C_4  and  O_21
REMARK                            x       y       z     vdW  Elec       q    Type
REMARK                         _______ _______ _______ _____ _____    ______ ____
ROOT
ATOM      1  O   UNL     1      30.323  -8.876 -19.265  0.00  0.00    -0.288 OA
ATOM      2  N   UNL     1      32.004  -5.796 -22.237  0.00  0.00    -0.264 N 
ATOM      3  N   UNL     1      32.255  -8.159 -22.787  0.00  0.00    -0.392 NA
ATOM      4  C   UNL     1      31.753  -7.388 -20.510  0.00  0.00    +0.204 C 
ATOM      5  C   UNL     1      30.961  -6.134 -20.159  0.00  0.00    +0.065 C 
ATOM      6  C   UNL     1      31.591  -5.048 -21.043  0.00  0.00    +0.101 C 
ATOM      7  C   UNL     1      32.034  -7.165 -21.987  0.00  0.00    +0.195 C 
ATOM      8  C   UNL     1      31.084  -8.701 -20.207  0.00  0.00    +0.207 C 
ATOM      9  C   UNL     1      31.486  -9.804 -21.100  0.00  0.00    +0.063 C 
ATOM     10  C   UNL     1      32.103  -9.479 -22.320  0.00  0.00    +0.117 C 
ATOM     11  C   UNL     1      31.280 -11.132 -20.717  0.00  0.00    +0.005 C 
ATOM     12  C   UNL     1      32.519 -10.528 -23.149  0.00  0.00    +0.085 C 
ATOM     13  C   UNL     1      31.705 -12.159 -21.558  0.00  0.00    -0.004 C 
ATOM     14  C   UNL     1      32.326 -11.859 -22.770  0.00  0.00    -0.019 C 
ENDROOT
BRANCH   2  15
ATOM     15  C   UNL     1      32.335  -5.163 -23.409  0.00  0.00    +0.053 C 
ATOM     16  C   UNL     1      31.336  -4.611 -24.211  0.00  0.00    +0.015 C 
ATOM     17  C   UNL     1      33.671  -5.072 -23.800  0.00  0.00    +0.015 C 
ATOM     18  C   UNL     1      31.672  -3.969 -25.403  0.00  0.00    +0.001 C 
ATOM     19  C   UNL     1      34.008  -4.430 -24.991  0.00  0.00    +0.001 C 
ATOM     20  C   UNL     1      33.009  -3.878 -25.793  0.00  0.00    +0.000 C 
ENDBRANCH   2  15
BRANCH   4  21
ATOM     21  O   UNL     1      32.996  -7.434 -19.827  0.00  0.00    -0.372 OA
ATOM     22  H   UNL     1      33.432  -6.570 -19.891  0.00  0.00    +0.211 HD
ENDBRANCH   4  21
TORSDOF 2
ENDMDL
