MODEL 1
REMARK VINA RESULT:     -11.6      0.000      0.000
REMARK  Name = 60848
REMARK  4 active torsions:
REMARK  status: ('A' for Active; 'I' for Inactive)
REMARK    1  A    between atoms: C_8  and  C_10
REMARK    2  A    between atoms: C_16  and  O_19
REMARK    3  A    between atoms: C_23  and  N_27
REMARK    4  A    between atoms: N_27  and  C_29
REMARK                            x       y       z     vdW  Elec       q    Type
REMARK                         _______ _______ _______ _____ _____    ______ ____
ROOT
ATOM      1  O   UNL     1      31.618 -22.016 -18.143  0.00  0.00    -0.269 OA
ATOM      2  N   UNL     1      35.131 -23.019 -14.916  0.00  0.00    -0.289 N 
ATOM      3  N   UNL     1      33.705 -22.560 -17.305  0.00  0.00    -0.272 N 
ATOM      4  C   UNL     1      33.665 -23.158 -14.923  0.00  0.00    +0.114 C 
ATOM      5  C   UNL     1      35.702 -22.130 -15.936  0.00  0.00    +0.114 C 
ATOM      6  C   UNL     1      33.167 -23.501 -16.327  0.00  0.00    +0.115 C 
ATOM      7  C   UNL     1      35.169 -22.500 -17.319  0.00  0.00    +0.115 C 
ATOM      8  C   UNL     1      32.841 -21.867 -18.170  0.00  0.00    +0.263 C 
ATOM      9  N   UNL     1      35.143 -22.840 -12.527  0.00  0.00    -0.228 NA
ATOM     10  C   UNL     1      35.791 -23.178 -13.691  0.00  0.00    +0.145 C 
ATOM     11  C   UNL     1      37.107 -23.679 -13.660  0.00  0.00    +0.077 C 
ATOM     12  C   UNL     1      37.754 -23.834 -12.440  0.00  0.00    +0.019 C 
ATOM     13  C   UNL     1      35.805 -23.003 -11.360  0.00  0.00    +0.100 C 
ATOM     14  C   UNL     1      37.099 -23.492 -11.263  0.00  0.00    +0.022 C 
ENDROOT
BRANCH   8  16
ATOM     15  N   UNL     1      34.783 -20.658 -19.150  0.00  0.00    -0.309 N 
ATOM     16  C   UNL     1      33.446 -20.941 -19.119  0.00  0.00    +0.103 C 
ATOM     17  C   UNL     1      32.831 -20.216 -20.108  0.00  0.00    +0.021 C 
ATOM     18  C   UNL     1      33.834 -19.457 -20.772  0.00  0.00    +0.018 C 
ATOM     19  C   UNL     1      35.050 -19.753 -20.151  0.00  0.00    +0.049 C 
ATOM     20  C   UNL     1      33.826 -18.543 -21.845  0.00  0.00    +0.038 C 
ATOM     21  C   UNL     1      36.262 -19.179 -20.552  0.00  0.00    +0.018 C 
ATOM     22  C   UNL     1      35.031 -17.961 -22.256  0.00  0.00    +0.139 C 
ATOM     23  C   UNL     1      36.228 -18.276 -21.618  0.00  0.00    +0.038 C 
ATOM     24  H   UNL     1      35.456 -21.045 -18.543  0.00  0.00    +0.152 HD
BRANCH  22  25
ATOM     25  O   UNL     1      35.029 -17.077 -23.294  0.00  0.00    -0.471 OA
ATOM     26  C   UNL     1      34.537 -15.766 -23.025  0.00  0.00    +0.252 C 
ENDBRANCH  22  25
ENDBRANCH   8  16
BRANCH  11  27
ATOM     27  N   UNL     1      37.769 -24.025 -14.854  0.00  0.00    -0.330 N 
ATOM     28  H   UNL     1      37.228 -24.245 -15.645  0.00  0.00    +0.147 HD
BRANCH  27  29
ATOM     29  C   UNL     1      39.196 -24.071 -14.968  0.00  0.00    +0.087 C 
ATOM     30  C   UNL     1      39.722 -25.473 -14.707  0.00  0.00    +0.023 C 
ENDBRANCH  27  29
ENDBRANCH  11  27
TORSDOF 4
ENDMDL
MODEL 2
REMARK VINA RESULT:     -11.0      1.185      1.245
REMARK  Name = 60848
REMARK  4 active torsions:
REMARK  status: ('A' for Active; 'I' for Inactive)
REMARK    1  A    between atoms: C_8  and  C_10
REMARK    2  A    between atoms: C_16  and  O_19
REMARK    3  A    between atoms: C_23  and  N_27
REMARK    4  A    between atoms: N_27  and  C_29
REMARK                            x       y       z     vdW  Elec       q    Type
REMARK                         _______ _______ _______ _____ _____    ______ ____
ROOT
ATOM      1  O   UNL     1      30.920 -22.241 -17.355  0.00  0.00    -0.269 OA
ATOM      2  N   UNL     1      34.345 -23.489 -14.118  0.00  0.00    -0.289 N 
ATOM      3  N   UNL     1      32.940 -22.994 -16.513  0.00  0.00    -0.272 N 
ATOM      4  C   UNL     1      32.873 -23.442 -14.099  0.00  0.00    +0.114 C 
ATOM      5  C   UNL     1      35.002 -22.740 -15.198  0.00  0.00    +0.114 C 
ATOM      6  C   UNL     1      32.308 -23.801 -15.472  0.00  0.00    +0.115 C 
ATOM      7  C   UNL     1      34.399 -23.120 -16.549  0.00  0.00    +0.115 C 
ATOM      8  C   UNL     1      32.152 -22.249 -17.406  0.00  0.00    +0.263 C 
ATOM      9  N   UNL     1      34.428 -23.173 -11.745  0.00  0.00    -0.228 NA
ATOM     10  C   UNL     1      35.004 -23.658 -12.895  0.00  0.00    +0.145 C 
ATOM     11  C   UNL     1      36.247 -24.318 -12.851  0.00  0.00    +0.077 C 
ATOM     12  C   UNL     1      36.895 -24.482 -11.631  0.00  0.00    +0.019 C 
ATOM     13  C   UNL     1      35.088 -23.351 -10.579  0.00  0.00    +0.100 C 
ATOM     14  C   UNL     1      36.311 -23.992 -10.469  0.00  0.00    +0.022 C 
ENDROOT
BRANCH   8  16
ATOM     15  N   UNL     1      34.210 -21.385 -18.506  0.00  0.00    -0.309 N 
ATOM     16  C   UNL     1      32.849 -21.464 -18.418  0.00  0.00    +0.103 C 
ATOM     17  C   UNL     1      32.308 -20.697 -19.419  0.00  0.00    +0.021 C 
ATOM     18  C   UNL     1      33.385 -20.124 -20.151  0.00  0.00    +0.018 C 
ATOM     19  C   UNL     1      34.568 -20.571 -19.557  0.00  0.00    +0.049 C 
ATOM     20  C   UNL     1      33.469 -19.265 -21.265  0.00  0.00    +0.038 C 
ATOM     21  C   UNL     1      35.834 -20.202 -20.023  0.00  0.00    +0.018 C 
ATOM     22  C   UNL     1      34.730 -18.886 -21.742  0.00  0.00    +0.139 C 
ATOM     23  C   UNL     1      35.892 -19.349 -21.129  0.00  0.00    +0.038 C 
ATOM     24  H   UNL     1      34.842 -21.842 -17.904  0.00  0.00    +0.152 HD
BRANCH  22  25
ATOM     25  O   UNL     1      34.818 -18.056 -22.819  0.00  0.00    -0.471 OA
ATOM     26  C   UNL     1      33.796 -18.168 -23.808  0.00  0.00    +0.252 C 
ENDBRANCH  22  25
ENDBRANCH   8  16
BRANCH  11  27
ATOM     27  N   UNL     1      36.837 -24.814 -14.029  0.00  0.00    -0.330 N 
ATOM     28  H   UNL     1      36.339 -25.474 -14.562  0.00  0.00    +0.147 HD
BRANCH  27  29
ATOM     29  C   UNL     1      38.130 -24.401 -14.487  0.00  0.00    +0.087 C 
ATOM     30  C   UNL     1      39.155 -25.508 -14.307  0.00  0.00    +0.023 C 
ENDBRANCH  27  29
ENDBRANCH  11  27
TORSDOF 4
ENDMDL
MODEL 3
REMARK VINA RESULT:     -10.8      9.065     13.824
REMARK  Name = 60848
REMARK  4 active torsions:
REMARK  status: ('A' for Active; 'I' for Inactive)
REMARK    1  A    between atoms: C_8  and  C_10
REMARK    2  A    between atoms: C_16  and  O_19
REMARK    3  A    between atoms: C_23  and  N_27
REMARK    4  A    between atoms: N_27  and  C_29
REMARK                            x       y       z     vdW  Elec       q    Type
REMARK                         _______ _______ _______ _____ _____    ______ ____
ROOT
ATOM      1  O   UNL     1      31.024  -8.472 -20.367  0.00  0.00    -0.269 OA
ATOM      2  N   UNL     1      32.671 -12.708 -22.131  0.00  0.00    -0.289 N 
ATOM      3  N   UNL     1      31.529 -10.140 -21.889  0.00  0.00    -0.272 N 
ATOM      4  C   UNL     1      32.157 -12.263 -20.825  0.00  0.00    +0.114 C 
ATOM      5  C   UNL     1      33.080 -11.647 -23.061  0.00  0.00    +0.114 C 
ATOM      6  C   UNL     1      31.065 -11.209 -21.009  0.00  0.00    +0.115 C 
ATOM      7  C   UNL     1      31.966 -10.611 -23.206  0.00  0.00    +0.115 C 
ATOM      8  C   UNL     1      31.464  -8.800 -21.470  0.00  0.00    +0.263 C 
ATOM      9  N   UNL     1      33.965 -14.428 -21.083  0.00  0.00    -0.228 NA
ATOM     10  C   UNL     1      33.300 -13.957 -22.188  0.00  0.00    +0.145 C 
ATOM     11  C   UNL     1      33.249 -14.717 -23.373  0.00  0.00    +0.077 C 
ATOM     12  C   UNL     1      33.877 -15.957 -23.421  0.00  0.00    +0.019 C 
ATOM     13  C   UNL     1      34.565 -15.638 -21.168  0.00  0.00    +0.100 C 
ATOM     14  C   UNL     1      34.549 -16.433 -22.302  0.00  0.00    +0.022 C 
ENDROOT
BRANCH   8  16
ATOM     15  N   UNL     1      31.220  -7.328 -23.461  0.00  0.00    -0.309 N 
ATOM     16  C   UNL     1      31.947  -7.785 -22.399  0.00  0.00    +0.103 C 
ATOM     17  C   UNL     1      33.153  -7.131 -22.388  0.00  0.00    +0.021 C 
ATOM     18  C   UNL     1      33.164  -6.234 -23.493  0.00  0.00    +0.018 C 
ATOM     19  C   UNL     1      31.939  -6.377 -24.149  0.00  0.00    +0.049 C 
ATOM     20  C   UNL     1      34.100  -5.310 -23.999  0.00  0.00    +0.038 C 
ATOM     21  C   UNL     1      31.603  -5.640 -25.291  0.00  0.00    +0.018 C 
ATOM     22  C   UNL     1      33.778  -4.566 -25.140  0.00  0.00    +0.139 C 
ATOM     23  C   UNL     1      32.548  -4.731 -25.774  0.00  0.00    +0.038 C 
ATOM     24  H   UNL     1      30.315  -7.634 -23.700  0.00  0.00    +0.152 HD
BRANCH  22  25
ATOM     25  O   UNL     1      34.679  -3.671 -25.635  0.00  0.00    -0.471 OA
ATOM     26  C   UNL     1      35.644  -4.169 -26.560  0.00  0.00    +0.252 C 
ENDBRANCH  22  25
ENDBRANCH   8  16
BRANCH  11  27
ATOM     27  N   UNL     1      32.567 -14.232 -24.506  0.00  0.00    -0.330 N 
ATOM     28  H   UNL     1      31.611 -14.017 -24.422  0.00  0.00    +0.147 HD
BRANCH  27  29
ATOM     29  C   UNL     1      33.203 -14.039 -25.775  0.00  0.00    +0.087 C 
ATOM     30  C   UNL     1      32.702 -12.775 -26.452  0.00  0.00    +0.023 C 
ENDBRANCH  27  29
ENDBRANCH  11  27
TORSDOF 4
ENDMDL
MODEL 4
REMARK VINA RESULT:     -10.7      9.242     13.958
REMARK  Name = 60848
REMARK  4 active torsions:
REMARK  status: ('A' for Active; 'I' for Inactive)
REMARK    1  A    between atoms: C_8  and  C_10
REMARK    2  A    between atoms: C_16  and  O_19
REMARK    3  A    between atoms: C_23  and  N_27
REMARK    4  A    between atoms: N_27  and  C_29
REMARK                            x       y       z     vdW  Elec       q    Type
REMARK                         _______ _______ _______ _____ _____    ______ ____
ROOT
ATOM      1  O   UNL     1      30.865  -8.722 -19.861  0.00  0.00    -0.269 OA
ATOM      2  N   UNL     1      32.583 -12.672 -22.143  0.00  0.00    -0.289 N 
ATOM      3  N   UNL     1      31.373 -10.188 -21.578  0.00  0.00    -0.272 N 
ATOM      4  C   UNL     1      32.096 -12.396 -20.780  0.00  0.00    +0.114 C 
ATOM      5  C   UNL     1      32.931 -11.500 -22.956  0.00  0.00    +0.114 C 
ATOM      6  C   UNL     1      30.968 -11.365 -20.813  0.00  0.00    +0.115 C 
ATOM      7  C   UNL     1      31.783 -10.492 -22.951  0.00  0.00    +0.115 C 
ATOM      8  C   UNL     1      31.280  -8.907 -21.006  0.00  0.00    +0.263 C 
ATOM      9  N   UNL     1      33.960 -14.457 -21.334  0.00  0.00    -0.228 NA
ATOM     10  C   UNL     1      33.247 -13.885 -22.360  0.00  0.00    +0.145 C 
ATOM     11  C   UNL     1      33.182 -14.507 -23.622  0.00  0.00    +0.077 C 
ATOM     12  C   UNL     1      33.845 -15.712 -23.829  0.00  0.00    +0.019 C 
ATOM     13  C   UNL     1      34.592 -15.628 -21.573  0.00  0.00    +0.100 C 
ATOM     14  C   UNL     1      34.565 -16.290 -22.790  0.00  0.00    +0.022 C 
ENDROOT
BRANCH   8  16
ATOM     15  N   UNL     1      32.983  -7.611 -22.276  0.00  0.00    -0.309 N 
ATOM     16  C   UNL     1      31.704  -7.778 -21.825  0.00  0.00    +0.103 C 
ATOM     17  C   UNL     1      30.948  -6.726 -22.276  0.00  0.00    +0.021 C 
ATOM     18  C   UNL     1      31.802  -5.878 -23.036  0.00  0.00    +0.018 C 
ATOM     19  C   UNL     1      33.073  -6.456 -23.020  0.00  0.00    +0.049 C 
ATOM     20  C   UNL     1      31.615  -4.670 -23.738  0.00  0.00    +0.038 C 
ATOM     21  C   UNL     1      34.171  -5.885 -23.673  0.00  0.00    +0.018 C 
ATOM     22  C   UNL     1      32.705  -4.088 -24.396  0.00  0.00    +0.139 C 
ATOM     23  C   UNL     1      33.961  -4.688 -24.363  0.00  0.00    +0.038 C 
ATOM     24  H   UNL     1      33.731  -8.226 -22.094  0.00  0.00    +0.152 HD
BRANCH  22  25
ATOM     25  O   UNL     1      32.531  -2.920 -25.077  0.00  0.00    -0.471 OA
ATOM     26  C   UNL     1      31.191  -2.553 -25.400  0.00  0.00    +0.252 C 
ENDBRANCH  22  25
ENDBRANCH   8  16
BRANCH  11  27
ATOM     27  N   UNL     1      32.451 -13.920 -24.672  0.00  0.00    -0.330 N 
ATOM     28  H   UNL     1      31.501 -13.713 -24.526  0.00  0.00    +0.147 HD
BRANCH  27  29
ATOM     29  C   UNL     1      33.030 -13.611 -25.946  0.00  0.00    +0.087 C 
ATOM     30  C   UNL     1      32.253 -12.510 -26.648  0.00  0.00    +0.023 C 
ENDBRANCH  27  29
ENDBRANCH  11  27
TORSDOF 4
ENDMDL
MODEL 5
REMARK VINA RESULT:     -10.6      6.458     12.639
REMARK  Name = 60848
REMARK  4 active torsions:
REMARK  status: ('A' for Active; 'I' for Inactive)
REMARK    1  A    between atoms: C_8  and  C_10
REMARK    2  A    between atoms: C_16  and  O_19
REMARK    3  A    between atoms: C_23  and  N_27
REMARK    4  A    between atoms: N_27  and  C_29
REMARK                            x       y       z     vdW  Elec       q    Type
REMARK                         _______ _______ _______ _____ _____    ______ ____
ROOT
ATOM      1  O   UNL     1      33.412 -14.652 -26.169  0.00  0.00    -0.269 OA
ATOM      2  N   UNL     1      32.581 -10.811 -23.285  0.00  0.00    -0.289 N 
ATOM      3  N   UNL     1      32.672 -13.418 -24.357  0.00  0.00    -0.272 N 
ATOM      4  C   UNL     1      32.770 -10.993 -24.734  0.00  0.00    +0.114 C 
ATOM      5  C   UNL     1      33.010 -11.927 -22.430  0.00  0.00    +0.114 C 
ATOM      6  C   UNL     1      32.176 -12.325 -25.188  0.00  0.00    +0.115 C 
ATOM      7  C   UNL     1      32.404 -13.237 -22.927  0.00  0.00    +0.115 C 
ATOM      8  C   UNL     1      33.276 -14.540 -24.949  0.00  0.00    +0.263 C 
ATOM      9  N   UNL     1      33.397  -8.563 -23.418  0.00  0.00    -0.228 NA
ATOM     10  C   UNL     1      32.621  -9.504 -22.785  0.00  0.00    +0.145 C 
ATOM     11  C   UNL     1      31.871  -9.164 -21.642  0.00  0.00    +0.077 C 
ATOM     12  C   UNL     1      31.916  -7.863 -21.153  0.00  0.00    +0.019 C 
ATOM     13  C   UNL     1      33.417  -7.309 -22.913  0.00  0.00    +0.100 C 
ATOM     14  C   UNL     1      32.702  -6.912 -21.794  0.00  0.00    +0.022 C 
ENDROOT
BRANCH   8  16
ATOM     15  N   UNL     1      33.537 -16.923 -24.280  0.00  0.00    -0.309 N 
ATOM     16  C   UNL     1      33.752 -15.592 -24.058  0.00  0.00    +0.103 C 
ATOM     17  C   UNL     1      34.465 -15.460 -22.894  0.00  0.00    +0.021 C 
ATOM     18  C   UNL     1      34.696 -16.766 -22.380  0.00  0.00    +0.018 C 
ATOM     19  C   UNL     1      34.103 -17.666 -23.269  0.00  0.00    +0.049 C 
ATOM     20  C   UNL     1      35.355 -17.273 -21.242  0.00  0.00    +0.038 C 
ATOM     21  C   UNL     1      34.137 -19.052 -23.076  0.00  0.00    +0.018 C 
ATOM     22  C   UNL     1      35.396 -18.657 -21.036  0.00  0.00    +0.139 C 
ATOM     23  C   UNL     1      34.795 -19.530 -21.940  0.00  0.00    +0.038 C 
ATOM     24  H   UNL     1      33.048 -17.296 -25.049  0.00  0.00    +0.152 HD
BRANCH  22  25
ATOM     25  O   UNL     1      36.031 -19.153 -19.936  0.00  0.00    -0.471 OA
ATOM     26  C   UNL     1      35.728 -20.496 -19.566  0.00  0.00    +0.252 C 
ENDBRANCH  22  25
ENDBRANCH   8  16
BRANCH  11  27
ATOM     27  N   UNL     1      31.076 -10.129 -20.995  0.00  0.00    -0.330 N 
ATOM     28  H   UNL     1      30.247 -10.425 -21.432  0.00  0.00    +0.147 HD
BRANCH  27  29
ATOM     29  C   UNL     1      31.422 -10.699 -19.726  0.00  0.00    +0.087 C 
ATOM     30  C   UNL     1      31.236  -9.692 -18.604  0.00  0.00    +0.023 C 
ENDBRANCH  27  29
ENDBRANCH  11  27
TORSDOF 4
ENDMDL
MODEL 6
REMARK VINA RESULT:      -9.7     10.331     16.526
REMARK  Name = 60848
REMARK  4 active torsions:
REMARK  status: ('A' for Active; 'I' for Inactive)
REMARK    1  A    between atoms: C_8  and  C_10
REMARK    2  A    between atoms: C_16  and  O_19
REMARK    3  A    between atoms: C_23  and  N_27
REMARK    4  A    between atoms: N_27  and  C_29
REMARK                            x       y       z     vdW  Elec       q    Type
REMARK                         _______ _______ _______ _____ _____    ______ ____
ROOT
ATOM      1  O   UNL     1      30.519  -9.297 -19.820  0.00  0.00    -0.269 OA
ATOM      2  N   UNL     1      31.649  -5.688 -22.896  0.00  0.00    -0.289 N 
ATOM      3  N   UNL     1      31.755  -8.000 -21.284  0.00  0.00    -0.272 N 
ATOM      4  C   UNL     1      30.714  -5.828 -21.767  0.00  0.00    +0.114 C 
ATOM      5  C   UNL     1      32.170  -6.939 -23.464  0.00  0.00    +0.114 C 
ATOM      6  C   UNL     1      31.304  -6.742 -20.694  0.00  0.00    +0.115 C 
ATOM      7  C   UNL     1      32.738  -7.826 -22.358  0.00  0.00    +0.115 C 
ATOM      8  C   UNL     1      31.301  -9.226 -20.770  0.00  0.00    +0.263 C 
ATOM      9  N   UNL     1      30.267  -4.000 -23.884  0.00  0.00    -0.228 NA
ATOM     10  C   UNL     1      31.509  -4.563 -23.717  0.00  0.00    +0.145 C 
ATOM     11  C   UNL     1      32.636  -4.019 -24.364  0.00  0.00    +0.077 C 
ATOM     12  C   UNL     1      32.488  -2.901 -25.177  0.00  0.00    +0.019 C 
ATOM     13  C   UNL     1      30.162  -2.914 -24.684  0.00  0.00    +0.100 C 
ATOM     14  C   UNL     1      31.231  -2.332 -25.346  0.00  0.00    +0.022 C 
ENDROOT
BRANCH   8  16
ATOM     15  N   UNL     1      32.283 -11.512 -20.719  0.00  0.00    -0.309 N 
ATOM     16  C   UNL     1      31.789 -10.442 -21.410  0.00  0.00    +0.103 C 
ATOM     17  C   UNL     1      31.846 -10.732 -22.750  0.00  0.00    +0.021 C 
ATOM     18  C   UNL     1      32.398 -12.036 -22.885  0.00  0.00    +0.018 C 
ATOM     19  C   UNL     1      32.664 -12.503 -21.595  0.00  0.00    +0.049 C 
ATOM     20  C   UNL     1      32.699 -12.867 -23.982  0.00  0.00    +0.038 C 
ATOM     21  C   UNL     1      33.217 -13.764 -21.348  0.00  0.00    +0.018 C 
ATOM     22  C   UNL     1      33.253 -14.132 -23.750  0.00  0.00    +0.139 C 
ATOM     23  C   UNL     1      33.507 -14.571 -22.452  0.00  0.00    +0.038 C 
ATOM     24  H   UNL     1      32.357 -11.566 -19.739  0.00  0.00    +0.152 HD
BRANCH  22  25
ATOM     25  O   UNL     1      33.546 -14.940 -24.807  0.00  0.00    -0.471 OA
ATOM     26  C   UNL     1      33.871 -16.297 -24.513  0.00  0.00    +0.252 C 
ENDBRANCH  22  25
ENDBRANCH   8  16
BRANCH  11  27
ATOM     27  N   UNL     1      33.908  -4.597 -24.192  0.00  0.00    -0.330 N 
ATOM     28  H   UNL     1      34.149  -4.948 -23.305  0.00  0.00    +0.147 HD
BRANCH  27  29
ATOM     29  C   UNL     1      34.868  -4.696 -25.250  0.00  0.00    +0.087 C 
ATOM     30  C   UNL     1      34.555  -5.866 -26.167  0.00  0.00    +0.023 C 
ENDBRANCH  27  29
ENDBRANCH  11  27
TORSDOF 4
ENDMDL
MODEL 7
REMARK VINA RESULT:      -8.9     10.417     16.202
REMARK  Name = 60848
REMARK  4 active torsions:
REMARK  status: ('A' for Active; 'I' for Inactive)
REMARK    1  A    between atoms: C_8  and  C_10
REMARK    2  A    between atoms: C_16  and  O_19
REMARK    3  A    between atoms: C_23  and  N_27
REMARK    4  A    between atoms: N_27  and  C_29
REMARK                            x       y       z     vdW  Elec       q    Type
REMARK                         _______ _______ _______ _____ _____    ______ ____
ROOT
ATOM      1  O   UNL     1      30.898 -10.309 -20.327  0.00  0.00    -0.269 OA
ATOM      2  N   UNL     1      31.803  -6.264 -22.892  0.00  0.00    -0.289 N 
ATOM      3  N   UNL     1      32.027  -8.790 -21.657  0.00  0.00    -0.272 N 
ATOM      4  C   UNL     1      30.948  -6.585 -21.737  0.00  0.00    +0.114 C 
ATOM      5  C   UNL     1      32.290  -7.408 -23.675  0.00  0.00    +0.114 C 
ATOM      6  C   UNL     1      31.612  -7.642 -20.856  0.00  0.00    +0.115 C 
ATOM      7  C   UNL     1      32.934  -8.443 -22.755  0.00  0.00    +0.115 C 
ATOM      8  C   UNL     1      31.613 -10.086 -21.305  0.00  0.00    +0.263 C 
ATOM      9  N   UNL     1      30.350  -4.467 -23.521  0.00  0.00    -0.228 NA
ATOM     10  C   UNL     1      31.603  -5.031 -23.523  0.00  0.00    +0.145 C 
ATOM     11  C   UNL     1      32.682  -4.380 -24.154  0.00  0.00    +0.077 C 
ATOM     12  C   UNL     1      32.475  -3.155 -24.778  0.00  0.00    +0.019 C 
ATOM     13  C   UNL     1      30.188  -3.275 -24.138  0.00  0.00    +0.100 C 
ATOM     14  C   UNL     1      31.207  -2.585 -24.775  0.00  0.00    +0.022 C 
ENDROOT
BRANCH   8  16
ATOM     15  N   UNL     1      31.944 -11.185 -23.513  0.00  0.00    -0.309 N 
ATOM     16  C   UNL     1      32.062 -11.185 -22.152  0.00  0.00    +0.103 C 
ATOM     17  C   UNL     1      32.654 -12.362 -21.771  0.00  0.00    +0.021 C 
ATOM     18  C   UNL     1      32.910 -13.116 -22.951  0.00  0.00    +0.018 C 
ATOM     19  C   UNL     1      32.455 -12.354 -24.030  0.00  0.00    +0.049 C 
ATOM     20  C   UNL     1      33.487 -14.376 -23.207  0.00  0.00    +0.038 C 
ATOM     21  C   UNL     1      32.549 -12.791 -25.356  0.00  0.00    +0.018 C 
ATOM     22  C   UNL     1      33.586 -14.826 -24.529  0.00  0.00    +0.139 C 
ATOM     23  C   UNL     1      33.123 -14.044 -25.584  0.00  0.00    +0.038 C 
ATOM     24  H   UNL     1      31.551 -10.456 -24.046  0.00  0.00    +0.152 HD
BRANCH  22  25
ATOM     25  O   UNL     1      34.143 -16.044 -24.782  0.00  0.00    -0.471 OA
ATOM     26  C   UNL     1      33.593 -17.163 -24.090  0.00  0.00    +0.252 C 
ENDBRANCH  22  25
ENDBRANCH   8  16
BRANCH  11  27
ATOM     27  N   UNL     1      33.965  -4.959 -24.155  0.00  0.00    -0.330 N 
ATOM     28  H   UNL     1      34.535  -4.843 -23.362  0.00  0.00    +0.147 HD
BRANCH  27  29
ATOM     29  C   UNL     1      34.479  -5.711 -25.261  0.00  0.00    +0.087 C 
ATOM     30  C   UNL     1      34.734  -4.817 -26.462  0.00  0.00    +0.023 C 
ENDBRANCH  27  29
ENDBRANCH  11  27
TORSDOF 4
ENDMDL
