MODEL 1
REMARK VINA RESULT:     -12.4      0.000      0.000
REMARK  Name = 5327153
REMARK  6 active torsions:
REMARK  status: ('A' for Active; 'I' for Inactive)
REMARK    1  A    between atoms: C_3  and  C_15
REMARK    2  A    between atoms: C_10  and  O_24
REMARK    3  A    between atoms: C_11  and  N_18
REMARK    4  A    between atoms: N_18  and  S_20
REMARK    5  A    between atoms: O_24  and  C_25
REMARK    6  A    between atoms: C_25  and  C_26
REMARK                            x       y       z     vdW  Elec       q    Type
REMARK                         _______ _______ _______ _____ _____    ______ ____
ROOT
ATOM      1  O   UNL     1      36.601 -21.485 -16.308  0.00  0.00    -0.226 OA
ATOM      2  N   UNL     1      34.504 -22.438 -15.952  0.00  0.00    -0.235 N 
ATOM      3  C   UNL     1      34.858 -22.981 -14.641  0.00  0.00    +0.159 C 
ATOM      4  C   UNL     1      33.756 -22.780 -13.606  0.00  0.00    +0.055 C 
ATOM      5  C   UNL     1      33.185 -22.770 -16.510  0.00  0.00    +0.124 C 
ATOM      6  C   UNL     1      32.387 -23.132 -14.125  0.00  0.00    -0.022 C 
ATOM      7  C   UNL     1      32.118 -23.108 -15.501  0.00  0.00    -0.005 C 
ATOM      8  C   UNL     1      30.827 -23.416 -15.954  0.00  0.00    +0.013 C 
ATOM      9  C   UNL     1      31.358 -23.437 -13.222  0.00  0.00    -0.003 C 
ATOM     10  C   UNL     1      35.483 -21.788 -16.720  0.00  0.00    +0.406 C 
ATOM     11  C   UNL     1      29.813 -23.730 -15.050  0.00  0.00    +0.065 C 
ATOM     12  C   UNL     1      30.078 -23.738 -13.684  0.00  0.00    +0.016 C 
ENDROOT
BRANCH   3  15
ATOM     13  O   UNL     1      34.631 -25.118 -15.688  0.00  0.00    -0.273 OA
ATOM     14  N   UNL     1      36.192 -24.861 -13.979  0.00  0.00    -0.301 N 
ATOM     15  C   UNL     1      35.202 -24.430 -14.847  0.00  0.00    +0.241 C 
ATOM     16  C   UNL     1      36.686 -26.219 -13.959  0.00  0.00    +0.111 C 
ATOM     17  H   UNL     1      36.576 -24.212 -13.346  0.00  0.00    +0.150 HD
ENDBRANCH   3  15
BRANCH  11  18
ATOM     18  N   UNL     1      28.503 -24.040 -15.527  0.00  0.00    -0.213 N 
ATOM     19  H   UNL     1      28.090 -24.920 -15.369  0.00  0.00    +0.174 HD
BRANCH  18  20
ATOM     20  S   UNL     1      27.677 -22.791 -16.399  0.00  0.00    +0.091 S 
ATOM     21  O   UNL     1      26.468 -22.333 -15.405  0.00  0.00    -0.050 OA
ATOM     22  O   UNL     1      28.574 -21.660 -16.556  0.00  0.00    -0.050 OA
ATOM     23  O   UNL     1      27.064 -23.396 -17.568  0.00  0.00    -0.050 OA
ENDBRANCH  18  20
ENDBRANCH  11  18
BRANCH  10  24
ATOM     24  O   UNL     1      35.060 -21.527 -17.998  0.00  0.00    -0.430 OA
BRANCH  24  25
ATOM     25  C   UNL     1      36.079 -21.177 -18.940  0.00  0.00    +0.237 C 
BRANCH  25  26
ATOM     26  C   UNL     1      35.524 -20.180 -19.914  0.00  0.00    +0.021 C 
ATOM     27  C   UNL     1      36.347 -19.183 -20.424  0.00  0.00    -0.001 C 
ATOM     28  C   UNL     1      34.189 -20.262 -20.298  0.00  0.00    -0.001 C 
ATOM     29  C   UNL     1      35.831 -18.256 -21.329  0.00  0.00    -0.000 C 
ATOM     30  C   UNL     1      33.673 -19.335 -21.204  0.00  0.00    -0.000 C 
ATOM     31  C   UNL     1      34.494 -18.332 -21.719  0.00  0.00    -0.000 C 
ENDBRANCH  25  26
ENDBRANCH  24  25
ENDBRANCH  10  24
TORSDOF 6
ENDMDL
MODEL 2
REMARK VINA RESULT:     -10.2      1.235      2.001
REMARK  Name = 5327153
REMARK  6 active torsions:
REMARK  status: ('A' for Active; 'I' for Inactive)
REMARK    1  A    between atoms: C_3  and  C_15
REMARK    2  A    between atoms: C_10  and  O_24
REMARK    3  A    between atoms: C_11  and  N_18
REMARK    4  A    between atoms: N_18  and  S_20
REMARK    5  A    between atoms: O_24  and  C_25
REMARK    6  A    between atoms: C_25  and  C_26
REMARK                            x       y       z     vdW  Elec       q    Type
REMARK                         _______ _______ _______ _____ _____    ______ ____
ROOT
ATOM      1  O   UNL     1      37.185 -22.148 -13.883  0.00  0.00    -0.226 OA
ATOM      2  N   UNL     1      35.037 -22.656 -14.632  0.00  0.00    -0.235 N 
ATOM      3  C   UNL     1      34.849 -23.748 -13.677  0.00  0.00    +0.159 C 
ATOM      4  C   UNL     1      33.464 -23.735 -13.038  0.00  0.00    +0.055 C 
ATOM      5  C   UNL     1      33.989 -22.422 -15.638  0.00  0.00    +0.124 C 
ATOM      6  C   UNL     1      32.355 -23.523 -14.034  0.00  0.00    -0.022 C 
ATOM      7  C   UNL     1      32.608 -22.884 -15.257  0.00  0.00    -0.005 C 
ATOM      8  C   UNL     1      31.550 -22.679 -16.155  0.00  0.00    +0.013 C 
ATOM      9  C   UNL     1      31.049 -23.922 -13.716  0.00  0.00    -0.003 C 
ATOM     10  C   UNL     1      36.273 -21.993 -14.693  0.00  0.00    +0.406 C 
ATOM     11  C   UNL     1      30.256 -23.090 -15.836  0.00  0.00    +0.065 C 
ATOM     12  C   UNL     1      30.006 -23.710 -14.616  0.00  0.00    +0.016 C 
ENDROOT
BRANCH   3  15
ATOM     13  O   UNL     1      34.461 -25.385 -15.375  0.00  0.00    -0.273 OA
ATOM     14  N   UNL     1      36.203 -25.717 -13.866  0.00  0.00    -0.301 N 
ATOM     15  C   UNL     1      35.135 -25.025 -14.414  0.00  0.00    +0.241 C 
ATOM     16  C   UNL     1      36.666 -26.987 -14.376  0.00  0.00    +0.111 C 
ATOM     17  H   UNL     1      36.668 -25.325 -13.092  0.00  0.00    +0.150 HD
ENDBRANCH   3  15
BRANCH  11  18
ATOM     18  N   UNL     1      29.191 -22.872 -16.761  0.00  0.00    -0.213 N 
ATOM     19  H   UNL     1      29.357 -22.765 -17.726  0.00  0.00    +0.174 HD
BRANCH  18  20
ATOM     20  S   UNL     1      27.590 -22.806 -16.101  0.00  0.00    +0.091 S 
ATOM     21  O   UNL     1      26.616 -22.699 -17.405  0.00  0.00    -0.050 OA
ATOM     22  O   UNL     1      27.305 -24.066 -15.438  0.00  0.00    -0.050 OA
ATOM     23  O   UNL     1      27.463 -21.559 -15.368  0.00  0.00    -0.050 OA
ENDBRANCH  18  20
ENDBRANCH  11  18
BRANCH  10  24
ATOM     24  O   UNL     1      36.364 -21.150 -15.770  0.00  0.00    -0.430 OA
BRANCH  24  25
ATOM     25  C   UNL     1      36.782 -21.745 -17.003  0.00  0.00    +0.237 C 
BRANCH  25  26
ATOM     26  C   UNL     1      35.880 -21.272 -18.105  0.00  0.00    +0.021 C 
ATOM     27  C   UNL     1      34.584 -21.767 -18.194  0.00  0.00    -0.001 C 
ATOM     28  C   UNL     1      36.348 -20.343 -19.027  0.00  0.00    -0.001 C 
ATOM     29  C   UNL     1      33.746 -21.327 -19.218  0.00  0.00    -0.000 C 
ATOM     30  C   UNL     1      35.510 -19.903 -20.051  0.00  0.00    -0.000 C 
ATOM     31  C   UNL     1      34.208 -20.395 -20.147  0.00  0.00    -0.000 C 
ENDBRANCH  25  26
ENDBRANCH  24  25
ENDBRANCH  10  24
TORSDOF 6
ENDMDL
MODEL 3
REMARK VINA RESULT:      -9.7     11.670     15.260
REMARK  Name = 5327153
REMARK  6 active torsions:
REMARK  status: ('A' for Active; 'I' for Inactive)
REMARK    1  A    between atoms: C_3  and  C_15
REMARK    2  A    between atoms: C_10  and  O_24
REMARK    3  A    between atoms: C_11  and  N_18
REMARK    4  A    between atoms: N_18  and  S_20
REMARK    5  A    between atoms: O_24  and  C_25
REMARK    6  A    between atoms: C_25  and  C_26
REMARK                            x       y       z     vdW  Elec       q    Type
REMARK                         _______ _______ _______ _____ _____    ______ ____
ROOT
ATOM      1  O   UNL     1      29.714  -6.906 -23.017  0.00  0.00    -0.226 OA
ATOM      2  N   UNL     1      31.042  -8.798 -22.713  0.00  0.00    -0.235 N 
ATOM      3  C   UNL     1      30.622  -8.998 -21.326  0.00  0.00    +0.159 C 
ATOM      4  C   UNL     1      30.337 -10.462 -21.005  0.00  0.00    +0.055 C 
ATOM      5  C   UNL     1      32.090  -9.675 -23.257  0.00  0.00    +0.124 C 
ATOM      6  C   UNL     1      31.398 -11.397 -21.521  0.00  0.00    -0.022 C 
ATOM      7  C   UNL     1      32.213 -11.025 -22.600  0.00  0.00    -0.005 C 
ATOM      8  C   UNL     1      33.176 -11.927 -23.076  0.00  0.00    +0.013 C 
ATOM      9  C   UNL     1      31.539 -12.671 -20.951  0.00  0.00    -0.003 C 
ATOM     10  C   UNL     1      30.586  -7.674 -23.420  0.00  0.00    +0.406 C 
ATOM     11  C   UNL     1      33.318 -13.187 -22.496  0.00  0.00    +0.065 C 
ATOM     12  C   UNL     1      32.498 -13.559 -21.435  0.00  0.00    +0.016 C 
ENDROOT
BRANCH   3  15
ATOM     13  O   UNL     1      32.161  -9.023 -19.497  0.00  0.00    -0.273 OA
ATOM     14  N   UNL     1      32.061  -7.138 -20.860  0.00  0.00    -0.301 N 
ATOM     15  C   UNL     1      31.699  -8.412 -20.457  0.00  0.00    +0.241 C 
ATOM     16  C   UNL     1      33.060  -6.348 -20.176  0.00  0.00    +0.111 C 
ATOM     17  H   UNL     1      31.618  -6.752 -21.649  0.00  0.00    +0.150 HD
ENDBRANCH   3  15
BRANCH  11  18
ATOM     18  N   UNL     1      34.303 -14.094 -22.992  0.00  0.00    -0.213 N 
ATOM     19  H   UNL     1      35.249 -14.025 -22.729  0.00  0.00    +0.174 HD
BRANCH  18  20
ATOM     20  S   UNL     1      33.749 -15.323 -24.081  0.00  0.00    +0.091 S 
ATOM     21  O   UNL     1      34.871 -15.354 -25.264  0.00  0.00    -0.050 OA
ATOM     22  O   UNL     1      33.789 -16.604 -23.399  0.00  0.00    -0.050 OA
ATOM     23  O   UNL     1      32.509 -14.861 -24.679  0.00  0.00    -0.050 OA
ENDBRANCH  18  20
ENDBRANCH  11  18
BRANCH  10  24
ATOM     24  O   UNL     1      31.228  -7.514 -24.621  0.00  0.00    -0.430 OA
BRANCH  24  25
ATOM     25  C   UNL     1      31.058  -6.245 -25.262  0.00  0.00    +0.237 C 
BRANCH  25  26
ATOM     26  C   UNL     1      32.408  -5.656 -25.546  0.00  0.00    +0.021 C 
ATOM     27  C   UNL     1      33.168  -5.140 -24.502  0.00  0.00    -0.001 C 
ATOM     28  C   UNL     1      32.888  -5.630 -26.851  0.00  0.00    -0.001 C 
ATOM     29  C   UNL     1      34.423  -4.593 -24.766  0.00  0.00    -0.000 C 
ATOM     30  C   UNL     1      34.143  -5.083 -27.115  0.00  0.00    -0.000 C 
ATOM     31  C   UNL     1      34.911  -4.564 -26.073  0.00  0.00    -0.000 C 
ENDBRANCH  25  26
ENDBRANCH  24  25
ENDBRANCH  10  24
TORSDOF 6
ENDMDL
