MODEL 1
REMARK VINA RESULT:     -11.6      0.000      0.000
REMARK  Name = 40589
REMARK  7 active torsions:
REMARK  status: ('A' for Active; 'I' for Inactive)
REMARK    1  A    between atoms: N_1  and  C_15
REMARK    2  A    between atoms: N_2  and  C_9
REMARK    3  A    between atoms: C_15  and  C_16
REMARK    4  A    between atoms: C_16  and  C_17
REMARK    5  A    between atoms: C_17  and  N_19
REMARK    6  A    between atoms: N_20  and  C_24
REMARK    7  A    between atoms: C_23  and  C_26
REMARK                            x       y       z     vdW  Elec       q    Type
REMARK                         _______ _______ _______ _____ _____    ______ ____
ROOT
ATOM      1  N   UNL     1      34.556 -16.568 -23.632  0.00  0.00    +0.389 N 
ATOM      2  N   UNL     1      34.437 -18.575 -21.603  0.00  0.00    -0.312 N 
ATOM      3  C   UNL     1      34.605 -16.194 -22.213  0.00  0.00    -0.055 C 
ATOM      4  C   UNL     1      33.706 -17.752 -23.807  0.00  0.00    -0.055 C 
ATOM      5  C   UNL     1      35.177 -17.331 -21.364  0.00  0.00    +0.068 C 
ATOM      6  C   UNL     1      34.248 -18.941 -23.010  0.00  0.00    +0.068 C 
ATOM      7  H   UNL     1      35.501 -16.793 -23.946  0.00  0.00    -0.080 HD
ENDROOT
BRANCH   2   9
ATOM      8 CL   UNL     1      31.952 -21.670 -18.329  0.00  0.00    -0.082 Cl
ATOM      9  C   UNL     1      34.501 -19.577 -20.628  0.00  0.00    +0.049 C 
ATOM     10  C   UNL     1      33.332 -20.078 -20.022  0.00  0.00    +0.026 C 
ATOM     11  C   UNL     1      35.740 -20.115 -20.222  0.00  0.00    +0.015 C 
ATOM     12  C   UNL     1      33.397 -21.077 -19.052  0.00  0.00    +0.059 C 
ATOM     13  C   UNL     1      35.804 -21.113 -19.251  0.00  0.00    +0.002 C 
ATOM     14  C   UNL     1      34.634 -21.595 -18.665  0.00  0.00    +0.011 C 
ENDBRANCH   2   9
BRANCH   1  15
ATOM     15  C   UNL     1      34.060 -15.456 -24.439  0.00  0.00    -0.075 C 
BRANCH  15  16
ATOM     16  C   UNL     1      33.142 -14.530 -23.636  0.00  0.00    +0.004 C 
BRANCH  16  17
ATOM     17  C   UNL     1      33.865 -13.393 -22.917  0.00  0.00    +0.130 C 
BRANCH  17  19
ATOM     18  O   UNL     1      31.746 -13.013 -20.781  0.00  0.00    -0.245 OA
ATOM     19  N   UNL     1      32.999 -12.281 -22.634  0.00  0.00    -0.201 N 
ATOM     20  N   UNL     1      31.488 -10.913 -21.786  0.00  0.00    -0.267 N 
ATOM     21  N   UNL     1      33.036 -11.134 -23.383  0.00  0.00    -0.152 NA
ATOM     22  C   UNL     1      32.033 -12.172 -21.621  0.00  0.00    +0.348 A 
ATOM     23  C   UNL     1      32.130 -10.372 -22.843  0.00  0.00    +0.144 A 
BRANCH  20  24
ATOM     24  C   UNL     1      30.441 -10.324 -20.972  0.00  0.00    +0.112 C 
ATOM     25  C   UNL     1      31.019  -9.625 -19.755  0.00  0.00    +0.027 C 
ENDBRANCH  20  24
BRANCH  23  26
ATOM     26  C   UNL     1      31.811  -8.998 -23.330  0.00  0.00    +0.066 C 
ATOM     27  C   UNL     1      32.860  -8.012 -22.858  0.00  0.00    +0.008 C 
ENDBRANCH  23  26
ENDBRANCH  17  19
ENDBRANCH  16  17
ENDBRANCH  15  16
ENDBRANCH   1  15
TORSDOF 7
ENDMDL
MODEL 2
REMARK VINA RESULT:     -11.2      3.577      9.499
REMARK  Name = 40589
REMARK  7 active torsions:
REMARK  status: ('A' for Active; 'I' for Inactive)
REMARK    1  A    between atoms: N_1  and  C_15
REMARK    2  A    between atoms: N_2  and  C_9
REMARK    3  A    between atoms: C_15  and  C_16
REMARK    4  A    between atoms: C_16  and  C_17
REMARK    5  A    between atoms: C_17  and  N_19
REMARK    6  A    between atoms: N_20  and  C_24
REMARK    7  A    between atoms: C_23  and  C_26
REMARK                            x       y       z     vdW  Elec       q    Type
REMARK                         _______ _______ _______ _____ _____    ______ ____
ROOT
ATOM      1  N   UNL     1      34.758 -15.854 -22.350  0.00  0.00    +0.389 N 
ATOM      2  N   UNL     1      33.175 -13.519 -21.897  0.00  0.00    -0.312 N 
ATOM      3  C   UNL     1      33.909 -15.313 -23.418  0.00  0.00    -0.055 C 
ATOM      4  C   UNL     1      34.123 -15.628 -21.046  0.00  0.00    -0.055 C 
ATOM      5  C   UNL     1      33.691 -13.809 -23.240  0.00  0.00    +0.068 C 
ATOM      6  C   UNL     1      33.911 -14.134 -20.787  0.00  0.00    +0.068 C 
ATOM      7  H   UNL     1      35.656 -15.370 -22.366  0.00  0.00    -0.080 HD
ENDROOT
BRANCH   2   9
ATOM      8 CL   UNL     1      31.819  -8.906 -23.728  0.00  0.00    -0.082 Cl
ATOM      9  C   UNL     1      32.504 -12.308 -21.697  0.00  0.00    +0.049 C 
ATOM     10  C   UNL     1      32.490 -11.312 -22.693  0.00  0.00    +0.026 C 
ATOM     11  C   UNL     1      31.821 -12.048 -20.491  0.00  0.00    +0.015 C 
ATOM     12  C   UNL     1      31.820 -10.105 -22.493  0.00  0.00    +0.059 C 
ATOM     13  C   UNL     1      31.152 -10.841 -20.291  0.00  0.00    +0.002 C 
ATOM     14  C   UNL     1      31.151  -9.869 -21.292  0.00  0.00    +0.011 C 
ENDBRANCH   2   9
BRANCH   1  15
ATOM     15  C   UNL     1      35.004 -17.279 -22.561  0.00  0.00    -0.075 C 
BRANCH  15  16
ATOM     16  C   UNL     1      34.906 -18.077 -21.258  0.00  0.00    +0.004 C 
BRANCH  16  17
ATOM     17  C   UNL     1      33.943 -19.262 -21.315  0.00  0.00    +0.130 C 
BRANCH  17  19
ATOM     18  O   UNL     1      32.022 -21.204 -19.998  0.00  0.00    -0.245 OA
ATOM     19  N   UNL     1      34.127 -20.173 -20.219  0.00  0.00    -0.201 N 
ATOM     20  N   UNL     1      33.868 -21.696 -18.642  0.00  0.00    -0.267 N 
ATOM     21  N   UNL     1      35.329 -20.283 -19.570  0.00  0.00    -0.152 NA
ATOM     22  C   UNL     1      33.187 -21.051 -19.656  0.00  0.00    +0.348 A 
ATOM     23  C   UNL     1      35.117 -21.185 -18.656  0.00  0.00    +0.144 A 
BRANCH  20  24
ATOM     24  C   UNL     1      33.321 -22.710 -17.759  0.00  0.00    +0.112 C 
ATOM     25  C   UNL     1      32.049 -22.224 -17.087  0.00  0.00    +0.027 C 
ENDBRANCH  20  24
BRANCH  23  26
ATOM     26  C   UNL     1      36.159 -21.643 -17.692  0.00  0.00    +0.066 C 
ATOM     27  C   UNL     1      36.778 -20.459 -16.978  0.00  0.00    +0.008 C 
ENDBRANCH  23  26
ENDBRANCH  17  19
ENDBRANCH  16  17
ENDBRANCH  15  16
ENDBRANCH   1  15
TORSDOF 7
ENDMDL
MODEL 3
REMARK VINA RESULT:     -11.1      5.250     11.431
REMARK  Name = 40589
REMARK  7 active torsions:
REMARK  status: ('A' for Active; 'I' for Inactive)
REMARK    1  A    between atoms: N_1  and  C_15
REMARK    2  A    between atoms: N_2  and  C_9
REMARK    3  A    between atoms: C_15  and  C_16
REMARK    4  A    between atoms: C_16  and  C_17
REMARK    5  A    between atoms: C_17  and  N_19
REMARK    6  A    between atoms: N_20  and  C_24
REMARK    7  A    between atoms: C_23  and  C_26
REMARK                            x       y       z     vdW  Elec       q    Type
REMARK                         _______ _______ _______ _____ _____    ______ ____
ROOT
ATOM      1  N   UNL     1      35.130 -20.784 -19.741  0.00  0.00    +0.389 N 
ATOM      2  N   UNL     1      34.680 -18.344 -21.157  0.00  0.00    -0.312 N 
ATOM      3  C   UNL     1      33.771 -20.247 -19.882  0.00  0.00    -0.055 C 
ATOM      4  C   UNL     1      36.095 -19.682 -19.648  0.00  0.00    -0.055 C 
ATOM      5  C   UNL     1      33.648 -19.388 -21.143  0.00  0.00    +0.068 C 
ATOM      6  C   UNL     1      36.050 -18.803 -20.900  0.00  0.00    +0.068 C 
ATOM      7  H   UNL     1      35.350 -21.345 -20.565  0.00  0.00    -0.080 HD
ENDROOT
BRANCH   2   9
ATOM      8 CL   UNL     1      33.925 -13.264 -21.458  0.00  0.00    -0.082 Cl
ATOM      9  C   UNL     1      34.465 -17.217 -21.958  0.00  0.00    +0.049 C 
ATOM     10  C   UNL     1      34.316 -15.938 -21.386  0.00  0.00    +0.026 C 
ATOM     11  C   UNL     1      34.390 -17.328 -23.361  0.00  0.00    +0.015 C 
ATOM     12  C   UNL     1      34.102 -14.815 -22.184  0.00  0.00    +0.059 C 
ATOM     13  C   UNL     1      34.176 -16.204 -24.159  0.00  0.00    +0.002 C 
ATOM     14  C   UNL     1      34.032 -14.948 -23.571  0.00  0.00    +0.011 C 
ENDBRANCH   2   9
BRANCH   1  15
ATOM     15  C   UNL     1      35.221 -21.647 -18.565  0.00  0.00    -0.075 C 
BRANCH  15  16
ATOM     16  C   UNL     1      36.419 -21.287 -17.681  0.00  0.00    +0.004 C 
BRANCH  16  17
ATOM     17  C   UNL     1      36.114 -21.258 -16.185  0.00  0.00    +0.130 C 
BRANCH  17  19
ATOM     18  O   UNL     1      34.566 -23.786 -15.541  0.00  0.00    -0.245 OA
ATOM     19  N   UNL     1      36.515 -22.466 -15.518  0.00  0.00    -0.201 N 
ATOM     20  N   UNL     1      36.597 -24.470 -14.596  0.00  0.00    -0.267 N 
ATOM     21  N   UNL     1      37.789 -22.634 -15.041  0.00  0.00    -0.152 NA
ATOM     22  C   UNL     1      35.741 -23.606 -15.251  0.00  0.00    +0.348 A 
ATOM     23  C   UNL     1      37.778 -23.821 -14.511  0.00  0.00    +0.144 A 
BRANCH  20  24
ATOM     24  C   UNL     1      36.263 -25.796 -14.110  0.00  0.00    +0.112 C 
ATOM     25  C   UNL     1      36.385 -26.832 -15.215  0.00  0.00    +0.027 C 
ENDBRANCH  20  24
BRANCH  23  26
ATOM     26  C   UNL     1      38.966 -24.445 -13.859  0.00  0.00    +0.066 C 
ATOM     27  C   UNL     1      39.838 -25.129 -14.892  0.00  0.00    +0.008 C 
ENDBRANCH  23  26
ENDBRANCH  17  19
ENDBRANCH  16  17
ENDBRANCH  15  16
ENDBRANCH   1  15
TORSDOF 7
ENDMDL
MODEL 4
REMARK VINA RESULT:     -11.1      2.701      4.710
REMARK  Name = 40589
REMARK  7 active torsions:
REMARK  status: ('A' for Active; 'I' for Inactive)
REMARK    1  A    between atoms: N_1  and  C_15
REMARK    2  A    between atoms: N_2  and  C_9
REMARK    3  A    between atoms: C_15  and  C_16
REMARK    4  A    between atoms: C_16  and  C_17
REMARK    5  A    between atoms: C_17  and  N_19
REMARK    6  A    between atoms: N_20  and  C_24
REMARK    7  A    between atoms: C_23  and  C_26
REMARK                            x       y       z     vdW  Elec       q    Type
REMARK                         _______ _______ _______ _____ _____    ______ ____
ROOT
ATOM      1  N   UNL     1      34.316 -20.315 -20.664  0.00  0.00    +0.389 N 
ATOM      2  N   UNL     1      34.972 -21.355 -18.085  0.00  0.00    -0.312 N 
ATOM      3  C   UNL     1      35.571 -19.933 -20.007  0.00  0.00    -0.055 C 
ATOM      4  C   UNL     1      33.268 -20.521 -19.658  0.00  0.00    -0.055 C 
ATOM      5  C   UNL     1      36.038 -21.021 -19.037  0.00  0.00    +0.068 C 
ATOM      6  C   UNL     1      33.657 -21.628 -18.675  0.00  0.00    +0.068 C 
ATOM      7  H   UNL     1      34.462 -21.190 -21.170  0.00  0.00    -0.080 HD
ENDROOT
BRANCH   2   9
ATOM      8 CL   UNL     1      33.555 -24.090 -13.964  0.00  0.00    -0.082 Cl
ATOM      9  C   UNL     1      35.333 -21.968 -16.881  0.00  0.00    +0.049 C 
ATOM     10  C   UNL     1      34.380 -22.650 -16.099  0.00  0.00    +0.026 C 
ATOM     11  C   UNL     1      36.661 -21.921 -16.413  0.00  0.00    +0.015 C 
ATOM     12  C   UNL     1      34.740 -23.262 -14.899  0.00  0.00    +0.059 C 
ATOM     13  C   UNL     1      37.021 -22.532 -15.212  0.00  0.00    +0.002 C 
ATOM     14  C   UNL     1      36.062 -23.203 -14.455  0.00  0.00    +0.011 C 
ENDBRANCH   2   9
BRANCH   1  15
ATOM     15  C   UNL     1      33.909 -19.294 -21.627  0.00  0.00    -0.075 C 
BRANCH  15  16
ATOM     16  C   UNL     1      34.833 -18.073 -21.592  0.00  0.00    +0.004 C 
BRANCH  16  17
ATOM     17  C   UNL     1      34.945 -17.328 -22.920  0.00  0.00    +0.130 C 
BRANCH  17  19
ATOM     18  O   UNL     1      33.722 -15.616 -25.105  0.00  0.00    -0.245 OA
ATOM     19  N   UNL     1      34.346 -16.023 -22.871  0.00  0.00    -0.201 N 
ATOM     20  N   UNL     1      33.358 -14.107 -23.350  0.00  0.00    -0.267 N 
ATOM     21  N   UNL     1      34.246 -15.322 -21.699  0.00  0.00    -0.152 NA
ATOM     22  C   UNL     1      33.795 -15.283 -23.930  0.00  0.00    +0.348 A 
ATOM     23  C   UNL     1      33.664 -14.209 -22.040  0.00  0.00    +0.144 A 
BRANCH  20  24
ATOM     24  C   UNL     1      32.708 -13.007 -24.039  0.00  0.00    +0.112 C 
ATOM     25  C   UNL     1      33.439 -11.699 -23.796  0.00  0.00    +0.027 C 
ENDBRANCH  20  24
BRANCH  23  26
ATOM     26  C   UNL     1      33.339 -13.118 -21.075  0.00  0.00    +0.066 C 
ATOM     27  C   UNL     1      32.048 -13.425 -20.343  0.00  0.00    +0.008 C 
ENDBRANCH  23  26
ENDBRANCH  17  19
ENDBRANCH  16  17
ENDBRANCH  15  16
ENDBRANCH   1  15
TORSDOF 7
ENDMDL
MODEL 5
REMARK VINA RESULT:     -11.0      1.043      1.796
REMARK  Name = 40589
REMARK  7 active torsions:
REMARK  status: ('A' for Active; 'I' for Inactive)
REMARK    1  A    between atoms: N_1  and  C_15
REMARK    2  A    between atoms: N_2  and  C_9
REMARK    3  A    between atoms: C_15  and  C_16
REMARK    4  A    between atoms: C_16  and  C_17
REMARK    5  A    between atoms: C_17  and  N_19
REMARK    6  A    between atoms: N_20  and  C_24
REMARK    7  A    between atoms: C_23  and  C_26
REMARK                            x       y       z     vdW  Elec       q    Type
REMARK                         _______ _______ _______ _____ _____    ______ ____
ROOT
ATOM      1  N   UNL     1      34.624 -16.541 -23.584  0.00  0.00    +0.389 N 
ATOM      2  N   UNL     1      34.461 -18.573 -21.583  0.00  0.00    -0.312 N 
ATOM      3  C   UNL     1      34.630 -16.183 -22.160  0.00  0.00    -0.055 C 
ATOM      4  C   UNL     1      33.788 -17.728 -23.797  0.00  0.00    -0.055 C 
ATOM      5  C   UNL     1      35.186 -17.327 -21.309  0.00  0.00    +0.068 C 
ATOM      6  C   UNL     1      34.315 -18.923 -23.000  0.00  0.00    +0.068 C 
ATOM      7  H   UNL     1      35.579 -16.755 -23.873  0.00  0.00    -0.080 HD
ENDROOT
BRANCH   2   9
ATOM      8 CL   UNL     1      31.912 -21.666 -18.357  0.00  0.00    -0.082 Cl
ATOM      9  C   UNL     1      34.505 -19.586 -20.619  0.00  0.00    +0.049 C 
ATOM     10  C   UNL     1      33.325 -20.075 -20.025  0.00  0.00    +0.026 C 
ATOM     11  C   UNL     1      35.733 -20.147 -20.212  0.00  0.00    +0.015 C 
ATOM     12  C   UNL     1      33.370 -21.086 -19.065  0.00  0.00    +0.059 C 
ATOM     13  C   UNL     1      35.777 -21.156 -19.251  0.00  0.00    +0.002 C 
ATOM     14  C   UNL     1      34.596 -21.626 -18.677  0.00  0.00    +0.011 C 
ENDBRANCH   2   9
BRANCH   1  15
ATOM     15  C   UNL     1      34.143 -15.422 -24.392  0.00  0.00    -0.075 C 
BRANCH  15  16
ATOM     16  C   UNL     1      33.152 -14.544 -23.623  0.00  0.00    +0.004 C 
BRANCH  16  17
ATOM     17  C   UNL     1      33.803 -13.506 -22.711  0.00  0.00    +0.130 C 
BRANCH  17  19
ATOM     18  O   UNL     1      33.820 -10.918 -24.290  0.00  0.00    -0.245 OA
ATOM     19  N   UNL     1      33.011 -12.315 -22.578  0.00  0.00    -0.201 N 
ATOM     20  N   UNL     1      32.105 -10.316 -22.813  0.00  0.00    -0.267 N 
ATOM     21  N   UNL     1      32.046 -12.199 -21.612  0.00  0.00    -0.152 NA
ATOM     22  C   UNL     1      33.072 -11.144 -23.350  0.00  0.00    +0.348 A 
ATOM     23  C   UNL     1      31.552 -11.009 -21.795  0.00  0.00    +0.144 A 
BRANCH  20  24
ATOM     24  C   UNL     1      31.777  -8.979 -23.272  0.00  0.00    +0.112 C 
ATOM     25  C   UNL     1      32.756  -7.955 -22.724  0.00  0.00    +0.027 C 
ENDBRANCH  20  24
BRANCH  23  26
ATOM     26  C   UNL     1      30.454 -10.435 -20.966  0.00  0.00    +0.066 C 
ATOM     27  C   UNL     1      31.022  -9.700 -19.769  0.00  0.00    +0.008 C 
ENDBRANCH  23  26
ENDBRANCH  17  19
ENDBRANCH  16  17
ENDBRANCH  15  16
ENDBRANCH   1  15
TORSDOF 7
ENDMDL
MODEL 6
REMARK VINA RESULT:     -10.9      6.584     12.018
REMARK  Name = 40589
REMARK  7 active torsions:
REMARK  status: ('A' for Active; 'I' for Inactive)
REMARK    1  A    between atoms: N_1  and  C_15
REMARK    2  A    between atoms: N_2  and  C_9
REMARK    3  A    between atoms: C_15  and  C_16
REMARK    4  A    between atoms: C_16  and  C_17
REMARK    5  A    between atoms: C_17  and  N_19
REMARK    6  A    between atoms: N_20  and  C_24
REMARK    7  A    between atoms: C_23  and  C_26
REMARK                            x       y       z     vdW  Elec       q    Type
REMARK                         _______ _______ _______ _____ _____    ______ ____
ROOT
ATOM      1  N   UNL     1      32.838 -22.410 -18.069  0.00  0.00    +0.389 N 
ATOM      2  N   UNL     1      34.047 -20.460 -19.771  0.00  0.00    -0.312 N 
ATOM      3  C   UNL     1      32.073 -21.241 -18.519  0.00  0.00    -0.055 C 
ATOM      4  C   UNL     1      34.249 -22.047 -17.897  0.00  0.00    -0.055 C 
ATOM      5  C   UNL     1      32.605 -20.717 -19.855  0.00  0.00    +0.068 C 
ATOM      6  C   UNL     1      34.855 -21.550 -19.212  0.00  0.00    +0.068 C 
ATOM      7  H   UNL     1      32.771 -23.141 -18.778  0.00  0.00    -0.080 HD
ENDROOT
BRANCH   2   9
ATOM      8 CL   UNL     1      33.588 -17.853 -24.182  0.00  0.00    -0.082 Cl
ATOM      9  C   UNL     1      34.615 -19.582 -20.701  0.00  0.00    +0.049 C 
ATOM     10  C   UNL     1      33.908 -19.190 -21.855  0.00  0.00    +0.026 C 
ATOM     11  C   UNL     1      35.912 -19.064 -20.511  0.00  0.00    +0.015 C 
ATOM     12  C   UNL     1      34.474 -18.315 -22.781  0.00  0.00    +0.059 C 
ATOM     13  C   UNL     1      36.478 -18.189 -21.437  0.00  0.00    +0.002 C 
ATOM     14  C   UNL     1      35.760 -17.814 -22.573  0.00  0.00    +0.011 C 
ENDBRANCH   2   9
BRANCH   1  15
ATOM     15  C   UNL     1      32.287 -22.934 -16.821  0.00  0.00    -0.075 C 
BRANCH  15  16
ATOM     16  C   UNL     1      33.269 -22.788 -15.655  0.00  0.00    +0.004 C 
BRANCH  16  17
ATOM     17  C   UNL     1      33.162 -23.886 -14.599  0.00  0.00    +0.130 C 
BRANCH  17  19
ATOM     18  O   UNL     1      35.411 -25.708 -15.505  0.00  0.00    -0.245 OA
ATOM     19  N   UNL     1      34.429 -24.193 -13.994  0.00  0.00    -0.201 N 
ATOM     20  N   UNL     1      36.433 -24.991 -13.522  0.00  0.00    -0.267 N 
ATOM     21  N   UNL     1      34.810 -23.635 -12.802  0.00  0.00    -0.152 NA
ATOM     22  C   UNL     1      35.430 -25.053 -14.472  0.00  0.00    +0.348 A 
ATOM     23  C   UNL     1      35.987 -24.139 -12.575  0.00  0.00    +0.144 A 
BRANCH  20  24
ATOM     24  C   UNL     1      37.693 -25.708 -13.565  0.00  0.00    +0.112 C 
ATOM     25  C   UNL     1      38.731 -24.947 -14.373  0.00  0.00    +0.027 C 
ENDBRANCH  20  24
BRANCH  23  26
ATOM     26  C   UNL     1      36.807 -23.812 -11.372  0.00  0.00    +0.066 C 
ATOM     27  C   UNL     1      35.912 -23.480 -10.195  0.00  0.00    +0.008 C 
ENDBRANCH  23  26
ENDBRANCH  17  19
ENDBRANCH  16  17
ENDBRANCH  15  16
ENDBRANCH   1  15
TORSDOF 7
ENDMDL
MODEL 7
REMARK VINA RESULT:     -10.7      4.699     10.168
REMARK  Name = 40589
REMARK  7 active torsions:
REMARK  status: ('A' for Active; 'I' for Inactive)
REMARK    1  A    between atoms: N_1  and  C_15
REMARK    2  A    between atoms: N_2  and  C_9
REMARK    3  A    between atoms: C_15  and  C_16
REMARK    4  A    between atoms: C_16  and  C_17
REMARK    5  A    between atoms: C_17  and  N_19
REMARK    6  A    between atoms: N_20  and  C_24
REMARK    7  A    between atoms: C_23  and  C_26
REMARK                            x       y       z     vdW  Elec       q    Type
REMARK                         _______ _______ _______ _____ _____    ______ ____
ROOT
ATOM      1  N   UNL     1      35.323 -20.328 -20.539  0.00  0.00    +0.389 N 
ATOM      2  N   UNL     1      34.677 -17.852 -21.810  0.00  0.00    -0.312 N 
ATOM      3  C   UNL     1      33.922 -19.916 -20.695  0.00  0.00    -0.055 C 
ATOM      4  C   UNL     1      36.171 -19.147 -20.340  0.00  0.00    -0.055 C 
ATOM      5  C   UNL     1      33.753 -18.988 -21.900  0.00  0.00    +0.068 C 
ATOM      6  C   UNL     1      36.077 -18.193 -21.533  0.00  0.00    +0.068 C 
ATOM      7  H   UNL     1      35.621 -20.807 -21.389  0.00  0.00    -0.080 HD
ENDROOT
BRANCH   2   9
ATOM      8 CL   UNL     1      33.837 -12.776 -21.843  0.00  0.00    -0.082 Cl
ATOM      9  C   UNL     1      34.377 -16.699 -22.543  0.00  0.00    +0.049 C 
ATOM     10  C   UNL     1      34.265 -15.445 -21.910  0.00  0.00    +0.026 C 
ATOM     11  C   UNL     1      34.175 -16.757 -23.937  0.00  0.00    +0.015 C 
ATOM     12  C   UNL     1      33.966 -14.295 -22.641  0.00  0.00    +0.059 C 
ATOM     13  C   UNL     1      33.876 -15.608 -24.667  0.00  0.00    +0.002 C 
ATOM     14  C   UNL     1      33.771 -14.377 -24.021  0.00  0.00    +0.011 C 
ENDBRANCH   2   9
BRANCH   1  15
ATOM     15  C   UNL     1      35.463 -21.256 -19.419  0.00  0.00    -0.075 C 
BRANCH  15  16
ATOM     16  C   UNL     1      34.244 -21.223 -18.491  0.00  0.00    +0.004 C 
BRANCH  16  17
ATOM     17  C   UNL     1      33.466 -22.535 -18.424  0.00  0.00    +0.130 C 
BRANCH  17  19
ATOM     18  O   UNL     1      34.178 -23.174 -15.547  0.00  0.00    -0.245 OA
ATOM     19  N   UNL     1      32.646 -22.629 -17.249  0.00  0.00    -0.201 N 
ATOM     20  N   UNL     1      31.879 -22.892 -15.195  0.00  0.00    -0.267 N 
ATOM     21  N   UNL     1      31.293 -22.417 -17.298  0.00  0.00    -0.152 NA
ATOM     22  C   UNL     1      33.045 -22.932 -15.937  0.00  0.00    +0.348 A 
ATOM     23  C   UNL     1      30.898 -22.586 -16.070  0.00  0.00    +0.144 A 
BRANCH  20  24
ATOM     24  C   UNL     1      31.768 -23.136 -13.769  0.00  0.00    +0.112 C 
ATOM     25  C   UNL     1      31.487 -24.601 -13.483  0.00  0.00    +0.027 C 
ENDBRANCH  20  24
BRANCH  23  26
ATOM     26  C   UNL     1      29.478 -22.451 -15.634  0.00  0.00    +0.066 C 
ATOM     27  C   UNL     1      28.726 -23.746 -15.867  0.00  0.00    +0.008 C 
ENDBRANCH  23  26
ENDBRANCH  17  19
ENDBRANCH  16  17
ENDBRANCH  15  16
ENDBRANCH   1  15
TORSDOF 7
ENDMDL
MODEL 8
REMARK VINA RESULT:     -10.7      2.600      4.660
REMARK  Name = 40589
REMARK  7 active torsions:
REMARK  status: ('A' for Active; 'I' for Inactive)
REMARK    1  A    between atoms: N_1  and  C_15
REMARK    2  A    between atoms: N_2  and  C_9
REMARK    3  A    between atoms: C_15  and  C_16
REMARK    4  A    between atoms: C_16  and  C_17
REMARK    5  A    between atoms: C_17  and  N_19
REMARK    6  A    between atoms: N_20  and  C_24
REMARK    7  A    between atoms: C_23  and  C_26
REMARK                            x       y       z     vdW  Elec       q    Type
REMARK                         _______ _______ _______ _____ _____    ______ ____
ROOT
ATOM      1  N   UNL     1      34.690 -20.441 -20.502  0.00  0.00    +0.389 N 
ATOM      2  N   UNL     1      33.487 -21.566 -18.168  0.00  0.00    -0.312 N 
ATOM      3  C   UNL     1      35.490 -20.677 -19.295  0.00  0.00    -0.055 C 
ATOM      4  C   UNL     1      33.316 -20.084 -20.129  0.00  0.00    -0.055 C 
ATOM      5  C   UNL     1      34.903 -21.817 -18.460  0.00  0.00    +0.068 C 
ATOM      6  C   UNL     1      32.656 -21.204 -19.322  0.00  0.00    +0.068 C 
ATOM      7  H   UNL     1      34.668 -21.298 -21.055  0.00  0.00    -0.080 HD
ENDROOT
BRANCH   2   9
ATOM      8 CL   UNL     1      29.227 -23.130 -15.743  0.00  0.00    -0.082 Cl
ATOM      9  C   UNL     1      32.911 -22.230 -17.080  0.00  0.00    +0.049 C 
ATOM     10  C   UNL     1      31.512 -22.343 -16.955  0.00  0.00    +0.026 C 
ATOM     11  C   UNL     1      33.714 -22.806 -16.074  0.00  0.00    +0.015 C 
ATOM     12  C   UNL     1      30.939 -23.006 -15.870  0.00  0.00    +0.059 C 
ATOM     13  C   UNL     1      33.141 -23.468 -14.989  0.00  0.00    +0.002 C 
ATOM     14  C   UNL     1      31.754 -23.569 -14.886  0.00  0.00    +0.011 C 
ENDBRANCH   2   9
BRANCH   1  15
ATOM     15  C   UNL     1      35.291 -19.388 -21.318  0.00  0.00    -0.075 C 
BRANCH  15  16
ATOM     16  C   UNL     1      34.236 -18.591 -22.093  0.00  0.00    +0.004 C 
BRANCH  16  17
ATOM     17  C   UNL     1      34.811 -17.569 -23.071  0.00  0.00    +0.130 C 
BRANCH  17  19
ATOM     18  O   UNL     1      34.567 -16.002 -20.486  0.00  0.00    -0.245 OA
ATOM     19  N   UNL     1      34.336 -16.237 -22.817  0.00  0.00    -0.201 N 
ATOM     20  N   UNL     1      33.733 -14.325 -21.893  0.00  0.00    -0.267 N 
ATOM     21  N   UNL     1      33.887 -15.429 -23.829  0.00  0.00    -0.152 NA
ATOM     22  C   UNL     1      34.250 -15.569 -21.585  0.00  0.00    +0.348 A 
ATOM     23  C   UNL     1      33.545 -14.326 -23.230  0.00  0.00    +0.144 A 
BRANCH  20  24
ATOM     24  C   UNL     1      33.458 -13.258 -20.947  0.00  0.00    +0.112 C 
ATOM     25  C   UNL     1      32.015 -13.302 -20.475  0.00  0.00    +0.027 C 
ENDBRANCH  20  24
BRANCH  23  26
ATOM     26  C   UNL     1      32.995 -13.137 -23.941  0.00  0.00    +0.066 C 
ATOM     27  C   UNL     1      32.735 -13.464 -25.398  0.00  0.00    +0.008 C 
ENDBRANCH  23  26
ENDBRANCH  17  19
ENDBRANCH  16  17
ENDBRANCH  15  16
ENDBRANCH   1  15
TORSDOF 7
ENDMDL
MODEL 9
REMARK VINA RESULT:     -10.5      2.921      5.150
REMARK  Name = 40589
REMARK  7 active torsions:
REMARK  status: ('A' for Active; 'I' for Inactive)
REMARK    1  A    between atoms: N_1  and  C_15
REMARK    2  A    between atoms: N_2  and  C_9
REMARK    3  A    between atoms: C_15  and  C_16
REMARK    4  A    between atoms: C_16  and  C_17
REMARK    5  A    between atoms: C_17  and  N_19
REMARK    6  A    between atoms: N_20  and  C_24
REMARK    7  A    between atoms: C_23  and  C_26
REMARK                            x       y       z     vdW  Elec       q    Type
REMARK                         _______ _______ _______ _____ _____    ______ ____
ROOT
ATOM      1  N   UNL     1      34.755 -20.722 -20.102  0.00  0.00    +0.389 N 
ATOM      2  N   UNL     1      33.219 -21.715 -17.907  0.00  0.00    -0.312 N 
ATOM      3  C   UNL     1      35.400 -21.012 -18.815  0.00  0.00    -0.055 C 
ATOM      4  C   UNL     1      33.386 -20.245 -19.877  0.00  0.00    -0.055 C 
ATOM      5  C   UNL     1      34.631 -22.089 -18.045  0.00  0.00    +0.068 C 
ATOM      6  C   UNL     1      32.549 -21.296 -19.143  0.00  0.00    +0.068 C 
ATOM      7  H   UNL     1      34.718 -21.581 -20.652  0.00  0.00    -0.080 HD
ENDROOT
BRANCH   2   9
ATOM      8 CL   UNL     1      28.610 -22.979 -16.002  0.00  0.00    -0.082 Cl
ATOM      9  C   UNL     1      32.476 -22.315 -16.884  0.00  0.00    +0.049 C 
ATOM     10  C   UNL     1      31.069 -22.350 -16.934  0.00  0.00    +0.026 C 
ATOM     11  C   UNL     1      33.115 -22.902 -15.773  0.00  0.00    +0.015 C 
ATOM     12  C   UNL     1      30.329 -22.950 -15.915  0.00  0.00    +0.059 C 
ATOM     13  C   UNL     1      32.374 -23.501 -14.754  0.00  0.00    +0.002 C 
ATOM     14  C   UNL     1      30.982 -23.525 -14.824  0.00  0.00    +0.011 C 
ENDBRANCH   2   9
BRANCH   1  15
ATOM     15  C   UNL     1      35.527 -19.733 -20.851  0.00  0.00    -0.075 C 
BRANCH  15  16
ATOM     16  C   UNL     1      34.669 -18.537 -21.274  0.00  0.00    +0.004 C 
BRANCH  16  17
ATOM     17  C   UNL     1      35.397 -17.515 -22.144  0.00  0.00    +0.130 C 
BRANCH  17  19
ATOM     18  O   UNL     1      34.183 -16.117 -24.546  0.00  0.00    -0.245 OA
ATOM     19  N   UNL     1      34.682 -16.274 -22.251  0.00  0.00    -0.201 N 
ATOM     20  N   UNL     1      33.563 -14.508 -22.961  0.00  0.00    -0.267 N 
ATOM     21  N   UNL     1      34.437 -15.489 -21.154  0.00  0.00    -0.152 NA
ATOM     22  C   UNL     1      34.143 -15.681 -23.404  0.00  0.00    +0.348 A 
ATOM     23  C   UNL     1      33.783 -14.470 -21.630  0.00  0.00    +0.144 A 
BRANCH  20  24
ATOM     24  C   UNL     1      32.867 -13.537 -23.785  0.00  0.00    +0.112 C 
ATOM     25  C   UNL     1      33.450 -12.146 -23.605  0.00  0.00    +0.027 C 
ENDBRANCH  20  24
BRANCH  23  26
ATOM     26  C   UNL     1      33.295 -13.338 -20.790  0.00  0.00    +0.066 C 
ATOM     27  C   UNL     1      31.930 -13.655 -20.214  0.00  0.00    +0.008 C 
ENDBRANCH  23  26
ENDBRANCH  17  19
ENDBRANCH  16  17
ENDBRANCH  15  16
ENDBRANCH   1  15
TORSDOF 7
ENDMDL
