MODEL 1
REMARK VINA RESULT:     -11.4      0.000      0.000
REMARK  Name = 16049839
REMARK  6 active torsions:
REMARK  status: ('A' for Active; 'I' for Inactive)
REMARK    1  A    between atoms: N_3  and  CA_17
REMARK    2  A    between atoms: C_7  and  C_12
REMARK    3  A    between atoms: C_11  and  C_15
REMARK    4  A    between atoms: CA_17  and  C_19
REMARK    5  A    between atoms: CA_17  and  C_26
REMARK    6  A    between atoms: C_26  and  O_27
REMARK                            x       y       z     vdW  Elec       q    Type
REMARK                         _______ _______ _______ _____ _____    ______ ____
ROOT
ATOM      1  S   UNL     1      35.994 -20.914 -18.095  0.00  0.00    -0.026 S 
ATOM      2  O   UNL     1      32.539 -22.443 -18.544  0.00  0.00    -0.209 OA
ATOM      3  N   UNL     1      36.421 -22.460 -15.987  0.00  0.00    -0.292 N 
ATOM      4  N   UNL     1      34.347 -22.658 -17.108  0.00  0.00    -0.310 NA
ATOM      5  C   UNL     1      35.529 -22.150 -16.936  0.00  0.00    +0.225 C 
ATOM      6  C   UNL     1      34.479 -21.090 -18.878  0.00  0.00    +0.131 C 
ATOM      7  C   UNL     1      34.067 -20.413 -19.950  0.00  0.00    +0.057 C 
ATOM      8  C   UNL     1      33.665 -22.123 -18.186  0.00  0.00    +0.213 C 
ATOM      9  H   UNL     1      37.279 -21.978 -15.968  0.00  0.00    +0.150 HD
ENDROOT
BRANCH   7  12
ATOM     10  O   UNL     1      34.249 -18.361 -21.231  0.00  0.00    -0.458 OA
ATOM     11  C   UNL     1      35.258 -17.625 -21.768  0.00  0.00    +0.123 C 
ATOM     12  C   UNL     1      34.838 -19.413 -20.630  0.00  0.00    +0.146 C 
ATOM     13  C   UNL     1      36.474 -18.210 -21.504  0.00  0.00    +0.036 C 
ATOM     14  C   UNL     1      36.195 -19.381 -20.759  0.00  0.00    +0.040 C 
BRANCH  11  15
ATOM     15  C   UNL     1      34.862 -16.407 -22.488  0.00  0.00    +0.065 C 
ATOM     16  C   UNL     1      34.228 -15.350 -21.573  0.00  0.00    +0.008 C 
ENDBRANCH  11  15
ENDBRANCH   7  12
BRANCH   3  17
ATOM     17  CA  UNL     1      36.169 -23.481 -14.978  0.00  0.00    +0.194 C 
BRANCH  17  19
ATOM     18  F   UNL     1      40.872 -26.187 -13.510  0.00  0.00    -0.204 F 
ATOM     19  C   UNL     1      37.417 -24.200 -14.588  0.00  0.00    +0.006 C 
ATOM     20  C   UNL     1      37.380 -25.165 -13.584  0.00  0.00    +0.000 C 
ATOM     21  C   UNL     1      38.620 -23.904 -15.229  0.00  0.00    +0.000 C 
ATOM     22  C   UNL     1      38.547 -25.837 -13.219  0.00  0.00    +0.029 C 
ATOM     23  C   UNL     1      39.788 -24.575 -14.864  0.00  0.00    +0.029 C 
ATOM     24  C   UNL     1      39.751 -25.542 -13.859  0.00  0.00    +0.140 C 
ENDBRANCH  17  19
BRANCH  17  26
ATOM     25  OXT UNL     1      36.061 -22.472 -12.785  0.00  0.00    -0.248 OA
ATOM     26  C   UNL     1      35.462 -22.862 -13.781  0.00  0.00    +0.336 C 
BRANCH  26  27
ATOM     27  O   UNL     1      34.110 -22.834 -13.873  0.00  0.00    -0.479 OA
ATOM     28  H   UNL     1      33.691 -22.211 -14.434  0.00  0.00    +0.295 HD
ENDBRANCH  26  27
ENDBRANCH  17  26
ENDBRANCH   3  17
TORSDOF 6
ENDMDL
MODEL 2
REMARK VINA RESULT:     -11.2      7.437     12.539
REMARK  Name = 16049839
REMARK  6 active torsions:
REMARK  status: ('A' for Active; 'I' for Inactive)
REMARK    1  A    between atoms: N_3  and  CA_17
REMARK    2  A    between atoms: C_7  and  C_12
REMARK    3  A    between atoms: C_11  and  C_15
REMARK    4  A    between atoms: CA_17  and  C_19
REMARK    5  A    between atoms: CA_17  and  C_26
REMARK    6  A    between atoms: C_26  and  O_27
REMARK                            x       y       z     vdW  Elec       q    Type
REMARK                         _______ _______ _______ _____ _____    ______ ____
ROOT
ATOM      1  S   UNL     1      33.933 -15.323 -21.670  0.00  0.00    -0.026 S 
ATOM      2  O   UNL     1      33.563 -15.904 -25.411  0.00  0.00    -0.209 OA
ATOM      3  N   UNL     1      32.812 -12.935 -21.914  0.00  0.00    -0.292 N 
ATOM      4  N   UNL     1      33.073 -14.246 -23.866  0.00  0.00    -0.310 NA
ATOM      5  C   UNL     1      33.190 -14.026 -22.592  0.00  0.00    +0.225 C 
ATOM      6  C   UNL     1      34.103 -16.238 -23.109  0.00  0.00    +0.131 C 
ATOM      7  C   UNL     1      34.637 -17.457 -23.204  0.00  0.00    +0.057 C 
ATOM      8  C   UNL     1      33.563 -15.477 -24.264  0.00  0.00    +0.213 C 
ATOM      9  H   UNL     1      32.978 -12.900 -20.944  0.00  0.00    +0.150 HD
ENDROOT
BRANCH   7  12
ATOM     10  O   UNL     1      34.418 -19.129 -21.460  0.00  0.00    -0.458 OA
ATOM     11  C   UNL     1      35.215 -19.639 -20.484  0.00  0.00    +0.123 C 
ATOM     12  C   UNL     1      35.163 -18.207 -22.101  0.00  0.00    +0.146 C 
ATOM     13  C   UNL     1      36.454 -19.042 -20.512  0.00  0.00    +0.036 C 
ATOM     14  C   UNL     1      36.416 -18.105 -21.572  0.00  0.00    +0.040 C 
BRANCH  11  15
ATOM     15  C   UNL     1      34.618 -20.679 -19.635  0.00  0.00    +0.065 C 
ATOM     16  C   UNL     1      33.083 -20.660 -19.655  0.00  0.00    +0.008 C 
ENDBRANCH  11  15
ENDBRANCH   7  12
BRANCH   3  17
ATOM     17  CA  UNL     1      32.165 -11.798 -22.555  0.00  0.00    +0.194 C 
BRANCH  17  19
ATOM     18  F   UNL     1      30.872  -7.756 -18.869  0.00  0.00    -0.204 F 
ATOM     19  C   UNL     1      31.822 -10.726 -21.577  0.00  0.00    +0.006 C 
ATOM     20  C   UNL     1      31.709 -11.029 -20.221  0.00  0.00    +0.000 C 
ATOM     21  C   UNL     1      31.613  -9.419 -22.019  0.00  0.00    +0.000 C 
ATOM     22  C   UNL     1      31.389 -10.026 -19.306  0.00  0.00    +0.029 C 
ATOM     23  C   UNL     1      31.292  -8.416 -21.105  0.00  0.00    +0.029 C 
ATOM     24  C   UNL     1      31.180  -8.720 -19.748  0.00  0.00    +0.140 C 
ENDBRANCH  17  19
BRANCH  17  26
ATOM     25  OXT UNL     1      33.973 -10.513 -23.515  0.00  0.00    -0.248 OA
ATOM     26  C   UNL     1      33.035 -11.283 -23.693  0.00  0.00    +0.336 C 
BRANCH  26  27
ATOM     27  O   UNL     1      32.653 -11.690 -24.928  0.00  0.00    -0.479 OA
ATOM     28  H   UNL     1      33.182 -11.485 -25.674  0.00  0.00    +0.295 HD
ENDBRANCH  26  27
ENDBRANCH  17  26
ENDBRANCH   3  17
TORSDOF 6
ENDMDL
MODEL 3
REMARK VINA RESULT:     -10.6      5.841      8.529
REMARK  Name = 16049839
REMARK  6 active torsions:
REMARK  status: ('A' for Active; 'I' for Inactive)
REMARK    1  A    between atoms: N_3  and  CA_17
REMARK    2  A    between atoms: C_7  and  C_12
REMARK    3  A    between atoms: C_11  and  C_15
REMARK    4  A    between atoms: CA_17  and  C_19
REMARK    5  A    between atoms: CA_17  and  C_26
REMARK    6  A    between atoms: C_26  and  O_27
REMARK                            x       y       z     vdW  Elec       q    Type
REMARK                         _______ _______ _______ _____ _____    ______ ____
ROOT
ATOM      1  S   UNL     1      33.774 -14.833 -21.382  0.00  0.00    -0.026 S 
ATOM      2  O   UNL     1      34.227 -15.754 -25.045  0.00  0.00    -0.209 OA
ATOM      3  N   UNL     1      34.998 -17.066 -20.653  0.00  0.00    -0.292 N 
ATOM      4  N   UNL     1      34.739 -16.644 -22.966  0.00  0.00    -0.310 NA
ATOM      5  C   UNL     1      34.595 -16.350 -21.710  0.00  0.00    +0.225 C 
ATOM      6  C   UNL     1      33.608 -14.567 -23.067  0.00  0.00    +0.131 C 
ATOM      7  C   UNL     1      33.028 -13.513 -23.642  0.00  0.00    +0.057 C 
ATOM      8  C   UNL     1      34.212 -15.695 -23.823  0.00  0.00    +0.213 C 
ATOM      9  H   UNL     1      34.805 -16.725 -19.749  0.00  0.00    +0.150 HD
ENDROOT
BRANCH   7  12
ATOM     10  O   UNL     1      32.569 -11.147 -23.365  0.00  0.00    -0.458 OA
ATOM     11  C   UNL     1      31.901 -10.375 -22.467  0.00  0.00    +0.123 C 
ATOM     12  C   UNL     1      32.441 -12.415 -22.929  0.00  0.00    +0.146 C 
ATOM     13  C   UNL     1      31.355 -11.155 -21.473  0.00  0.00    +0.036 C 
ATOM     14  C   UNL     1      31.711 -12.490 -21.780  0.00  0.00    +0.040 C 
BRANCH  11  15
ATOM     15  C   UNL     1      31.897  -8.929 -22.728  0.00  0.00    +0.065 C 
ATOM     16  C   UNL     1      31.452  -8.103 -21.513  0.00  0.00    +0.008 C 
ENDBRANCH  11  15
ENDBRANCH   7  12
BRANCH   3  17
ATOM     17  CA  UNL     1      35.708 -18.331 -20.786  0.00  0.00    +0.194 C 
BRANCH  17  19
ATOM     18  F   UNL     1      32.725 -22.646 -18.768  0.00  0.00    -0.204 F 
ATOM     19  C   UNL     1      34.916 -19.476 -20.251  0.00  0.00    +0.006 C 
ATOM     20  C   UNL     1      33.531 -19.499 -20.408  0.00  0.00    +0.000 C 
ATOM     21  C   UNL     1      35.562 -20.523 -19.593  0.00  0.00    +0.000 C 
ATOM     22  C   UNL     1      32.790 -20.570 -19.907  0.00  0.00    +0.029 C 
ATOM     23  C   UNL     1      34.822 -21.594 -19.092  0.00  0.00    +0.029 C 
ATOM     24  C   UNL     1      33.435 -21.617 -19.249  0.00  0.00    +0.140 C 
ENDBRANCH  17  19
BRANCH  17  26
ATOM     25  OXT UNL     1      35.414 -19.136 -23.046  0.00  0.00    -0.248 OA
ATOM     26  C   UNL     1      36.119 -18.542 -22.237  0.00  0.00    +0.336 C 
BRANCH  26  27
ATOM     27  O   UNL     1      37.354 -18.079 -22.550  0.00  0.00    -0.479 OA
ATOM     28  H   UNL     1      37.507 -17.679 -23.383  0.00  0.00    +0.295 HD
ENDBRANCH  26  27
ENDBRANCH  17  26
ENDBRANCH   3  17
TORSDOF 6
ENDMDL
MODEL 4
REMARK VINA RESULT:     -10.6      6.968     10.385
REMARK  Name = 16049839
REMARK  6 active torsions:
REMARK  status: ('A' for Active; 'I' for Inactive)
REMARK    1  A    between atoms: N_3  and  CA_17
REMARK    2  A    between atoms: C_7  and  C_12
REMARK    3  A    between atoms: C_11  and  C_15
REMARK    4  A    between atoms: CA_17  and  C_19
REMARK    5  A    between atoms: CA_17  and  C_26
REMARK    6  A    between atoms: C_26  and  O_27
REMARK                            x       y       z     vdW  Elec       q    Type
REMARK                         _______ _______ _______ _____ _____    ______ ____
ROOT
ATOM      1  S   UNL     1      32.996 -13.069 -21.615  0.00  0.00    -0.026 S 
ATOM      2  O   UNL     1      32.758 -12.448 -25.361  0.00  0.00    -0.209 OA
ATOM      3  N   UNL     1      34.160 -15.406 -22.060  0.00  0.00    -0.292 N 
ATOM      4  N   UNL     1      33.547 -14.095 -23.932  0.00  0.00    -0.310 NA
ATOM      5  C   UNL     1      33.638 -14.328 -22.658  0.00  0.00    +0.225 C 
ATOM      6  C   UNL     1      32.568 -12.152 -22.999  0.00  0.00    +0.131 C 
ATOM      7  C   UNL     1      31.977 -10.956 -22.995  0.00  0.00    +0.057 C 
ATOM      8  C   UNL     1      32.953 -12.883 -24.233  0.00  0.00    +0.213 C 
ATOM      9  H   UNL     1      34.148 -15.455 -21.077  0.00  0.00    +0.150 HD
ENDROOT
BRANCH   7  12
ATOM     10  O   UNL     1      31.922  -8.939 -21.650  0.00  0.00    -0.458 OA
ATOM     11  C   UNL     1      31.416  -8.579 -20.440  0.00  0.00    +0.123 C 
ATOM     12  C   UNL     1      31.599 -10.236 -21.814  0.00  0.00    +0.146 C 
ATOM     13  C   UNL     1      30.777  -9.644 -19.849  0.00  0.00    +0.036 C 
ATOM     14  C   UNL     1      30.900 -10.727 -20.751  0.00  0.00    +0.040 C 
BRANCH  11  15
ATOM     15  C   UNL     1      31.644  -7.186 -20.029  0.00  0.00    +0.065 C 
ATOM     16  C   UNL     1      32.643  -6.451 -20.933  0.00  0.00    +0.008 C 
ENDBRANCH  11  15
ENDBRANCH   7  12
BRANCH   3  17
ATOM     17  CA  UNL     1      34.745 -16.511 -22.808  0.00  0.00    +0.194 C 
BRANCH  17  19
ATOM     18  F   UNL     1      35.730 -20.977 -19.540  0.00  0.00    -0.204 F 
ATOM     19  C   UNL     1      35.005 -17.697 -21.941  0.00  0.00    +0.006 C 
ATOM     20  C   UNL     1      33.947 -18.505 -21.528  0.00  0.00    +0.000 C 
ATOM     21  C   UNL     1      36.309 -17.996 -21.543  0.00  0.00    +0.000 C 
ATOM     22  C   UNL     1      34.191 -19.613 -20.717  0.00  0.00    +0.029 C 
ATOM     23  C   UNL     1      36.553 -19.104 -20.732  0.00  0.00    +0.029 C 
ATOM     24  C   UNL     1      35.495 -19.913 -20.319  0.00  0.00    +0.140 C 
ENDBRANCH  17  19
BRANCH  17  26
ATOM     25  OXT UNL     1      32.893 -17.599 -23.917  0.00  0.00    -0.248 OA
ATOM     26  C   UNL     1      33.862 -16.852 -24.001  0.00  0.00    +0.336 C 
BRANCH  26  27
ATOM     27  O   UNL     1      34.268 -16.317 -25.178  0.00  0.00    -0.479 OA
ATOM     28  H   UNL     1      34.002 -15.450 -25.414  0.00  0.00    +0.295 HD
ENDBRANCH  26  27
ENDBRANCH  17  26
ENDBRANCH   3  17
TORSDOF 6
ENDMDL
MODEL 5
REMARK VINA RESULT:     -10.4      5.212      9.806
REMARK  Name = 16049839
REMARK  6 active torsions:
REMARK  status: ('A' for Active; 'I' for Inactive)
REMARK    1  A    between atoms: N_3  and  CA_17
REMARK    2  A    between atoms: C_7  and  C_12
REMARK    3  A    between atoms: C_11  and  C_15
REMARK    4  A    between atoms: CA_17  and  C_19
REMARK    5  A    between atoms: CA_17  and  C_26
REMARK    6  A    between atoms: C_26  and  O_27
REMARK                            x       y       z     vdW  Elec       q    Type
REMARK                         _______ _______ _______ _____ _____    ______ ____
ROOT
ATOM      1  S   UNL     1      32.785 -20.854 -19.178  0.00  0.00    -0.026 S 
ATOM      2  O   UNL     1      36.245 -21.867 -17.965  0.00  0.00    -0.209 OA
ATOM      3  N   UNL     1      33.868 -19.443 -21.141  0.00  0.00    -0.292 N 
ATOM      4  N   UNL     1      35.318 -20.585 -19.661  0.00  0.00    -0.310 NA
ATOM      5  C   UNL     1      34.147 -20.227 -20.091  0.00  0.00    +0.225 C 
ATOM      6  C   UNL     1      33.871 -21.665 -18.129  0.00  0.00    +0.131 C 
ATOM      7  C   UNL     1      33.535 -22.425 -17.086  0.00  0.00    +0.057 C 
ATOM      8  C   UNL     1      35.273 -21.405 -18.548  0.00  0.00    +0.213 C 
ATOM      9  H   UNL     1      32.926 -19.241 -21.343  0.00  0.00    +0.150 HD
ENDROOT
BRANCH   7  12
ATOM     10  O   UNL     1      31.911 -23.630 -15.746  0.00  0.00    -0.458 OA
ATOM     11  C   UNL     1      30.560 -23.612 -15.591  0.00  0.00    +0.123 C 
ATOM     12  C   UNL     1      32.188 -22.687 -16.668  0.00  0.00    +0.146 C 
ATOM     13  C   UNL     1      29.993 -22.664 -16.409  0.00  0.00    +0.036 C 
ATOM     14  C   UNL     1      31.062 -22.060 -17.113  0.00  0.00    +0.040 C 
BRANCH  11  15
ATOM     15  C   UNL     1      30.005 -24.569 -14.622  0.00  0.00    +0.065 C 
ATOM     16  C   UNL     1      30.665 -24.470 -13.239  0.00  0.00    +0.008 C 
ENDBRANCH  11  15
ENDBRANCH   7  12
BRANCH   3  17
ATOM     17  CA  UNL     1      34.904 -18.876 -21.994  0.00  0.00    +0.194 C 
BRANCH  17  19
ATOM     18  F   UNL     1      32.842 -15.033 -25.539  0.00  0.00    -0.204 F 
ATOM     19  C   UNL     1      34.357 -17.857 -22.935  0.00  0.00    +0.006 C 
ATOM     20  C   UNL     1      33.545 -18.253 -23.997  0.00  0.00    +0.000 C 
ATOM     21  C   UNL     1      34.658 -16.507 -22.752  0.00  0.00    +0.000 C 
ATOM     22  C   UNL     1      33.033 -17.299 -24.876  0.00  0.00    +0.029 C 
ATOM     23  C   UNL     1      34.147 -15.553 -23.632  0.00  0.00    +0.029 C 
ATOM     24  C   UNL     1      33.334 -15.949 -24.695  0.00  0.00    +0.140 C 
ENDBRANCH  17  19
BRANCH  17  26
ATOM     25  OXT UNL     1      35.845 -17.515 -20.231  0.00  0.00    -0.248 OA
ATOM     26  C   UNL     1      36.033 -18.322 -21.136  0.00  0.00    +0.336 C 
BRANCH  26  27
ATOM     27  O   UNL     1      37.273 -18.739 -21.491  0.00  0.00    -0.479 OA
ATOM     28  H   UNL     1      37.377 -19.358 -22.187  0.00  0.00    +0.295 HD
ENDBRANCH  26  27
ENDBRANCH  17  26
ENDBRANCH   3  17
TORSDOF 6
ENDMDL
MODEL 6
REMARK VINA RESULT:      -9.9      6.427      9.686
REMARK  Name = 16049839
REMARK  6 active torsions:
REMARK  status: ('A' for Active; 'I' for Inactive)
REMARK    1  A    between atoms: N_3  and  CA_17
REMARK    2  A    between atoms: C_7  and  C_12
REMARK    3  A    between atoms: C_11  and  C_15
REMARK    4  A    between atoms: CA_17  and  C_19
REMARK    5  A    between atoms: CA_17  and  C_26
REMARK    6  A    between atoms: C_26  and  O_27
REMARK                            x       y       z     vdW  Elec       q    Type
REMARK                         _______ _______ _______ _____ _____    ______ ____
ROOT
ATOM      1  S   UNL     1      33.384 -13.744 -22.391  0.00  0.00    -0.026 S 
ATOM      2  O   UNL     1      33.029 -13.956 -26.173  0.00  0.00    -0.209 OA
ATOM      3  N   UNL     1      34.308 -16.226 -22.324  0.00  0.00    -0.292 N 
ATOM      4  N   UNL     1      33.730 -15.312 -24.428  0.00  0.00    -0.310 NA
ATOM      5  C   UNL     1      33.859 -15.262 -23.137  0.00  0.00    +0.225 C 
ATOM      6  C   UNL     1      32.978 -13.122 -23.936  0.00  0.00    +0.131 C 
ATOM      7  C   UNL     1      32.501 -11.903 -24.189  0.00  0.00    +0.057 C 
ATOM      8  C   UNL     1      33.236 -14.145 -24.982  0.00  0.00    +0.213 C 
ATOM      9  H   UNL     1      34.337 -16.053 -21.355  0.00  0.00    +0.150 HD
ENDROOT
BRANCH   7  12
ATOM     10  O   UNL     1      31.478 -11.163 -22.118  0.00  0.00    -0.458 OA
ATOM     11  C   UNL     1      31.448 -10.012 -21.394  0.00  0.00    +0.123 C 
ATOM     12  C   UNL     1      32.246 -10.902 -23.193  0.00  0.00    +0.146 C 
ATOM     13  C   UNL     1      32.194  -9.035 -22.010  0.00  0.00    +0.036 C 
ATOM     14  C   UNL     1      32.715  -9.622 -23.189  0.00  0.00    +0.040 C 
BRANCH  11  15
ATOM     15  C   UNL     1      30.660 -10.045 -20.153  0.00  0.00    +0.065 C 
ATOM     16  C   UNL     1      31.412  -9.457 -18.951  0.00  0.00    +0.008 C 
ENDBRANCH  11  15
ENDBRANCH   7  12
BRANCH   3  17
ATOM     17  CA  UNL     1      34.753 -17.524 -22.816  0.00  0.00    +0.194 C 
BRANCH  17  19
ATOM     18  F   UNL     1      35.829 -21.109 -18.623  0.00  0.00    -0.204 F 
ATOM     19  C   UNL     1      35.039 -18.475 -21.703  0.00  0.00    +0.006 C 
ATOM     20  C   UNL     1      36.299 -18.493 -21.109  0.00  0.00    +0.000 C 
ATOM     21  C   UNL     1      34.044 -19.346 -21.259  0.00  0.00    +0.000 C 
ATOM     22  C   UNL     1      36.567 -19.383 -20.068  0.00  0.00    +0.029 C 
ATOM     23  C   UNL     1      34.311 -20.237 -20.218  0.00  0.00    +0.029 C 
ATOM     24  C   UNL     1      35.573 -20.255 -19.623  0.00  0.00    +0.140 C 
ENDBRANCH  17  19
BRANCH  17  26
ATOM     25  OXT UNL     1      32.689 -18.612 -23.447  0.00  0.00    -0.248 OA
ATOM     26  C   UNL     1      33.735 -18.079 -23.802  0.00  0.00    +0.336 C 
BRANCH  26  27
ATOM     27  O   UNL     1      34.103 -17.998 -25.104  0.00  0.00    -0.479 OA
ATOM     28  H   UNL     1      33.455 -18.046 -25.778  0.00  0.00    +0.295 HD
ENDBRANCH  26  27
ENDBRANCH  17  26
ENDBRANCH   3  17
TORSDOF 6
ENDMDL
MODEL 7
REMARK VINA RESULT:      -9.5      4.667      8.317
REMARK  Name = 16049839
REMARK  6 active torsions:
REMARK  status: ('A' for Active; 'I' for Inactive)
REMARK    1  A    between atoms: N_3  and  CA_17
REMARK    2  A    between atoms: C_7  and  C_12
REMARK    3  A    between atoms: C_11  and  C_15
REMARK    4  A    between atoms: CA_17  and  C_19
REMARK    5  A    between atoms: CA_17  and  C_26
REMARK    6  A    between atoms: C_26  and  O_27
REMARK                            x       y       z     vdW  Elec       q    Type
REMARK                         _______ _______ _______ _____ _____    ______ ____
ROOT
ATOM      1  S   UNL     1      32.141 -22.637 -16.985  0.00  0.00    -0.026 S 
ATOM      2  O   UNL     1      34.745 -23.396 -14.317  0.00  0.00    -0.209 OA
ATOM      3  N   UNL     1      34.034 -21.711 -18.591  0.00  0.00    -0.292 N 
ATOM      4  N   UNL     1      34.677 -22.512 -16.460  0.00  0.00    -0.310 NA
ATOM      5  C   UNL     1      33.806 -22.245 -17.384  0.00  0.00    +0.225 C 
ATOM      6  C   UNL     1      32.651 -23.207 -15.451  0.00  0.00    +0.131 C 
ATOM      7  C   UNL     1      31.864 -23.712 -14.500  0.00  0.00    +0.057 C 
ATOM      8  C   UNL     1      34.124 -23.063 -15.318  0.00  0.00    +0.213 C 
ATOM      9  H   UNL     1      33.269 -21.548 -19.188  0.00  0.00    +0.150 HD
ENDROOT
BRANCH   7  12
ATOM     10  O   UNL     1      29.656 -22.827 -14.975  0.00  0.00    -0.458 OA
ATOM     11  C   UNL     1      28.385 -23.310 -14.978  0.00  0.00    +0.123 C 
ATOM     12  C   UNL     1      30.441 -23.859 -14.611  0.00  0.00    +0.146 C 
ATOM     13  C   UNL     1      28.372 -24.638 -14.619  0.00  0.00    +0.036 C 
ATOM     14  C   UNL     1      29.721 -24.993 -14.379  0.00  0.00    +0.040 C 
BRANCH  11  15
ATOM     15  C   UNL     1      27.328 -22.358 -15.349  0.00  0.00    +0.065 C 
ATOM     16  C   UNL     1      27.106 -22.271 -16.866  0.00  0.00    +0.008 C 
ENDBRANCH  11  15
ENDBRANCH   7  12
BRANCH   3  17
ATOM     17  CA  UNL     1      35.370 -21.360 -19.053  0.00  0.00    +0.194 C 
BRANCH  17  19
ATOM     18  F   UNL     1      35.286 -17.007 -22.608  0.00  0.00    -0.204 F 
ATOM     19  C   UNL     1      35.349 -20.205 -19.997  0.00  0.00    +0.006 C 
ATOM     20  C   UNL     1      36.521 -19.498 -20.261  0.00  0.00    +0.000 C 
ATOM     21  C   UNL     1      34.154 -19.831 -20.614  0.00  0.00    +0.000 C 
ATOM     22  C   UNL     1      36.500 -18.418 -21.143  0.00  0.00    +0.029 C 
ATOM     23  C   UNL     1      34.133 -18.750 -21.496  0.00  0.00    +0.029 C 
ATOM     24  C   UNL     1      35.306 -18.044 -21.760  0.00  0.00    +0.140 C 
ENDBRANCH  17  19
BRANCH  17  26
ATOM     25  OXT UNL     1      36.460 -19.999 -17.380  0.00  0.00    -0.248 OA
ATOM     26  C   UNL     1      36.282 -21.114 -17.860  0.00  0.00    +0.336 C 
BRANCH  26  27
ATOM     27  O   UNL     1      36.934 -22.213 -17.408  0.00  0.00    -0.479 OA
ATOM     28  H   UNL     1      36.497 -23.042 -17.390  0.00  0.00    +0.295 HD
ENDBRANCH  26  27
ENDBRANCH  17  26
ENDBRANCH   3  17
TORSDOF 6
ENDMDL
MODEL 8
REMARK VINA RESULT:      -9.4     11.632     16.667
REMARK  Name = 16049839
REMARK  6 active torsions:
REMARK  status: ('A' for Active; 'I' for Inactive)
REMARK    1  A    between atoms: N_3  and  CA_17
REMARK    2  A    between atoms: C_7  and  C_12
REMARK    3  A    between atoms: C_11  and  C_15
REMARK    4  A    between atoms: CA_17  and  C_19
REMARK    5  A    between atoms: CA_17  and  C_26
REMARK    6  A    between atoms: C_26  and  O_27
REMARK                            x       y       z     vdW  Elec       q    Type
REMARK                         _______ _______ _______ _____ _____    ______ ____
ROOT
ATOM      1  S   UNL     1      33.000 -10.408 -23.073  0.00  0.00    -0.026 S 
ATOM      2  O   UNL     1      30.155 -10.140 -20.562  0.00  0.00    -0.209 OA
ATOM      3  N   UNL     1      32.782  -7.826 -23.620  0.00  0.00    -0.292 N 
ATOM      4  N   UNL     1      31.311  -8.750 -22.014  0.00  0.00    -0.310 NA
ATOM      5  C   UNL     1      32.279  -8.819 -22.876  0.00  0.00    +0.225 C 
ATOM      6  C   UNL     1      31.915 -11.036 -21.904  0.00  0.00    +0.131 C 
ATOM      7  C   UNL     1      31.859 -12.301 -21.486  0.00  0.00    +0.057 C 
ATOM      8  C   UNL     1      31.024  -9.958 -21.404  0.00  0.00    +0.213 C 
ATOM      9  H   UNL     1      33.512  -8.028 -24.248  0.00  0.00    +0.150 HD
ENDROOT
BRANCH   7  12
ATOM     10  O   UNL     1      32.628 -13.813 -23.221  0.00  0.00    -0.458 OA
ATOM     11  C   UNL     1      33.563 -14.794 -23.324  0.00  0.00    +0.123 C 
ATOM     12  C   UNL     1      32.710 -13.356 -21.957  0.00  0.00    +0.146 C 
ATOM     13  C   UNL     1      34.230 -14.952 -22.132  0.00  0.00    +0.036 C 
ATOM     14  C   UNL     1      33.668 -14.008 -21.239  0.00  0.00    +0.040 C 
BRANCH  11  15
ATOM     15  C   UNL     1      33.668 -15.457 -24.631  0.00  0.00    +0.065 C 
ATOM     16  C   UNL     1      33.674 -16.989 -24.526  0.00  0.00    +0.008 C 
ENDBRANCH  11  15
ENDBRANCH   7  12
BRANCH   3  17
ATOM     17  CA  UNL     1      32.290  -6.457 -23.537  0.00  0.00    +0.194 C 
BRANCH  17  19
ATOM     18  F   UNL     1      35.155  -2.979 -26.897  0.00  0.00    -0.204 F 
ATOM     19  C   UNL     1      33.051  -5.535 -24.429  0.00  0.00    +0.006 C 
ATOM     20  C   UNL     1      34.074  -6.030 -25.234  0.00  0.00    +0.000 C 
ATOM     21  C   UNL     1      32.737  -4.175 -24.456  0.00  0.00    +0.000 C 
ATOM     22  C   UNL     1      34.785  -5.168 -26.068  0.00  0.00    +0.029 C 
ATOM     23  C   UNL     1      33.449  -3.312 -25.289  0.00  0.00    +0.029 C 
ATOM     24  C   UNL     1      34.473  -3.808 -26.096  0.00  0.00    +0.140 C 
ENDBRANCH  17  19
BRANCH  17  26
ATOM     25  OXT UNL     1      30.321  -6.684 -24.921  0.00  0.00    -0.248 OA
ATOM     26  C   UNL     1      30.794  -6.428 -23.819  0.00  0.00    +0.336 C 
BRANCH  26  27
ATOM     27  O   UNL     1      30.027  -6.034 -22.773  0.00  0.00    -0.479 OA
ATOM     28  H   UNL     1      29.511  -6.662 -22.308  0.00  0.00    +0.295 HD
ENDBRANCH  26  27
ENDBRANCH  17  26
ENDBRANCH   3  17
TORSDOF 6
ENDMDL
MODEL 9
REMARK VINA RESULT:      -9.0     10.903     16.852
REMARK  Name = 16049839
REMARK  6 active torsions:
REMARK  status: ('A' for Active; 'I' for Inactive)
REMARK    1  A    between atoms: N_3  and  CA_17
REMARK    2  A    between atoms: C_7  and  C_12
REMARK    3  A    between atoms: C_11  and  C_15
REMARK    4  A    between atoms: CA_17  and  C_19
REMARK    5  A    between atoms: CA_17  and  C_26
REMARK    6  A    between atoms: C_26  and  O_27
REMARK                            x       y       z     vdW  Elec       q    Type
REMARK                         _______ _______ _______ _____ _____    ______ ____
ROOT
ATOM      1  S   UNL     1      32.794 -10.182 -23.217  0.00  0.00    -0.026 S 
ATOM      2  O   UNL     1      30.310 -10.036 -20.340  0.00  0.00    -0.209 OA
ATOM      3  N   UNL     1      32.573  -7.565 -23.562  0.00  0.00    -0.292 N 
ATOM      4  N   UNL     1      31.301  -8.571 -21.839  0.00  0.00    -0.310 NA
ATOM      5  C   UNL     1      32.146  -8.598 -22.824  0.00  0.00    +0.225 C 
ATOM      6  C   UNL     1      31.855 -10.870 -21.958  0.00  0.00    +0.131 C 
ATOM      7  C   UNL     1      31.822 -12.159 -21.620  0.00  0.00    +0.057 C 
ATOM      8  C   UNL     1      31.065  -9.812 -21.276  0.00  0.00    +0.213 C 
ATOM      9  H   UNL     1      33.209  -7.737 -24.293  0.00  0.00    +0.150 HD
ENDROOT
BRANCH   7  12
ATOM     10  O   UNL     1      33.261 -14.111 -21.556  0.00  0.00    -0.458 OA
ATOM     11  C   UNL     1      33.851 -14.925 -22.471  0.00  0.00    +0.123 C 
ATOM     12  C   UNL     1      32.577 -13.193 -22.266  0.00  0.00    +0.146 C 
ATOM     13  C   UNL     1      33.539 -14.522 -23.748  0.00  0.00    +0.036 C 
ATOM     14  C   UNL     1      32.705 -13.387 -23.610  0.00  0.00    +0.040 C 
BRANCH  11  15
ATOM     15  C   UNL     1      34.666 -16.024 -21.933  0.00  0.00    +0.065 C 
ATOM     16  C   UNL     1      34.673 -17.263 -22.838  0.00  0.00    +0.008 C 
ENDBRANCH  11  15
ENDBRANCH   7  12
BRANCH   3  17
ATOM     17  CA  UNL     1      32.131  -6.197 -23.326  0.00  0.00    +0.194 C 
BRANCH  17  19
ATOM     18  F   UNL     1      34.765  -2.530 -26.674  0.00  0.00    -0.204 F 
ATOM     19  C   UNL     1      32.829  -5.223 -24.214  0.00  0.00    +0.006 C 
ATOM     20  C   UNL     1      32.280  -3.961 -24.434  0.00  0.00    +0.000 C 
ATOM     21  C   UNL     1      34.032  -5.577 -24.826  0.00  0.00    +0.000 C 
ATOM     22  C   UNL     1      32.934  -3.051 -25.264  0.00  0.00    +0.029 C 
ATOM     23  C   UNL     1      34.686  -4.668 -25.657  0.00  0.00    +0.029 C 
ATOM     24  C   UNL     1      34.137  -3.404 -25.876  0.00  0.00    +0.140 C 
ENDBRANCH  17  19
BRANCH  17  26
ATOM     25  OXT UNL     1      30.021  -6.427 -24.482  0.00  0.00    -0.248 OA
ATOM     26  C   UNL     1      30.617  -6.114 -23.457  0.00  0.00    +0.336 C 
BRANCH  26  27
ATOM     27  O   UNL     1      29.981  -5.604 -22.374  0.00  0.00    -0.479 OA
ATOM     28  H   UNL     1      30.467  -5.138 -21.722  0.00  0.00    +0.295 HD
ENDBRANCH  26  27
ENDBRANCH  17  26
ENDBRANCH   3  17
TORSDOF 6
ENDMDL
