MODEL 1
REMARK VINA RESULT:     -12.2      0.000      0.000
REMARK  Name = 57855696
REMARK  10 active torsions:
REMARK  status: ('A' for Active; 'I' for Inactive)
REMARK    1  A    between atoms: C_3  and  C_6
REMARK    2  A    between atoms: C_4  and  C_20
REMARK    3  A    between atoms: C_7  and  O_12
REMARK    4  A    between atoms: C_9  and  O_16
REMARK    5  A    between atoms: O_12  and  C_13
REMARK    6  A    between atoms: O_16  and  C_19
REMARK    7  A    between atoms: C_20  and  N_22
REMARK    8  A    between atoms: C_23  and  C_25
REMARK    9  A    between atoms: C_26  and  O_31
REMARK   10  A    between atoms: O_31  and  C_32
REMARK                            x       y       z     vdW  Elec       q    Type
REMARK                         _______ _______ _______ _____ _____    ______ ____
ROOT
ATOM      1  O   UNL     1      35.720 -19.115 -20.268  0.00  0.00    -0.444 OA
ATOM      2  N   UNL     1      34.035 -19.418 -21.746  0.00  0.00    -0.371 NA
ATOM      3  C   UNL     1      34.533 -19.712 -20.566  0.00  0.00    +0.277 C 
ATOM      4  C   UNL     1      34.965 -18.557 -22.270  0.00  0.00    +0.154 C 
ATOM      5  C   UNL     1      35.989 -18.370 -21.375  0.00  0.00    +0.264 C 
ENDROOT
BRANCH   3   6
ATOM      6  C   UNL     1      34.004 -20.579 -19.542  0.00  0.00    +0.069 C 
ATOM      7  C   UNL     1      34.357 -22.084 -17.686  0.00  0.00    +0.172 C 
ATOM      8  C   UNL     1      34.870 -21.246 -18.676  0.00  0.00    +0.046 C 
ATOM      9  C   UNL     1      32.979 -22.254 -17.561  0.00  0.00    +0.178 C 
ATOM     10  C   UNL     1      32.625 -20.749 -19.418  0.00  0.00    +0.009 C 
ATOM     11  C   UNL     1      32.112 -21.587 -18.428  0.00  0.00    +0.040 C 
BRANCH   7  12
ATOM     12  O   UNL     1      35.213 -22.731 -16.846  0.00  0.00    -0.476 OA
BRANCH  12  13
ATOM     13  C   UNL     1      35.803 -21.960 -15.801  0.00  0.00    +0.166 C 
ATOM     14  C   UNL     1      35.339 -22.500 -14.457  0.00  0.00    +0.047 C 
ATOM     15  C   UNL     1      37.317 -22.004 -15.939  0.00  0.00    +0.047 C 
ENDBRANCH  12  13
ENDBRANCH   7  12
BRANCH   9  16
ATOM     16  O   UNL     1      32.466 -23.070 -16.598  0.00  0.00    -0.421 OA
BRANCH  16  19
ATOM     17  F   UNL     1      30.559 -23.919 -15.778  0.00  0.00    -0.155 F 
ATOM     18  F   UNL     1      31.312 -22.064 -14.929  0.00  0.00    -0.155 F 
ATOM     19  C   UNL     1      31.176 -22.751 -16.091  0.00  0.00    +0.509 C 
ENDBRANCH  16  19
ENDBRANCH   9  16
ENDBRANCH   3   6
BRANCH   4  20
ATOM     20  C   UNL     1      34.792 -17.974 -23.608  0.00  0.00    +0.149 C 
BRANCH  20  22
ATOM     21  O   UNL     1      32.780 -16.609 -25.135  0.00  0.00    -0.270 OA
ATOM     22  N   UNL     1      34.496 -16.555 -23.577  0.00  0.00    -0.295 N 
ATOM     23  C   UNL     1      33.502 -15.991 -24.355  0.00  0.00    +0.249 C 
ATOM     24  H   UNL     1      35.022 -15.973 -22.982  0.00  0.00    +0.150 HD
BRANCH  23  25
ATOM     25  C   UNL     1      33.341 -14.520 -24.229  0.00  0.00    +0.087 C 
ATOM     26  C   UNL     1      33.561 -13.877 -23.012  0.00  0.00    +0.143 C 
ATOM     27  C   UNL     1      32.966 -13.781 -25.352  0.00  0.00    +0.008 C 
ATOM     28  C   UNL     1      33.404 -12.494 -22.915  0.00  0.00    +0.037 C 
ATOM     29  C   UNL     1      32.809 -12.397 -25.255  0.00  0.00    +0.000 C 
ATOM     30  C   UNL     1      33.030 -11.755 -24.036  0.00  0.00    +0.003 C 
BRANCH  26  31
ATOM     31  O   UNL     1      33.927 -14.581 -21.905  0.00  0.00    -0.475 OA
BRANCH  31  32
ATOM     32  C   UNL     1      33.784 -13.929 -20.645  0.00  0.00    +0.206 C 
ATOM     33  C   UNL     1      32.324 -13.942 -20.246  0.00  0.00    +0.051 C 
ENDBRANCH  31  32
ENDBRANCH  26  31
ENDBRANCH  23  25
ENDBRANCH  20  22
ENDBRANCH   4  20
TORSDOF 10
ENDMDL
MODEL 2
REMARK VINA RESULT:     -12.0      3.823      9.844
REMARK  Name = 57855696
REMARK  10 active torsions:
REMARK  status: ('A' for Active; 'I' for Inactive)
REMARK    1  A    between atoms: C_3  and  C_6
REMARK    2  A    between atoms: C_4  and  C_20
REMARK    3  A    between atoms: C_7  and  O_12
REMARK    4  A    between atoms: C_9  and  O_16
REMARK    5  A    between atoms: O_12  and  C_13
REMARK    6  A    between atoms: O_16  and  C_19
REMARK    7  A    between atoms: C_20  and  N_22
REMARK    8  A    between atoms: C_23  and  C_25
REMARK    9  A    between atoms: C_26  and  O_31
REMARK   10  A    between atoms: O_31  and  C_32
REMARK                            x       y       z     vdW  Elec       q    Type
REMARK                         _______ _______ _______ _____ _____    ______ ____
ROOT
ATOM      1  O   UNL     1      36.145 -18.300 -20.393  0.00  0.00    -0.444 OA
ATOM      2  N   UNL     1      34.232 -19.327 -21.024  0.00  0.00    -0.371 NA
ATOM      3  C   UNL     1      34.963 -18.236 -21.065  0.00  0.00    +0.277 C 
ATOM      4  C   UNL     1      34.991 -20.181 -20.265  0.00  0.00    +0.154 C 
ATOM      5  C   UNL     1      36.154 -19.561 -19.880  0.00  0.00    +0.264 C 
ENDROOT
BRANCH   3   6
ATOM      6  C   UNL     1      34.692 -16.979 -21.719  0.00  0.00    +0.069 C 
ATOM      7  C   UNL     1      34.022 -14.661 -21.604  0.00  0.00    +0.172 C 
ATOM      8  C   UNL     1      34.284 -15.876 -20.970  0.00  0.00    +0.046 C 
ATOM      9  C   UNL     1      34.169 -14.550 -22.987  0.00  0.00    +0.178 C 
ATOM     10  C   UNL     1      34.839 -16.869 -23.102  0.00  0.00    +0.009 C 
ATOM     11  C   UNL     1      34.577 -15.654 -23.736  0.00  0.00    +0.040 C 
BRANCH   7  12
ATOM     12  O   UNL     1      33.624 -13.591 -20.862  0.00  0.00    -0.476 OA
BRANCH  12  13
ATOM     13  C   UNL     1      32.219 -13.404 -20.695  0.00  0.00    +0.166 C 
ATOM     14  C   UNL     1      31.752 -14.184 -19.476  0.00  0.00    +0.047 C 
ATOM     15  C   UNL     1      31.923 -11.918 -20.566  0.00  0.00    +0.047 C 
ENDBRANCH  12  13
ENDBRANCH   7  12
BRANCH   9  16
ATOM     16  O   UNL     1      33.916 -13.369 -23.617  0.00  0.00    -0.421 OA
BRANCH  16  19
ATOM     17  F   UNL     1      32.384 -11.932 -24.404  0.00  0.00    -0.155 F 
ATOM     18  F   UNL     1      32.851 -13.696 -25.589  0.00  0.00    -0.155 F 
ATOM     19  C   UNL     1      32.683 -13.254 -24.318  0.00  0.00    +0.509 C 
ENDBRANCH  16  19
ENDBRANCH   9  16
ENDBRANCH   3   6
BRANCH   4  20
ATOM     20  C   UNL     1      34.531 -21.545 -19.966  0.00  0.00    +0.149 C 
BRANCH  20  22
ATOM     21  O   UNL     1      33.181 -23.837 -18.887  0.00  0.00    -0.270 OA
ATOM     22  N   UNL     1      34.016 -21.691 -18.620  0.00  0.00    -0.295 N 
ATOM     23  C   UNL     1      33.378 -22.842 -18.194  0.00  0.00    +0.249 C 
ATOM     24  H   UNL     1      34.125 -20.946 -17.986  0.00  0.00    +0.150 HD
BRANCH  23  25
ATOM     25  C   UNL     1      32.884 -22.825 -16.793  0.00  0.00    +0.087 C 
ATOM     26  C   UNL     1      33.764 -22.972 -15.722  0.00  0.00    +0.143 C 
ATOM     27  C   UNL     1      31.519 -22.657 -16.559  0.00  0.00    +0.008 C 
ATOM     28  C   UNL     1      33.279 -22.953 -14.414  0.00  0.00    +0.037 C 
ATOM     29  C   UNL     1      31.034 -22.638 -15.250  0.00  0.00    +0.000 C 
ATOM     30  C   UNL     1      31.915 -22.785 -14.178  0.00  0.00    +0.003 C 
BRANCH  26  31
ATOM     31  O   UNL     1      35.100 -23.137 -15.931  0.00  0.00    -0.475 OA
BRANCH  31  32
ATOM     32  C   UNL     1      35.972 -22.176 -15.340  0.00  0.00    +0.206 C 
ATOM     33  C   UNL     1      36.795 -21.521 -16.429  0.00  0.00    +0.051 C 
ENDBRANCH  31  32
ENDBRANCH  26  31
ENDBRANCH  23  25
ENDBRANCH  20  22
ENDBRANCH   4  20
TORSDOF 10
ENDMDL
MODEL 3
REMARK VINA RESULT:     -11.7      2.006      3.231
REMARK  Name = 57855696
REMARK  10 active torsions:
REMARK  status: ('A' for Active; 'I' for Inactive)
REMARK    1  A    between atoms: C_3  and  C_6
REMARK    2  A    between atoms: C_4  and  C_20
REMARK    3  A    between atoms: C_7  and  O_12
REMARK    4  A    between atoms: C_9  and  O_16
REMARK    5  A    between atoms: O_12  and  C_13
REMARK    6  A    between atoms: O_16  and  C_19
REMARK    7  A    between atoms: C_20  and  N_22
REMARK    8  A    between atoms: C_23  and  C_25
REMARK    9  A    between atoms: C_26  and  O_31
REMARK   10  A    between atoms: O_31  and  C_32
REMARK                            x       y       z     vdW  Elec       q    Type
REMARK                         _______ _______ _______ _____ _____    ______ ____
ROOT
ATOM      1  O   UNL     1      31.961 -21.057 -19.122  0.00  0.00    -0.444 OA
ATOM      2  N   UNL     1      34.186 -21.243 -18.756  0.00  0.00    -0.371 NA
ATOM      3  C   UNL     1      32.972 -21.523 -18.337  0.00  0.00    +0.277 C 
ATOM      4  C   UNL     1      33.960 -20.536 -19.909  0.00  0.00    +0.154 C 
ATOM      5  C   UNL     1      32.611 -20.422 -20.136  0.00  0.00    +0.264 C 
ENDROOT
BRANCH   3   6
ATOM      6  C   UNL     1      32.556 -22.252 -17.164  0.00  0.00    +0.069 C 
ATOM      7  C   UNL     1      33.106 -23.531 -15.191  0.00  0.00    +0.172 C 
ATOM      8  C   UNL     1      33.510 -22.826 -16.324  0.00  0.00    +0.046 C 
ATOM      9  C   UNL     1      31.749 -23.663 -14.897  0.00  0.00    +0.178 C 
ATOM     10  C   UNL     1      31.198 -22.384 -16.872  0.00  0.00    +0.009 C 
ATOM     11  C   UNL     1      30.795 -23.089 -15.738  0.00  0.00    +0.040 C 
BRANCH   7  12
ATOM     12  O   UNL     1      34.047 -24.088 -14.378  0.00  0.00    -0.476 OA
BRANCH  12  13
ATOM     13  C   UNL     1      35.408 -23.972 -14.787  0.00  0.00    +0.166 C 
ATOM     14  C   UNL     1      36.135 -23.023 -13.847  0.00  0.00    +0.047 C 
ATOM     15  C   UNL     1      36.046 -25.353 -14.805  0.00  0.00    +0.047 C 
ENDBRANCH  12  13
ENDBRANCH   7  12
BRANCH   9  16
ATOM     16  O   UNL     1      31.343 -24.350 -13.793  0.00  0.00    -0.421 OA
BRANCH  16  19
ATOM     17  F   UNL     1      29.409 -25.475 -13.942  0.00  0.00    -0.155 F 
ATOM     18  F   UNL     1      29.803 -24.335 -12.132  0.00  0.00    -0.155 F 
ATOM     19  C   UNL     1      29.955 -24.322 -13.480  0.00  0.00    +0.509 C 
ENDBRANCH  16  19
ENDBRANCH   9  16
ENDBRANCH   3   6
BRANCH   4  20
ATOM     20  C   UNL     1      35.077 -20.020 -20.715  0.00  0.00    +0.149 C 
BRANCH  20  22
ATOM     21  O   UNL     1      35.430 -17.183 -20.452  0.00  0.00    -0.270 OA
ATOM     22  N   UNL     1      34.672 -19.006 -21.667  0.00  0.00    -0.295 N 
ATOM     23  C   UNL     1      34.889 -17.658 -21.447  0.00  0.00    +0.249 C 
ATOM     24  H   UNL     1      34.228 -19.287 -22.500  0.00  0.00    +0.150 HD
BRANCH  23  25
ATOM     25  C   UNL     1      34.391 -16.744 -22.507  0.00  0.00    +0.087 C 
ATOM     26  C   UNL     1      34.116 -15.406 -22.228  0.00  0.00    +0.143 C 
ATOM     27  C   UNL     1      34.200 -17.241 -23.796  0.00  0.00    +0.008 C 
ATOM     28  C   UNL     1      33.649 -14.564 -23.238  0.00  0.00    +0.037 C 
ATOM     29  C   UNL     1      33.733 -16.400 -24.807  0.00  0.00    +0.000 C 
ATOM     30  C   UNL     1      33.458 -15.060 -24.527  0.00  0.00    +0.003 C 
BRANCH  26  31
ATOM     31  O   UNL     1      34.295 -14.901 -20.975  0.00  0.00    -0.475 OA
BRANCH  31  32
ATOM     32  C   UNL     1      33.703 -13.634 -20.695  0.00  0.00    +0.206 C 
ATOM     33  C   UNL     1      32.311 -13.852 -20.140  0.00  0.00    +0.051 C 
ENDBRANCH  31  32
ENDBRANCH  26  31
ENDBRANCH  23  25
ENDBRANCH  20  22
ENDBRANCH   4  20
TORSDOF 10
ENDMDL
MODEL 4
REMARK VINA RESULT:     -11.7      2.005      3.678
REMARK  Name = 57855696
REMARK  10 active torsions:
REMARK  status: ('A' for Active; 'I' for Inactive)
REMARK    1  A    between atoms: C_3  and  C_6
REMARK    2  A    between atoms: C_4  and  C_20
REMARK    3  A    between atoms: C_7  and  O_12
REMARK    4  A    between atoms: C_9  and  O_16
REMARK    5  A    between atoms: O_12  and  C_13
REMARK    6  A    between atoms: O_16  and  C_19
REMARK    7  A    between atoms: C_20  and  N_22
REMARK    8  A    between atoms: C_23  and  C_25
REMARK    9  A    between atoms: C_26  and  O_31
REMARK   10  A    between atoms: O_31  and  C_32
REMARK                            x       y       z     vdW  Elec       q    Type
REMARK                         _______ _______ _______ _____ _____    ______ ____
ROOT
ATOM      1  O   UNL     1      33.968 -20.408 -20.124  0.00  0.00    -0.444 OA
ATOM      2  N   UNL     1      36.118 -19.728 -19.941  0.00  0.00    -0.371 NA
ATOM      3  C   UNL     1      35.137 -20.434 -19.426  0.00  0.00    +0.277 C 
ATOM      4  C   UNL     1      35.554 -19.192 -21.071  0.00  0.00    +0.154 C 
ATOM      5  C   UNL     1      34.249 -19.603 -21.186  0.00  0.00    +0.264 C 
ENDROOT
BRANCH   3   6
ATOM      6  C   UNL     1      35.120 -21.233 -18.225  0.00  0.00    +0.069 C 
ATOM      7  C   UNL     1      33.951 -22.701 -16.704  0.00  0.00    +0.172 C 
ATOM      8  C   UNL     1      33.966 -21.929 -17.865  0.00  0.00    +0.046 C 
ATOM      9  C   UNL     1      35.089 -22.777 -15.901  0.00  0.00    +0.178 C 
ATOM     10  C   UNL     1      36.259 -21.308 -17.422  0.00  0.00    +0.009 C 
ATOM     11  C   UNL     1      36.244 -22.080 -16.261  0.00  0.00    +0.040 C 
BRANCH   7  12
ATOM     12  O   UNL     1      32.818 -23.376 -16.363  0.00  0.00    -0.476 OA
BRANCH  12  13
ATOM     13  C   UNL     1      31.858 -22.675 -15.575  0.00  0.00    +0.166 C 
ATOM     14  C   UNL     1      30.585 -22.488 -16.386  0.00  0.00    +0.047 C 
ATOM     15  C   UNL     1      31.602 -23.449 -14.290  0.00  0.00    +0.047 C 
ENDBRANCH  12  13
ENDBRANCH   7  12
BRANCH   9  16
ATOM     16  O   UNL     1      35.086 -23.528 -14.764  0.00  0.00    -0.421 OA
BRANCH  16  19
ATOM     17  F   UNL     1      36.257 -24.904 -13.436  0.00  0.00    -0.155 F 
ATOM     18  F   UNL     1      35.238 -25.752 -15.160  0.00  0.00    -0.155 F 
ATOM     19  C   UNL     1      35.934 -24.669 -14.733  0.00  0.00    +0.509 C 
ENDBRANCH  16  19
ENDBRANCH   9  16
ENDBRANCH   3   6
BRANCH   4  20
ATOM     20  C   UNL     1      36.326 -18.316 -21.963  0.00  0.00    +0.149 C 
BRANCH  20  22
ATOM     21  O   UNL     1      34.821 -16.513 -20.312  0.00  0.00    -0.270 OA
ATOM     22  N   UNL     1      35.581 -17.155 -22.406  0.00  0.00    -0.295 N 
ATOM     23  C   UNL     1      34.885 -16.345 -21.528  0.00  0.00    +0.249 C 
ATOM     24  H   UNL     1      35.571 -16.934 -23.366  0.00  0.00    +0.150 HD
BRANCH  23  25
ATOM     25  C   UNL     1      34.150 -15.209 -22.142  0.00  0.00    +0.087 C 
ATOM     26  C   UNL     1      33.789 -15.234 -23.489  0.00  0.00    +0.143 C 
ATOM     27  C   UNL     1      33.822 -14.108 -21.351  0.00  0.00    +0.008 C 
ATOM     28  C   UNL     1      33.099 -14.157 -24.046  0.00  0.00    +0.037 C 
ATOM     29  C   UNL     1      33.132 -13.030 -21.909  0.00  0.00    +0.000 C 
ATOM     30  C   UNL     1      32.770 -13.056 -23.256  0.00  0.00    +0.003 C 
BRANCH  26  31
ATOM     31  O   UNL     1      34.101 -16.301 -24.277  0.00  0.00    -0.475 OA
BRANCH  31  32
ATOM     32  C   UNL     1      33.013 -17.035 -24.834  0.00  0.00    +0.206 C 
ATOM     33  C   UNL     1      33.212 -18.508 -24.543  0.00  0.00    +0.051 C 
ENDBRANCH  31  32
ENDBRANCH  26  31
ENDBRANCH  23  25
ENDBRANCH  20  22
ENDBRANCH   4  20
TORSDOF 10
ENDMDL
MODEL 5
REMARK VINA RESULT:     -11.7      2.685      4.395
REMARK  Name = 57855696
REMARK  10 active torsions:
REMARK  status: ('A' for Active; 'I' for Inactive)
REMARK    1  A    between atoms: C_3  and  C_6
REMARK    2  A    between atoms: C_4  and  C_20
REMARK    3  A    between atoms: C_7  and  O_12
REMARK    4  A    between atoms: C_9  and  O_16
REMARK    5  A    between atoms: O_12  and  C_13
REMARK    6  A    between atoms: O_16  and  C_19
REMARK    7  A    between atoms: C_20  and  N_22
REMARK    8  A    between atoms: C_23  and  C_25
REMARK    9  A    between atoms: C_26  and  O_31
REMARK   10  A    between atoms: O_31  and  C_32
REMARK                            x       y       z     vdW  Elec       q    Type
REMARK                         _______ _______ _______ _____ _____    ______ ____
ROOT
ATOM      1  O   UNL     1      33.451 -21.135 -18.574  0.00  0.00    -0.444 OA
ATOM      2  N   UNL     1      35.363 -20.629 -19.670  0.00  0.00    -0.371 NA
ATOM      3  C   UNL     1      34.812 -21.109 -18.578  0.00  0.00    +0.277 C 
ATOM      4  C   UNL     1      34.281 -20.312 -20.451  0.00  0.00    +0.154 C 
ATOM      5  C   UNL     1      33.118 -20.618 -19.789  0.00  0.00    +0.264 C 
ENDROOT
BRANCH   3   6
ATOM      6  C   UNL     1      35.442 -21.613 -17.383  0.00  0.00    +0.069 C 
ATOM      7  C   UNL     1      35.390 -23.031 -15.428  0.00  0.00    +0.172 C 
ATOM      8  C   UNL     1      34.780 -22.545 -16.584  0.00  0.00    +0.046 C 
ATOM      9  C   UNL     1      36.662 -22.585 -15.070  0.00  0.00    +0.178 C 
ATOM     10  C   UNL     1      36.714 -21.165 -17.025  0.00  0.00    +0.009 C 
ATOM     11  C   UNL     1      37.324 -21.651 -15.868  0.00  0.00    +0.040 C 
BRANCH   7  12
ATOM     12  O   UNL     1      34.734 -23.942 -14.656  0.00  0.00    -0.476 OA
BRANCH  12  13
ATOM     13  C   UNL     1      33.859 -23.430 -13.653  0.00  0.00    +0.166 C 
ATOM     14  C   UNL     1      32.452 -23.953 -13.902  0.00  0.00    +0.047 C 
ATOM     15  C   UNL     1      34.378 -23.832 -12.281  0.00  0.00    +0.047 C 
ENDBRANCH  12  13
ENDBRANCH   7  12
BRANCH   9  16
ATOM     16  O   UNL     1      37.268 -23.052 -13.943  0.00  0.00    -0.421 OA
BRANCH  16  19
ATOM     17  F   UNL     1      38.925 -24.080 -15.051  0.00  0.00    -0.155 F 
ATOM     18  F   UNL     1      38.729 -24.445 -12.916  0.00  0.00    -0.155 F 
ATOM     19  C   UNL     1      38.019 -24.255 -14.056  0.00  0.00    +0.509 C 
ENDBRANCH  16  19
ENDBRANCH   9  16
ENDBRANCH   3   6
BRANCH   4  20
ATOM     20  C   UNL     1      34.454 -19.733 -21.790  0.00  0.00    +0.149 C 
BRANCH  20  22
ATOM     21  O   UNL     1      35.965 -17.545 -20.706  0.00  0.00    -0.270 OA
ATOM     22  N   UNL     1      34.108 -18.327 -21.853  0.00  0.00    -0.295 N 
ATOM     23  C   UNL     1      34.906 -17.344 -21.297  0.00  0.00    +0.249 C 
ATOM     24  H   UNL     1      33.275 -18.063 -22.307  0.00  0.00    +0.150 HD
BRANCH  23  25
ATOM     25  C   UNL     1      34.399 -15.954 -21.422  0.00  0.00    +0.087 C 
ATOM     26  C   UNL     1      34.271 -15.348 -22.672  0.00  0.00    +0.143 C 
ATOM     27  C   UNL     1      34.047 -15.254 -20.268  0.00  0.00    +0.008 C 
ATOM     28  C   UNL     1      33.792 -14.041 -22.767  0.00  0.00    +0.037 C 
ATOM     29  C   UNL     1      33.568 -13.947 -20.362  0.00  0.00    +0.000 C 
ATOM     30  C   UNL     1      33.440 -13.341 -21.613  0.00  0.00    +0.003 C 
BRANCH  26  31
ATOM     31  O   UNL     1      34.609 -16.014 -23.810  0.00  0.00    -0.475 OA
BRANCH  31  32
ATOM     32  C   UNL     1      33.594 -16.162 -24.801  0.00  0.00    +0.206 C 
ATOM     33  C   UNL     1      33.108 -17.596 -24.800  0.00  0.00    +0.051 C 
ENDBRANCH  31  32
ENDBRANCH  26  31
ENDBRANCH  23  25
ENDBRANCH  20  22
ENDBRANCH   4  20
TORSDOF 10
ENDMDL
MODEL 6
REMARK VINA RESULT:     -11.5      1.915      3.540
REMARK  Name = 57855696
REMARK  10 active torsions:
REMARK  status: ('A' for Active; 'I' for Inactive)
REMARK    1  A    between atoms: C_3  and  C_6
REMARK    2  A    between atoms: C_4  and  C_20
REMARK    3  A    between atoms: C_7  and  O_12
REMARK    4  A    between atoms: C_9  and  O_16
REMARK    5  A    between atoms: O_12  and  C_13
REMARK    6  A    between atoms: O_16  and  C_19
REMARK    7  A    between atoms: C_20  and  N_22
REMARK    8  A    between atoms: C_23  and  C_25
REMARK    9  A    between atoms: C_26  and  O_31
REMARK   10  A    between atoms: O_31  and  C_32
REMARK                            x       y       z     vdW  Elec       q    Type
REMARK                         _______ _______ _______ _____ _____    ______ ____
ROOT
ATOM      1  O   UNL     1      31.654 -21.142 -19.203  0.00  0.00    -0.444 OA
ATOM      2  N   UNL     1      33.911 -21.053 -19.075  0.00  0.00    -0.371 NA
ATOM      3  C   UNL     1      32.789 -21.451 -18.518  0.00  0.00    +0.277 C 
ATOM      4  C   UNL     1      33.484 -20.430 -20.220  0.00  0.00    +0.154 C 
ATOM      5  C   UNL     1      32.115 -20.484 -20.302  0.00  0.00    +0.264 C 
ENDROOT
BRANCH   3   6
ATOM      6  C   UNL     1      32.588 -22.169 -17.283  0.00  0.00    +0.069 C 
ATOM      7  C   UNL     1      33.484 -23.399 -15.407  0.00  0.00    +0.172 C 
ATOM      8  C   UNL     1      33.680 -22.705 -16.601  0.00  0.00    +0.046 C 
ATOM      9  C   UNL     1      32.196 -23.557 -14.895  0.00  0.00    +0.178 C 
ATOM     10  C   UNL     1      31.299 -22.327 -16.771  0.00  0.00    +0.009 C 
ATOM     11  C   UNL     1      31.103 -23.021 -15.577  0.00  0.00    +0.040 C 
BRANCH   7  12
ATOM     12  O   UNL     1      34.558 -23.919 -14.750  0.00  0.00    -0.476 OA
BRANCH  12  13
ATOM     13  C   UNL     1      35.488 -22.992 -14.192  0.00  0.00    +0.166 C 
ATOM     14  C   UNL     1      35.519 -23.162 -12.681  0.00  0.00    +0.047 C 
ATOM     15  C   UNL     1      36.856 -23.217 -14.818  0.00  0.00    +0.047 C 
ENDBRANCH  12  13
ENDBRANCH   7  12
BRANCH   9  16
ATOM     16  O   UNL     1      31.992 -24.233 -13.730  0.00  0.00    -0.421 OA
BRANCH  16  19
ATOM     17  F   UNL     1      30.592 -25.322 -12.356  0.00  0.00    -0.155 F 
ATOM     18  F   UNL     1      30.414 -23.159 -12.510  0.00  0.00    -0.155 F 
ATOM     19  C   UNL     1      30.662 -24.283 -13.228  0.00  0.00    +0.509 C 
ENDBRANCH  16  19
ENDBRANCH   9  16
ENDBRANCH   3   6
BRANCH   4  20
ATOM     20  C   UNL     1      34.440 -19.827 -21.159  0.00  0.00    +0.149 C 
BRANCH  20  22
ATOM     21  O   UNL     1      35.943 -17.497 -20.415  0.00  0.00    -0.270 OA
ATOM     22  N   UNL     1      34.125 -18.452 -21.489  0.00  0.00    -0.295 N 
ATOM     23  C   UNL     1      34.917 -17.394 -21.082  0.00  0.00    +0.249 C 
ATOM     24  H   UNL     1      33.319 -18.265 -22.023  0.00  0.00    +0.150 HD
BRANCH  23  25
ATOM     25  C   UNL     1      34.442 -16.043 -21.479  0.00  0.00    +0.087 C 
ATOM     26  C   UNL     1      34.318 -15.695 -22.824  0.00  0.00    +0.143 C 
ATOM     27  C   UNL     1      34.119 -15.119 -20.486  0.00  0.00    +0.008 C 
ATOM     28  C   UNL     1      33.871 -14.421 -23.176  0.00  0.00    +0.037 C 
ATOM     29  C   UNL     1      33.671 -13.845 -20.837  0.00  0.00    +0.000 C 
ATOM     30  C   UNL     1      33.547 -13.497 -22.183  0.00  0.00    +0.003 C 
BRANCH  26  31
ATOM     31  O   UNL     1      34.629 -16.583 -23.808  0.00  0.00    -0.475 OA
BRANCH  31  32
ATOM     32  C   UNL     1      33.604 -16.890 -24.752  0.00  0.00    +0.206 C 
ATOM     33  C   UNL     1      33.186 -18.334 -24.574  0.00  0.00    +0.051 C 
ENDBRANCH  31  32
ENDBRANCH  26  31
ENDBRANCH  23  25
ENDBRANCH  20  22
ENDBRANCH   4  20
TORSDOF 10
ENDMDL
MODEL 7
REMARK VINA RESULT:     -11.3      4.233     10.298
REMARK  Name = 57855696
REMARK  10 active torsions:
REMARK  status: ('A' for Active; 'I' for Inactive)
REMARK    1  A    between atoms: C_3  and  C_6
REMARK    2  A    between atoms: C_4  and  C_20
REMARK    3  A    between atoms: C_7  and  O_12
REMARK    4  A    between atoms: C_9  and  O_16
REMARK    5  A    between atoms: O_12  and  C_13
REMARK    6  A    between atoms: O_16  and  C_19
REMARK    7  A    between atoms: C_20  and  N_22
REMARK    8  A    between atoms: C_23  and  C_25
REMARK    9  A    between atoms: C_26  and  O_31
REMARK   10  A    between atoms: O_31  and  C_32
REMARK                            x       y       z     vdW  Elec       q    Type
REMARK                         _______ _______ _______ _____ _____    ______ ____
ROOT
ATOM      1  O   UNL     1      33.549 -14.661 -23.949  0.00  0.00    -0.444 OA
ATOM      2  N   UNL     1      34.232 -15.351 -21.905  0.00  0.00    -0.371 NA
ATOM      3  C   UNL     1      33.582 -14.447 -22.604  0.00  0.00    +0.277 C 
ATOM      4  C   UNL     1      34.662 -16.233 -22.864  0.00  0.00    +0.154 C 
ATOM      5  C   UNL     1      34.249 -15.818 -24.105  0.00  0.00    +0.264 C 
ENDROOT
BRANCH   3   6
ATOM      6  C   UNL     1      32.899 -13.260 -22.152  0.00  0.00    +0.069 C 
ATOM      7  C   UNL     1      32.141 -11.001 -22.550  0.00  0.00    +0.172 C 
ATOM      8  C   UNL     1      32.801 -12.149 -22.989  0.00  0.00    +0.046 C 
ATOM      9  C   UNL     1      31.578 -10.965 -21.274  0.00  0.00    +0.178 C 
ATOM     10  C   UNL     1      32.337 -13.224 -20.875  0.00  0.00    +0.009 C 
ATOM     11  C   UNL     1      31.677 -12.076 -20.436  0.00  0.00    +0.040 C 
BRANCH   7  12
ATOM     12  O   UNL     1      32.052  -9.922 -23.376  0.00  0.00    -0.476 OA
BRANCH  12  13
ATOM     13  C   UNL     1      32.710  -8.728 -22.957  0.00  0.00    +0.166 C 
ATOM     14  C   UNL     1      34.073  -8.647 -23.626  0.00  0.00    +0.047 C 
ATOM     15  C   UNL     1      31.838  -7.529 -23.298  0.00  0.00    +0.047 C 
ENDBRANCH  12  13
ENDBRANCH   7  12
BRANCH   9  16
ATOM     16  O   UNL     1      30.931  -9.850 -20.834  0.00  0.00    -0.421 OA
BRANCH  16  19
ATOM     17  F   UNL     1      31.782  -8.142 -19.655  0.00  0.00    -0.155 F 
ATOM     18  F   UNL     1      30.101  -9.240 -18.817  0.00  0.00    -0.155 F 
ATOM     19  C   UNL     1      31.248  -9.384 -19.528  0.00  0.00    +0.509 C 
ENDBRANCH  16  19
ENDBRANCH   9  16
ENDBRANCH   3   6
BRANCH   4  20
ATOM     20  C   UNL     1      35.447 -17.422 -22.503  0.00  0.00    +0.149 C 
BRANCH  20  22
ATOM     21  O   UNL     1      36.383 -18.909 -20.232  0.00  0.00    -0.270 OA
ATOM     22  N   UNL     1      34.693 -18.391 -21.733  0.00  0.00    -0.295 N 
ATOM     23  C   UNL     1      35.237 -19.057 -20.650  0.00  0.00    +0.249 C 
ATOM     24  H   UNL     1      33.761 -18.580 -21.989  0.00  0.00    +0.150 HD
BRANCH  23  25
ATOM     25  C   UNL     1      34.344 -20.038 -19.981  0.00  0.00    +0.087 C 
ATOM     26  C   UNL     1      34.853 -20.972 -19.079  0.00  0.00    +0.143 C 
ATOM     27  C   UNL     1      32.979 -20.016 -20.268  0.00  0.00    +0.008 C 
ATOM     28  C   UNL     1      33.996 -21.885 -18.463  0.00  0.00    +0.037 C 
ATOM     29  C   UNL     1      32.121 -20.929 -19.651  0.00  0.00    +0.000 C 
ATOM     30  C   UNL     1      32.631 -21.862 -18.748  0.00  0.00    +0.003 C 
BRANCH  26  31
ATOM     31  O   UNL     1      36.183 -21.009 -18.787  0.00  0.00    -0.475 OA
BRANCH  31  32
ATOM     32  C   UNL     1      36.555 -21.578 -17.533  0.00  0.00    +0.206 C 
ATOM     33  C   UNL     1      37.019 -20.472 -16.609  0.00  0.00    +0.051 C 
ENDBRANCH  31  32
ENDBRANCH  26  31
ENDBRANCH  23  25
ENDBRANCH  20  22
ENDBRANCH   4  20
TORSDOF 10
ENDMDL
MODEL 8
REMARK VINA RESULT:     -11.3      3.547      9.777
REMARK  Name = 57855696
REMARK  10 active torsions:
REMARK  status: ('A' for Active; 'I' for Inactive)
REMARK    1  A    between atoms: C_3  and  C_6
REMARK    2  A    between atoms: C_4  and  C_20
REMARK    3  A    between atoms: C_7  and  O_12
REMARK    4  A    between atoms: C_9  and  O_16
REMARK    5  A    between atoms: O_12  and  C_13
REMARK    6  A    between atoms: O_16  and  C_19
REMARK    7  A    between atoms: C_20  and  N_22
REMARK    8  A    between atoms: C_23  and  C_25
REMARK    9  A    between atoms: C_26  and  O_31
REMARK   10  A    between atoms: O_31  and  C_32
REMARK                            x       y       z     vdW  Elec       q    Type
REMARK                         _______ _______ _______ _____ _____    ______ ____
ROOT
ATOM      1  O   UNL     1      36.250 -17.676 -20.899  0.00  0.00    -0.444 OA
ATOM      2  N   UNL     1      34.231 -18.674 -20.690  0.00  0.00    -0.371 NA
ATOM      3  C   UNL     1      34.894 -17.557 -20.890  0.00  0.00    +0.277 C 
ATOM      4  C   UNL     1      35.228 -19.606 -20.555  0.00  0.00    +0.154 C 
ATOM      5  C   UNL     1      36.455 -19.005 -20.683  0.00  0.00    +0.264 C 
ENDROOT
BRANCH   3   6
ATOM      6  C   UNL     1      34.391 -16.222 -21.101  0.00  0.00    +0.069 C 
ATOM      7  C   UNL     1      33.937 -14.365 -22.578  0.00  0.00    +0.172 C 
ATOM      8  C   UNL     1      34.424 -15.657 -22.376  0.00  0.00    +0.046 C 
ATOM      9  C   UNL     1      33.417 -13.639 -21.507  0.00  0.00    +0.178 C 
ATOM     10  C   UNL     1      33.872 -15.495 -20.028  0.00  0.00    +0.009 C 
ATOM     11  C   UNL     1      33.385 -14.204 -20.231  0.00  0.00    +0.040 C 
BRANCH   7  12
ATOM     12  O   UNL     1      33.974 -13.824 -23.828  0.00  0.00    -0.476 OA
BRANCH  12  13
ATOM     13  C   UNL     1      32.918 -14.176 -24.719  0.00  0.00    +0.166 C 
ATOM     14  C   UNL     1      32.861 -13.163 -25.853  0.00  0.00    +0.047 C 
ATOM     15  C   UNL     1      33.145 -15.590 -25.232  0.00  0.00    +0.047 C 
ENDBRANCH  12  13
ENDBRANCH   7  12
BRANCH   9  16
ATOM     16  O   UNL     1      32.939 -12.377 -21.693  0.00  0.00    -0.421 OA
BRANCH  16  19
ATOM     17  F   UNL     1      31.891 -11.350 -19.997  0.00  0.00    -0.155 F 
ATOM     18  F   UNL     1      30.991 -11.258 -21.975  0.00  0.00    -0.155 F 
ATOM     19  C   UNL     1      31.671 -12.069 -21.127  0.00  0.00    +0.509 C 
ENDBRANCH  16  19
ENDBRANCH   9  16
ENDBRANCH   3   6
BRANCH   4  20
ATOM     20  C   UNL     1      34.917 -21.022 -20.314  0.00  0.00    +0.149 C 
BRANCH  20  22
ATOM     21  O   UNL     1      33.505 -23.370 -19.456  0.00  0.00    -0.270 OA
ATOM     22  N   UNL     1      34.368 -21.268 -18.996  0.00  0.00    -0.295 N 
ATOM     23  C   UNL     1      33.701 -22.438 -18.680  0.00  0.00    +0.249 C 
ATOM     24  H   UNL     1      34.474 -20.579 -18.300  0.00  0.00    +0.150 HD
BRANCH  23  25
ATOM     25  C   UNL     1      33.175 -22.526 -17.293  0.00  0.00    +0.087 C 
ATOM     26  C   UNL     1      34.038 -22.663 -16.207  0.00  0.00    +0.143 C 
ATOM     27  C   UNL     1      31.796 -22.468 -17.087  0.00  0.00    +0.008 C 
ATOM     28  C   UNL     1      33.523 -22.744 -14.913  0.00  0.00    +0.037 C 
ATOM     29  C   UNL     1      31.280 -22.549 -15.793  0.00  0.00    +0.000 C 
ATOM     30  C   UNL     1      32.145 -22.686 -14.706  0.00  0.00    +0.003 C 
BRANCH  26  31
ATOM     31  O   UNL     1      35.387 -22.722 -16.388  0.00  0.00    -0.475 OA
BRANCH  31  32
ATOM     32  C   UNL     1      36.187 -21.865 -15.576  0.00  0.00    +0.206 C 
ATOM     33  C   UNL     1      36.892 -20.862 -16.465  0.00  0.00    +0.051 C 
ENDBRANCH  31  32
ENDBRANCH  26  31
ENDBRANCH  23  25
ENDBRANCH  20  22
ENDBRANCH   4  20
TORSDOF 10
ENDMDL
MODEL 9
REMARK VINA RESULT:     -11.2      1.191      2.356
REMARK  Name = 57855696
REMARK  10 active torsions:
REMARK  status: ('A' for Active; 'I' for Inactive)
REMARK    1  A    between atoms: C_3  and  C_6
REMARK    2  A    between atoms: C_4  and  C_20
REMARK    3  A    between atoms: C_7  and  O_12
REMARK    4  A    between atoms: C_9  and  O_16
REMARK    5  A    between atoms: O_12  and  C_13
REMARK    6  A    between atoms: O_16  and  C_19
REMARK    7  A    between atoms: C_20  and  N_22
REMARK    8  A    between atoms: C_23  and  C_25
REMARK    9  A    between atoms: C_26  and  O_31
REMARK   10  A    between atoms: O_31  and  C_32
REMARK                            x       y       z     vdW  Elec       q    Type
REMARK                         _______ _______ _______ _____ _____    ______ ____
ROOT
ATOM      1  O   UNL     1      35.875 -18.771 -20.753  0.00  0.00    -0.444 OA
ATOM      2  N   UNL     1      33.923 -18.480 -21.857  0.00  0.00    -0.371 NA
ATOM      3  C   UNL     1      34.565 -19.109 -20.898  0.00  0.00    +0.277 C 
ATOM      4  C   UNL     1      34.886 -17.661 -22.388  0.00  0.00    +0.154 C 
ATOM      5  C   UNL     1      36.072 -17.833 -21.720  0.00  0.00    +0.264 C 
ENDROOT
BRANCH   3   6
ATOM      6  C   UNL     1      34.080 -20.107 -19.976  0.00  0.00    +0.069 C 
ATOM      7  C   UNL     1      34.503 -21.750 -18.257  0.00  0.00    +0.172 C 
ATOM      8  C   UNL     1      34.973 -20.785 -19.147  0.00  0.00    +0.046 C 
ATOM      9  C   UNL     1      33.139 -22.038 -18.195  0.00  0.00    +0.178 C 
ATOM     10  C   UNL     1      32.716 -20.395 -19.916  0.00  0.00    +0.009 C 
ATOM     11  C   UNL     1      32.246 -21.360 -19.025  0.00  0.00    +0.040 C 
BRANCH   7  12
ATOM     12  O   UNL     1      35.385 -22.406 -17.452  0.00  0.00    -0.476 OA
BRANCH  12  13
ATOM     13  C   UNL     1      35.701 -21.795 -16.203  0.00  0.00    +0.166 C 
ATOM     14  C   UNL     1      35.727 -22.860 -15.117  0.00  0.00    +0.047 C 
ATOM     15  C   UNL     1      37.034 -21.072 -16.320  0.00  0.00    +0.047 C 
ENDBRANCH  12  13
ENDBRANCH   7  12
BRANCH   9  16
ATOM     16  O   UNL     1      32.669 -22.979 -17.330  0.00  0.00    -0.421 OA
BRANCH  16  19
ATOM     17  F   UNL     1      30.878 -23.528 -16.097  0.00  0.00    -0.155 F 
ATOM     18  F   UNL     1      32.478 -22.401 -15.149  0.00  0.00    -0.155 F 
ATOM     19  C   UNL     1      31.784 -22.539 -16.306  0.00  0.00    +0.509 C 
ENDBRANCH  16  19
ENDBRANCH   9  16
ENDBRANCH   3   6
BRANCH   4  20
ATOM     20  C   UNL     1      34.583 -16.763 -23.512  0.00  0.00    +0.149 C 
BRANCH  20  22
ATOM     21  O   UNL     1      34.655 -15.464 -20.952  0.00  0.00    -0.270 OA
ATOM     22  N   UNL     1      33.833 -15.588 -23.117  0.00  0.00    -0.295 N 
ATOM     23  C   UNL     1      33.938 -15.035 -21.853  0.00  0.00    +0.249 C 
ATOM     24  H   UNL     1      33.227 -15.168 -23.770  0.00  0.00    +0.150 HD
BRANCH  23  25
ATOM     25  C   UNL     1      33.082 -13.848 -21.595  0.00  0.00    +0.087 C 
ATOM     26  C   UNL     1      32.999 -12.810 -22.523  0.00  0.00    +0.143 C 
ATOM     27  C   UNL     1      32.357 -13.781 -20.406  0.00  0.00    +0.008 C 
ATOM     28  C   UNL     1      32.190 -11.704 -22.262  0.00  0.00    +0.037 C 
ATOM     29  C   UNL     1      31.547 -12.675 -20.144  0.00  0.00    +0.000 C 
ATOM     30  C   UNL     1      31.464 -11.637 -21.073  0.00  0.00    +0.003 C 
BRANCH  26  31
ATOM     31  O   UNL     1      33.701 -12.857 -23.690  0.00  0.00    -0.475 OA
BRANCH  31  32
ATOM     32  C   UNL     1      33.102 -12.246 -24.831  0.00  0.00    +0.206 C 
ATOM     33  C   UNL     1      32.639 -13.328 -25.784  0.00  0.00    +0.051 C 
ENDBRANCH  31  32
ENDBRANCH  26  31
ENDBRANCH  23  25
ENDBRANCH  20  22
ENDBRANCH   4  20
TORSDOF 10
ENDMDL
