MODEL 1
REMARK VINA RESULT:     -11.9      0.000      0.000
REMARK  Name = 10453870
REMARK  8 active torsions:
REMARK  status: ('A' for Active; 'I' for Inactive)
REMARK    1  A    between atoms: C_2  and  C_12
REMARK    2  A    between atoms: C_5  and  C_23
REMARK    3  A    between atoms: C_9  and  O_14
REMARK    4  A    between atoms: C_10  and  O_16
REMARK    5  A    between atoms: C_11  and  O_18
REMARK    6  A    between atoms: C_13  and  C_20
REMARK    7  A    between atoms: C_20  and  O_21
REMARK    8  A    between atoms: C_23  and  C_25
REMARK                            x       y       z     vdW  Elec       q    Type
REMARK                         _______ _______ _______ _____ _____    ______ ____
ROOT
ATOM      1  F   UNL     1      30.661 -22.246 -17.176  0.00  0.00    -0.204 F 
ATOM      2  C   UNL     1      33.845 -23.031 -14.668  0.00  0.00    +0.007 C 
ATOM      3  C   UNL     1      33.992 -23.191 -16.045  0.00  0.00    -0.004 C 
ATOM      4  C   UNL     1      32.627 -22.606 -14.139  0.00  0.00    +0.000 C 
ATOM      5  C   UNL     1      32.918 -22.926 -16.895  0.00  0.00    +0.010 C 
ATOM      6  C   UNL     1      31.553 -22.341 -14.989  0.00  0.00    +0.029 C 
ATOM      7  C   UNL     1      31.699 -22.502 -16.368  0.00  0.00    +0.136 C 
ENDROOT
BRANCH   2  12
ATOM      8  O   UNL     1      35.868 -24.256 -14.404  0.00  0.00    -0.347 OA
ATOM      9  C   UNL     1      34.547 -23.864 -12.386  0.00  0.00    +0.171 C 
ATOM     10  C   UNL     1      35.742 -24.297 -11.532  0.00  0.00    +0.169 C 
ATOM     11  C   UNL     1      36.701 -25.184 -12.325  0.00  0.00    +0.169 C 
ATOM     12  C   UNL     1      35.011 -23.318 -13.744  0.00  0.00    +0.167 C 
ATOM     13  C   UNL     1      37.057 -24.535 -13.665  0.00  0.00    +0.174 C 
BRANCH   9  14
ATOM     14  O   UNL     1      33.835 -22.835 -11.699  0.00  0.00    -0.379 OA
ATOM     15  H   UNL     1      33.373 -23.216 -10.935  0.00  0.00    +0.211 HD
ENDBRANCH   9  14
BRANCH  10  16
ATOM     16  O   UNL     1      35.277 -25.046 -10.408  0.00  0.00    -0.379 OA
ATOM     17  H   UNL     1      34.325 -25.208 -10.499  0.00  0.00    +0.211 HD
ENDBRANCH  10  16
BRANCH  11  18
ATOM     18  O   UNL     1      37.892 -25.385 -11.569  0.00  0.00    -0.379 OA
ATOM     19  H   UNL     1      38.545 -24.708 -11.807  0.00  0.00    +0.211 HD
ENDBRANCH  11  18
BRANCH  13  20
ATOM     20  C   UNL     1      37.925 -25.450 -14.522  0.00  0.00    +0.169 C 
BRANCH  20  21
ATOM     21  O   UNL     1      37.661 -26.794 -14.159  0.00  0.00    -0.379 OA
ATOM     22  H   UNL     1      37.991 -27.386 -14.852  0.00  0.00    +0.211 HD
ENDBRANCH  20  21
ENDBRANCH  13  20
ENDBRANCH   2  12
BRANCH   5  23
ATOM     23  C   UNL     1      33.077 -23.099 -18.368  0.00  0.00    +0.061 C 
BRANCH  23  25
ATOM     24  S   UNL     1      32.629 -20.797 -19.811  0.00  0.00    -0.091 S 
ATOM     25  C   UNL     1      33.673 -21.888 -19.058  0.00  0.00    +0.012 C 
ATOM     26  C   UNL     1      34.982 -21.561 -19.150  0.00  0.00    +0.003 C 
ATOM     27  C   UNL     1      35.173 -20.340 -19.878  0.00  0.00    +0.006 C 
ATOM     28  C   UNL     1      33.952 -19.807 -20.304  0.00  0.00    +0.029 C 
ATOM     29  C   UNL     1      36.360 -19.640 -20.207  0.00  0.00    +0.001 C 
ATOM     30  C   UNL     1      33.889 -18.609 -21.041  0.00  0.00    +0.006 C 
ATOM     31  C   UNL     1      36.299 -18.451 -20.938  0.00  0.00    +0.000 C 
ATOM     32  C   UNL     1      35.076 -17.942 -21.350  0.00  0.00    +0.001 C 
ENDBRANCH  23  25
ENDBRANCH   5  23
TORSDOF 8
ENDMDL
MODEL 2
REMARK VINA RESULT:     -11.9      2.425      4.406
REMARK  Name = 10453870
REMARK  8 active torsions:
REMARK  status: ('A' for Active; 'I' for Inactive)
REMARK    1  A    between atoms: C_2  and  C_12
REMARK    2  A    between atoms: C_5  and  C_23
REMARK    3  A    between atoms: C_9  and  O_14
REMARK    4  A    between atoms: C_10  and  O_16
REMARK    5  A    between atoms: C_11  and  O_18
REMARK    6  A    between atoms: C_13  and  C_20
REMARK    7  A    between atoms: C_20  and  O_21
REMARK    8  A    between atoms: C_23  and  C_25
REMARK                            x       y       z     vdW  Elec       q    Type
REMARK                         _______ _______ _______ _____ _____    ______ ____
ROOT
ATOM      1  F   UNL     1      32.898 -19.662 -21.182  0.00  0.00    -0.204 F 
ATOM      2  C   UNL     1      34.059 -21.894 -17.908  0.00  0.00    +0.007 C 
ATOM      3  C   UNL     1      35.025 -21.300 -18.719  0.00  0.00    -0.004 C 
ATOM      4  C   UNL     1      32.706 -21.735 -18.201  0.00  0.00    +0.000 C 
ATOM      5  C   UNL     1      34.636 -20.545 -19.826  0.00  0.00    +0.010 C 
ATOM      6  C   UNL     1      32.316 -20.980 -19.307  0.00  0.00    +0.029 C 
ATOM      7  C   UNL     1      33.282 -20.385 -20.120  0.00  0.00    +0.136 C 
ENDROOT
BRANCH   2  12
ATOM      8  O   UNL     1      33.381 -22.744 -15.792  0.00  0.00    -0.347 OA
ATOM      9  C   UNL     1      35.736 -22.139 -16.030  0.00  0.00    +0.171 C 
ATOM     10  C   UNL     1      36.049 -22.885 -14.730  0.00  0.00    +0.169 C 
ATOM     11  C   UNL     1      34.806 -23.015 -13.850  0.00  0.00    +0.169 C 
ATOM     12  C   UNL     1      34.481 -22.714 -16.706  0.00  0.00    +0.167 C 
ATOM     13  C   UNL     1      33.629 -23.570 -14.653  0.00  0.00    +0.174 C 
BRANCH   9  14
ATOM     14  O   UNL     1      36.841 -22.279 -16.923  0.00  0.00    -0.379 OA
ATOM     15  H   UNL     1      37.500 -22.873 -16.531  0.00  0.00    +0.211 HD
ENDBRANCH   9  14
BRANCH  10  16
ATOM     16  O   UNL     1      37.037 -22.162 -13.994  0.00  0.00    -0.379 OA
ATOM     17  H   UNL     1      37.921 -22.451 -14.268  0.00  0.00    +0.211 HD
ENDBRANCH  10  16
BRANCH  11  18
ATOM     18  O   UNL     1      35.089 -23.892 -12.763  0.00  0.00    -0.379 OA
ATOM     19  H   UNL     1      35.770 -24.529 -13.030  0.00  0.00    +0.211 HD
ENDBRANCH  11  18
BRANCH  13  20
ATOM     20  C   UNL     1      32.348 -23.607 -13.826  0.00  0.00    +0.169 C 
BRANCH  20  21
ATOM     21  O   UNL     1      32.463 -24.638 -12.861  0.00  0.00    -0.379 OA
ATOM     22  H   UNL     1      33.376 -24.676 -12.536  0.00  0.00    +0.211 HD
ENDBRANCH  20  21
ENDBRANCH  13  20
ENDBRANCH   2  12
BRANCH   5  23
ATOM     23  C   UNL     1      35.670 -19.910 -20.693  0.00  0.00    +0.061 C 
BRANCH  23  25
ATOM     24  S   UNL     1      34.893 -18.655 -23.016  0.00  0.00    -0.091 S 
ATOM     25  C   UNL     1      35.201 -18.632 -21.357  0.00  0.00    +0.012 C 
ATOM     26  C   UNL     1      34.991 -17.433 -20.769  0.00  0.00    +0.003 C 
ATOM     27  C   UNL     1      34.547 -16.449 -21.713  0.00  0.00    +0.006 C 
ATOM     28  C   UNL     1      34.447 -16.989 -22.999  0.00  0.00    +0.029 C 
ATOM     29  C   UNL     1      34.214 -15.084 -21.533  0.00  0.00    +0.001 C 
ATOM     30  C   UNL     1      34.030 -16.209 -24.095  0.00  0.00    +0.006 C 
ATOM     31  C   UNL     1      33.800 -14.308 -22.619  0.00  0.00    +0.000 C 
ATOM     32  C   UNL     1      33.709 -14.867 -23.886  0.00  0.00    +0.001 C 
ENDBRANCH  23  25
ENDBRANCH   5  23
TORSDOF 8
ENDMDL
MODEL 3
REMARK VINA RESULT:     -11.2      0.937      2.262
REMARK  Name = 10453870
REMARK  8 active torsions:
REMARK  status: ('A' for Active; 'I' for Inactive)
REMARK    1  A    between atoms: C_2  and  C_12
REMARK    2  A    between atoms: C_5  and  C_23
REMARK    3  A    between atoms: C_9  and  O_14
REMARK    4  A    between atoms: C_10  and  O_16
REMARK    5  A    between atoms: C_11  and  O_18
REMARK    6  A    between atoms: C_13  and  C_20
REMARK    7  A    between atoms: C_20  and  O_21
REMARK    8  A    between atoms: C_23  and  C_25
REMARK                            x       y       z     vdW  Elec       q    Type
REMARK                         _______ _______ _______ _____ _____    ______ ____
ROOT
ATOM      1  F   UNL     1      30.842 -21.869 -17.205  0.00  0.00    -0.204 F 
ATOM      2  C   UNL     1      33.724 -23.482 -14.728  0.00  0.00    +0.007 C 
ATOM      3  C   UNL     1      33.858 -23.594 -16.112  0.00  0.00    -0.004 C 
ATOM      4  C   UNL     1      32.622 -22.827 -14.183  0.00  0.00    +0.000 C 
ATOM      5  C   UNL     1      32.886 -23.050 -16.951  0.00  0.00    +0.010 C 
ATOM      6  C   UNL     1      31.650 -22.283 -15.023  0.00  0.00    +0.029 C 
ATOM      7  C   UNL     1      31.782 -22.395 -16.407  0.00  0.00    +0.136 C 
ENDROOT
BRANCH   2  12
ATOM      8  O   UNL     1      34.548 -23.567 -12.497  0.00  0.00    -0.347 OA
ATOM      9  C   UNL     1      36.202 -23.733 -14.288  0.00  0.00    +0.171 C 
ATOM     10  C   UNL     1      37.245 -24.201 -13.268  0.00  0.00    +0.169 C 
ATOM     11  C   UNL     1      36.877 -23.756 -11.852  0.00  0.00    +0.169 C 
ATOM     12  C   UNL     1      34.780 -24.073 -13.816  0.00  0.00    +0.167 C 
ATOM     13  C   UNL     1      35.430 -24.129 -11.525  0.00  0.00    +0.174 C 
BRANCH   9  14
ATOM     14  O   UNL     1      36.441 -24.393 -15.531  0.00  0.00    -0.379 OA
ATOM     15  H   UNL     1      37.201 -24.989 -15.439  0.00  0.00    +0.211 HD
ENDBRANCH   9  14
BRANCH  10  16
ATOM     16  O   UNL     1      38.515 -23.634 -13.592  0.00  0.00    -0.379 OA
ATOM     17  H   UNL     1      39.207 -24.067 -13.069  0.00  0.00    +0.211 HD
ENDBRANCH  10  16
BRANCH  11  18
ATOM     18  O   UNL     1      37.749 -24.387 -10.919  0.00  0.00    -0.379 OA
ATOM     19  H   UNL     1      37.406 -25.268 -10.701  0.00  0.00    +0.211 HD
ENDBRANCH  11  18
BRANCH  13  20
ATOM     20  C   UNL     1      35.005 -23.599 -10.160  0.00  0.00    +0.169 C 
BRANCH  20  21
ATOM     21  O   UNL     1      35.024 -24.671  -9.234  0.00  0.00    -0.379 OA
ATOM     22  H   UNL     1      34.138 -24.787  -8.856  0.00  0.00    +0.211 HD
ENDBRANCH  20  21
ENDBRANCH  13  20
ENDBRANCH   2  12
BRANCH   5  23
ATOM     23  C   UNL     1      33.030 -23.172 -18.431  0.00  0.00    +0.061 C 
BRANCH  23  25
ATOM     24  S   UNL     1      32.617 -20.845 -19.842  0.00  0.00    -0.091 S 
ATOM     25  C   UNL     1      33.643 -21.948 -19.081  0.00  0.00    +0.012 C 
ATOM     26  C   UNL     1      34.952 -21.617 -19.131  0.00  0.00    +0.003 C 
ATOM     27  C   UNL     1      35.161 -20.382 -19.831  0.00  0.00    +0.006 C 
ATOM     28  C   UNL     1      33.951 -19.844 -20.280  0.00  0.00    +0.029 C 
ATOM     29  C   UNL     1      36.355 -19.674 -20.114  0.00  0.00    +0.001 C 
ATOM     30  C   UNL     1      33.906 -18.632 -20.997  0.00  0.00    +0.006 C 
ATOM     31  C   UNL     1      36.312 -18.472 -20.824  0.00  0.00    +0.000 C 
ATOM     32  C   UNL     1      35.099 -17.957 -21.260  0.00  0.00    +0.001 C 
ENDBRANCH  23  25
ENDBRANCH   5  23
TORSDOF 8
ENDMDL
MODEL 4
REMARK VINA RESULT:     -10.9      1.124      2.560
REMARK  Name = 10453870
REMARK  8 active torsions:
REMARK  status: ('A' for Active; 'I' for Inactive)
REMARK    1  A    between atoms: C_2  and  C_12
REMARK    2  A    between atoms: C_5  and  C_23
REMARK    3  A    between atoms: C_9  and  O_14
REMARK    4  A    between atoms: C_10  and  O_16
REMARK    5  A    between atoms: C_11  and  O_18
REMARK    6  A    between atoms: C_13  and  C_20
REMARK    7  A    between atoms: C_20  and  O_21
REMARK    8  A    between atoms: C_23  and  C_25
REMARK                            x       y       z     vdW  Elec       q    Type
REMARK                         _______ _______ _______ _____ _____    ______ ____
ROOT
ATOM      1  F   UNL     1      30.858 -21.830 -17.077  0.00  0.00    -0.204 F 
ATOM      2  C   UNL     1      33.780 -23.440 -14.645  0.00  0.00    +0.007 C 
ATOM      3  C   UNL     1      33.885 -23.565 -16.030  0.00  0.00    -0.004 C 
ATOM      4  C   UNL     1      32.692 -22.775 -14.083  0.00  0.00    +0.000 C 
ATOM      5  C   UNL     1      32.900 -23.021 -16.854  0.00  0.00    +0.010 C 
ATOM      6  C   UNL     1      31.707 -22.231 -14.908  0.00  0.00    +0.029 C 
ATOM      7  C   UNL     1      31.810 -22.355 -16.294  0.00  0.00    +0.136 C 
ENDROOT
BRANCH   2  12
ATOM      8  O   UNL     1      34.737 -23.406 -12.467  0.00  0.00    -0.347 OA
ATOM      9  C   UNL     1      36.259 -23.832 -14.330  0.00  0.00    +0.171 C 
ATOM     10  C   UNL     1      37.331 -24.290 -13.336  0.00  0.00    +0.169 C 
ATOM     11  C   UNL     1      37.084 -23.708 -11.945  0.00  0.00    +0.169 C 
ATOM     12  C   UNL     1      34.850 -24.030 -13.749  0.00  0.00    +0.167 C 
ATOM     13  C   UNL     1      35.640 -23.950 -11.504  0.00  0.00    +0.174 C 
BRANCH   9  14
ATOM     14  O   UNL     1      36.373 -24.605 -15.525  0.00  0.00    -0.379 OA
ATOM     15  H   UNL     1      35.611 -24.431 -16.097  0.00  0.00    +0.211 HD
ENDBRANCH   9  14
BRANCH  10  16
ATOM     16  O   UNL     1      38.613 -23.843 -13.781  0.00  0.00    -0.379 OA
ATOM     17  H   UNL     1      38.580 -22.890 -13.958  0.00  0.00    +0.211 HD
ENDBRANCH  10  16
BRANCH  11  18
ATOM     18  O   UNL     1      37.970 -24.324 -11.014  0.00  0.00    -0.379 OA
ATOM     19  H   UNL     1      38.862 -23.957 -11.124  0.00  0.00    +0.211 HD
ENDBRANCH  11  18
BRANCH  13  20
ATOM     20  C   UNL     1      35.339 -23.283 -10.165  0.00  0.00    +0.169 C 
BRANCH  20  21
ATOM     21  O   UNL     1      34.989 -24.287  -9.229  0.00  0.00    -0.379 OA
ATOM     22  H   UNL     1      34.567 -23.878  -8.459  0.00  0.00    +0.211 HD
ENDBRANCH  20  21
ENDBRANCH  13  20
ENDBRANCH   2  12
BRANCH   5  23
ATOM     23  C   UNL     1      33.014 -23.156 -18.336  0.00  0.00    +0.061 C 
BRANCH  23  25
ATOM     24  S   UNL     1      35.279 -21.655 -18.778  0.00  0.00    -0.091 S 
ATOM     25  C   UNL     1      33.632 -21.946 -19.006  0.00  0.00    +0.012 C 
ATOM     26  C   UNL     1      33.010 -21.038 -19.792  0.00  0.00    +0.003 C 
ATOM     27  C   UNL     1      33.916 -20.026 -20.253  0.00  0.00    +0.006 C 
ATOM     28  C   UNL     1      35.209 -20.244 -19.768  0.00  0.00    +0.029 C 
ATOM     29  C   UNL     1      33.694 -18.901 -21.084  0.00  0.00    +0.001 C 
ATOM     30  C   UNL     1      36.272 -19.377 -20.088  0.00  0.00    +0.006 C 
ATOM     31  C   UNL     1      34.746 -18.039 -21.403  0.00  0.00    +0.000 C 
ATOM     32  C   UNL     1      36.022 -18.276 -20.909  0.00  0.00    +0.001 C 
ENDBRANCH  23  25
ENDBRANCH   5  23
TORSDOF 8
ENDMDL
MODEL 5
REMARK VINA RESULT:     -10.9      1.347      1.843
REMARK  Name = 10453870
REMARK  8 active torsions:
REMARK  status: ('A' for Active; 'I' for Inactive)
REMARK    1  A    between atoms: C_2  and  C_12
REMARK    2  A    between atoms: C_5  and  C_23
REMARK    3  A    between atoms: C_9  and  O_14
REMARK    4  A    between atoms: C_10  and  O_16
REMARK    5  A    between atoms: C_11  and  O_18
REMARK    6  A    between atoms: C_13  and  C_20
REMARK    7  A    between atoms: C_20  and  O_21
REMARK    8  A    between atoms: C_23  and  C_25
REMARK                            x       y       z     vdW  Elec       q    Type
REMARK                         _______ _______ _______ _____ _____    ______ ____
ROOT
ATOM      1  F   UNL     1      29.900 -22.317 -14.981  0.00  0.00    -0.204 F 
ATOM      2  C   UNL     1      33.823 -23.373 -14.244  0.00  0.00    +0.007 C 
ATOM      3  C   UNL     1      33.384 -23.211 -15.557  0.00  0.00    -0.004 C 
ATOM      4  C   UNL     1      32.940 -23.178 -13.183  0.00  0.00    +0.000 C 
ATOM      5  C   UNL     1      32.060 -22.854 -15.810  0.00  0.00    +0.010 C 
ATOM      6  C   UNL     1      31.616 -22.821 -13.435  0.00  0.00    +0.029 C 
ATOM      7  C   UNL     1      31.175 -22.660 -14.749  0.00  0.00    +0.136 C 
ENDROOT
BRANCH   2  12
ATOM      8  O   UNL     1      35.438 -25.114 -14.399  0.00  0.00    -0.347 OA
ATOM      9  C   UNL     1      35.624 -23.608 -12.484  0.00  0.00    +0.171 C 
ATOM     10  C   UNL     1      37.027 -24.155 -12.203  0.00  0.00    +0.169 C 
ATOM     11  C   UNL     1      37.211 -25.548 -12.805  0.00  0.00    +0.169 C 
ATOM     12  C   UNL     1      35.262 -23.760 -13.969  0.00  0.00    +0.167 C 
ATOM     13  C   UNL     1      36.787 -25.564 -14.275  0.00  0.00    +0.174 C 
BRANCH   9  14
ATOM     14  O   UNL     1      35.591 -22.221 -12.145  0.00  0.00    -0.379 OA
ATOM     15  H   UNL     1      34.672 -21.941 -12.018  0.00  0.00    +0.211 HD
ENDBRANCH   9  14
BRANCH  10  16
ATOM     16  O   UNL     1      37.224 -24.255 -10.791  0.00  0.00    -0.379 OA
ATOM     17  H   UNL     1      38.089 -24.655 -10.613  0.00  0.00    +0.211 HD
ENDBRANCH  10  16
BRANCH  11  18
ATOM     18  O   UNL     1      38.582 -25.925 -12.707  0.00  0.00    -0.379 OA
ATOM     19  H   UNL     1      39.069 -25.249 -12.210  0.00  0.00    +0.211 HD
ENDBRANCH  11  18
BRANCH  13  20
ATOM     20  C   UNL     1      36.858 -26.967 -14.868  0.00  0.00    +0.169 C 
BRANCH  20  21
ATOM     21  O   UNL     1      36.315 -26.933 -16.176  0.00  0.00    -0.379 OA
ATOM     22  H   UNL     1      35.599 -26.279 -16.211  0.00  0.00    +0.211 HD
ENDBRANCH  20  21
ENDBRANCH  13  20
ENDBRANCH   2  12
BRANCH   5  23
ATOM     23  C   UNL     1      31.592 -22.682 -17.216  0.00  0.00    +0.061 C 
BRANCH  23  25
ATOM     24  S   UNL     1      34.214 -22.130 -17.848  0.00  0.00    -0.091 S 
ATOM     25  C   UNL     1      32.559 -21.901 -18.083  0.00  0.00    +0.012 C 
ATOM     26  C   UNL     1      32.252 -21.013 -19.055  0.00  0.00    +0.003 C 
ATOM     27  C   UNL     1      33.429 -20.468 -19.666  0.00  0.00    +0.006 C 
ATOM     28  C   UNL     1      34.590 -21.000 -19.095  0.00  0.00    +0.029 C 
ATOM     29  C   UNL     1      33.571 -19.520 -20.709  0.00  0.00    +0.001 C 
ATOM     30  C   UNL     1      35.871 -20.612 -19.533  0.00  0.00    +0.006 C 
ATOM     31  C   UNL     1      34.841 -19.134 -21.146  0.00  0.00    +0.000 C 
ATOM     32  C   UNL     1      35.978 -19.676 -20.562  0.00  0.00    +0.001 C 
ENDBRANCH  23  25
ENDBRANCH   5  23
TORSDOF 8
ENDMDL
MODEL 6
REMARK VINA RESULT:     -10.8      2.398      3.799
REMARK  Name = 10453870
REMARK  8 active torsions:
REMARK  status: ('A' for Active; 'I' for Inactive)
REMARK    1  A    between atoms: C_2  and  C_12
REMARK    2  A    between atoms: C_5  and  C_23
REMARK    3  A    between atoms: C_9  and  O_14
REMARK    4  A    between atoms: C_10  and  O_16
REMARK    5  A    between atoms: C_11  and  O_18
REMARK    6  A    between atoms: C_13  and  C_20
REMARK    7  A    between atoms: C_20  and  O_21
REMARK    8  A    between atoms: C_23  and  C_25
REMARK                            x       y       z     vdW  Elec       q    Type
REMARK                         _______ _______ _______ _____ _____    ______ ____
ROOT
ATOM      1  F   UNL     1      32.977 -20.210 -21.098  0.00  0.00    -0.204 F 
ATOM      2  C   UNL     1      34.433 -21.690 -17.530  0.00  0.00    +0.007 C 
ATOM      3  C   UNL     1      35.313 -21.146 -18.465  0.00  0.00    -0.004 C 
ATOM      4  C   UNL     1      33.067 -21.735 -17.799  0.00  0.00    +0.000 C 
ATOM      5  C   UNL     1      34.824 -20.645 -19.671  0.00  0.00    +0.010 C 
ATOM      6  C   UNL     1      32.577 -21.234 -19.005  0.00  0.00    +0.029 C 
ATOM      7  C   UNL     1      33.456 -20.689 -19.942  0.00  0.00    +0.136 C 
ENDROOT
BRANCH   2  12
ATOM      8  O   UNL     1      36.364 -22.484 -16.387  0.00  0.00    -0.347 OA
ATOM      9  C   UNL     1      34.230 -23.513 -15.789  0.00  0.00    +0.171 C 
ATOM     10  C   UNL     1      34.888 -24.132 -14.552  0.00  0.00    +0.169 C 
ATOM     11  C   UNL     1      36.402 -24.247 -14.725  0.00  0.00    +0.169 C 
ATOM     12  C   UNL     1      34.965 -22.234 -16.220  0.00  0.00    +0.167 C 
ATOM     13  C   UNL     1      36.998 -22.915 -15.182  0.00  0.00    +0.174 C 
BRANCH   9  14
ATOM     14  O   UNL     1      32.878 -23.181 -15.478  0.00  0.00    -0.379 OA
ATOM     15  H   UNL     1      32.543 -22.543 -16.127  0.00  0.00    +0.211 HD
ENDBRANCH   9  14
BRANCH  10  16
ATOM     16  O   UNL     1      34.366 -25.447 -14.344  0.00  0.00    -0.379 OA
ATOM     17  H   UNL     1      35.034 -25.994 -13.903  0.00  0.00    +0.211 HD
ENDBRANCH  10  16
BRANCH  11  18
ATOM     18  O   UNL     1      36.990 -24.624 -13.483  0.00  0.00    -0.379 OA
ATOM     19  H   UNL     1      37.465 -25.463 -13.591  0.00  0.00    +0.211 HD
ENDBRANCH  11  18
BRANCH  13  20
ATOM     20  C   UNL     1      38.492 -23.033 -15.468  0.00  0.00    +0.169 C 
BRANCH  20  21
ATOM     21  O   UNL     1      38.854 -24.401 -15.416  0.00  0.00    -0.379 OA
ATOM     22  H   UNL     1      39.774 -24.481 -15.119  0.00  0.00    +0.211 HD
ENDBRANCH  20  21
ENDBRANCH  13  20
ENDBRANCH   2  12
BRANCH   5  23
ATOM     23  C   UNL     1      35.766 -20.063 -20.671  0.00  0.00    +0.061 C 
BRANCH  23  25
ATOM     24  S   UNL     1      35.019 -18.675 -22.927  0.00  0.00    -0.091 S 
ATOM     25  C   UNL     1      35.287 -18.753 -21.263  0.00  0.00    +0.012 C 
ATOM     26  C   UNL     1      35.038 -17.600 -20.604  0.00  0.00    +0.003 C 
ATOM     27  C   UNL     1      34.596 -16.565 -21.493  0.00  0.00    +0.006 C 
ATOM     28  C   UNL     1      34.539 -17.022 -22.814  0.00  0.00    +0.029 C 
ATOM     29  C   UNL     1      34.231 -15.221 -21.234  0.00  0.00    +0.001 C 
ATOM     30  C   UNL     1      34.132 -16.181 -23.868  0.00  0.00    +0.006 C 
ATOM     31  C   UNL     1      33.827 -14.385 -22.278  0.00  0.00    +0.000 C 
ATOM     32  C   UNL     1      33.779 -14.861 -23.581  0.00  0.00    +0.001 C 
ENDBRANCH  23  25
ENDBRANCH   5  23
TORSDOF 8
ENDMDL
MODEL 7
REMARK VINA RESULT:     -10.8      7.081     11.537
REMARK  Name = 10453870
REMARK  8 active torsions:
REMARK  status: ('A' for Active; 'I' for Inactive)
REMARK    1  A    between atoms: C_2  and  C_12
REMARK    2  A    between atoms: C_5  and  C_23
REMARK    3  A    between atoms: C_9  and  O_14
REMARK    4  A    between atoms: C_10  and  O_16
REMARK    5  A    between atoms: C_11  and  O_18
REMARK    6  A    between atoms: C_13  and  C_20
REMARK    7  A    between atoms: C_20  and  O_21
REMARK    8  A    between atoms: C_23  and  C_25
REMARK                            x       y       z     vdW  Elec       q    Type
REMARK                         _______ _______ _______ _____ _____    ______ ____
ROOT
ATOM      1  F   UNL     1      34.634 -20.504 -23.233  0.00  0.00    -0.204 F 
ATOM      2  C   UNL     1      34.172 -16.402 -23.315  0.00  0.00    +0.007 C 
ATOM      3  C   UNL     1      34.948 -16.992 -22.318  0.00  0.00    -0.004 C 
ATOM      4  C   UNL     1      33.554 -17.194 -24.281  0.00  0.00    +0.000 C 
ATOM      5  C   UNL     1      35.106 -18.377 -22.288  0.00  0.00    +0.010 C 
ATOM      6  C   UNL     1      33.713 -18.580 -24.251  0.00  0.00    +0.029 C 
ATOM      7  C   UNL     1      34.489 -19.172 -23.254  0.00  0.00    +0.136 C 
ENDROOT
BRANCH   2  12
ATOM      8  O   UNL     1      33.383 -14.502 -22.119  0.00  0.00    -0.347 OA
ATOM      9  C   UNL     1      33.160 -14.441 -24.552  0.00  0.00    +0.171 C 
ATOM     10  C   UNL     1      32.864 -12.940 -24.477  0.00  0.00    +0.169 C 
ATOM     11  C   UNL     1      32.340 -12.544 -23.097  0.00  0.00    +0.169 C 
ATOM     12  C   UNL     1      34.000 -14.897 -23.349  0.00  0.00    +0.167 C 
ATOM     13  C   UNL     1      33.252 -13.086 -21.994  0.00  0.00    +0.174 C 
BRANCH   9  14
ATOM     14  O   UNL     1      33.891 -14.711 -25.748  0.00  0.00    -0.379 OA
ATOM     15  H   UNL     1      33.318 -15.170 -26.381  0.00  0.00    +0.211 HD
ENDBRANCH   9  14
BRANCH  10  16
ATOM     16  O   UNL     1      31.865 -12.604 -25.441  0.00  0.00    -0.379 OA
ATOM     17  H   UNL     1      32.240 -11.996 -26.097  0.00  0.00    +0.211 HD
ENDBRANCH  10  16
BRANCH  11  18
ATOM     18  O   UNL     1      32.282 -11.124 -23.005  0.00  0.00    -0.379 OA
ATOM     19  H   UNL     1      31.913 -10.870 -22.145  0.00  0.00    +0.211 HD
ENDBRANCH  11  18
BRANCH  13  20
ATOM     20  C   UNL     1      32.691 -12.798 -20.605  0.00  0.00    +0.169 C 
BRANCH  20  21
ATOM     21  O   UNL     1      31.289 -12.628 -20.711  0.00  0.00    -0.379 OA
ATOM     22  H   UNL     1      30.885 -12.728 -19.835  0.00  0.00    +0.211 HD
ENDBRANCH  20  21
ENDBRANCH  13  20
ENDBRANCH   2  12
BRANCH   5  23
ATOM     23  C   UNL     1      35.936 -19.006 -21.220  0.00  0.00    +0.061 C 
BRANCH  23  25
ATOM     24  S   UNL     1      35.974 -20.832 -19.160  0.00  0.00    -0.091 S 
ATOM     25  C   UNL     1      35.137 -19.862 -20.258  0.00  0.00    +0.012 C 
ATOM     26  C   UNL     1      33.792 -19.949 -20.166  0.00  0.00    +0.003 C 
ATOM     27  C   UNL     1      33.389 -20.863 -19.136  0.00  0.00    +0.006 C 
ATOM     28  C   UNL     1      34.498 -21.426 -18.496  0.00  0.00    +0.029 C 
ATOM     29  C   UNL     1      32.098 -21.251 -18.702  0.00  0.00    +0.001 C 
ATOM     30  C   UNL     1      34.350 -22.355 -17.448  0.00  0.00    +0.006 C 
ATOM     31  C   UNL     1      31.949 -22.174 -17.663  0.00  0.00    +0.000 C 
ATOM     32  C   UNL     1      33.065 -22.719 -17.043  0.00  0.00    +0.001 C 
ENDBRANCH  23  25
ENDBRANCH   5  23
TORSDOF 8
ENDMDL
MODEL 8
REMARK VINA RESULT:     -10.8     12.976     17.196
REMARK  Name = 10453870
REMARK  8 active torsions:
REMARK  status: ('A' for Active; 'I' for Inactive)
REMARK    1  A    between atoms: C_2  and  C_12
REMARK    2  A    between atoms: C_5  and  C_23
REMARK    3  A    between atoms: C_9  and  O_14
REMARK    4  A    between atoms: C_10  and  O_16
REMARK    5  A    between atoms: C_11  and  O_18
REMARK    6  A    between atoms: C_13  and  C_20
REMARK    7  A    between atoms: C_20  and  O_21
REMARK    8  A    between atoms: C_23  and  C_25
REMARK                            x       y       z     vdW  Elec       q    Type
REMARK                         _______ _______ _______ _____ _____    ______ ____
ROOT
ATOM      1  F   UNL     1      30.868 -10.017 -18.812  0.00  0.00    -0.204 F 
ATOM      2  C   UNL     1      32.194  -7.092 -21.406  0.00  0.00    +0.007 C 
ATOM      3  C   UNL     1      31.594  -8.245 -21.911  0.00  0.00    -0.004 C 
ATOM      4  C   UNL     1      32.347  -6.927 -20.031  0.00  0.00    +0.000 C 
ATOM      5  C   UNL     1      31.144  -9.235 -21.037  0.00  0.00    +0.010 C 
ATOM      6  C   UNL     1      31.897  -7.917 -19.157  0.00  0.00    +0.029 C 
ATOM      7  C   UNL     1      31.296  -9.072 -19.660  0.00  0.00    +0.136 C 
ENDROOT
BRANCH   2  12
ATOM      8  O   UNL     1      31.640  -5.045 -22.485  0.00  0.00    -0.347 OA
ATOM      9  C   UNL     1      33.066  -6.592 -23.727  0.00  0.00    +0.171 C 
ATOM     10  C   UNL     1      33.402  -5.471 -24.717  0.00  0.00    +0.169 C 
ATOM     11  C   UNL     1      32.325  -4.386 -24.715  0.00  0.00    +0.169 C 
ATOM     12  C   UNL     1      32.683  -6.017 -22.355  0.00  0.00    +0.167 C 
ATOM     13  C   UNL     1      32.021  -3.927 -23.288  0.00  0.00    +0.174 C 
BRANCH   9  14
ATOM     14  O   UNL     1      34.212  -7.428 -23.568  0.00  0.00    -0.379 OA
ATOM     15  H   UNL     1      33.936  -8.358 -23.567  0.00  0.00    +0.211 HD
ENDBRANCH   9  14
BRANCH  10  16
ATOM     16  O   UNL     1      33.481  -6.012 -26.037  0.00  0.00    -0.379 OA
ATOM     17  H   UNL     1      33.711  -6.953 -25.989  0.00  0.00    +0.211 HD
ENDBRANCH  10  16
BRANCH  11  18
ATOM     18  O   UNL     1      32.777  -3.273 -25.481  0.00  0.00    -0.379 OA
ATOM     19  H   UNL     1      33.644  -2.985 -25.153  0.00  0.00    +0.211 HD
ENDBRANCH  11  18
BRANCH  13  20
ATOM     20  C   UNL     1      30.873  -2.923 -23.250  0.00  0.00    +0.169 C 
BRANCH  20  21
ATOM     21  O   UNL     1      30.072  -3.110 -24.404  0.00  0.00    -0.379 OA
ATOM     22  H   UNL     1      29.135  -3.083 -24.155  0.00  0.00    +0.211 HD
ENDBRANCH  20  21
ENDBRANCH  13  20
ENDBRANCH   2  12
BRANCH   5  23
ATOM     23  C   UNL     1      30.502 -10.468 -21.579  0.00  0.00    +0.061 C 
BRANCH  23  25
ATOM     24  S   UNL     1      32.123 -11.997 -23.195  0.00  0.00    -0.091 S 
ATOM     25  C   UNL     1      31.450 -11.645 -21.688  0.00  0.00    +0.012 C 
ATOM     26  C   UNL     1      31.838 -12.477 -20.696  0.00  0.00    +0.003 C 
ATOM     27  C   UNL     1      32.747 -13.480 -21.171  0.00  0.00    +0.006 C 
ATOM     28  C   UNL     1      32.994 -13.333 -22.539  0.00  0.00    +0.029 C 
ATOM     29  C   UNL     1      33.393 -14.538 -20.484  0.00  0.00    +0.001 C 
ATOM     30  C   UNL     1      33.858 -14.206 -23.230  0.00  0.00    +0.006 C 
ATOM     31  C   UNL     1      34.250 -15.405 -21.167  0.00  0.00    +0.000 C 
ATOM     32  C   UNL     1      34.479 -15.239 -22.526  0.00  0.00    +0.001 C 
ENDBRANCH  23  25
ENDBRANCH   5  23
TORSDOF 8
ENDMDL
MODEL 9
REMARK VINA RESULT:     -10.5     13.370     17.541
REMARK  Name = 10453870
REMARK  8 active torsions:
REMARK  status: ('A' for Active; 'I' for Inactive)
REMARK    1  A    between atoms: C_2  and  C_12
REMARK    2  A    between atoms: C_5  and  C_23
REMARK    3  A    between atoms: C_9  and  O_14
REMARK    4  A    between atoms: C_10  and  O_16
REMARK    5  A    between atoms: C_11  and  O_18
REMARK    6  A    between atoms: C_13  and  C_20
REMARK    7  A    between atoms: C_20  and  O_21
REMARK    8  A    between atoms: C_23  and  C_25
REMARK                            x       y       z     vdW  Elec       q    Type
REMARK                         _______ _______ _______ _____ _____    ______ ____
ROOT
ATOM      1  F   UNL     1      31.889  -9.420 -18.868  0.00  0.00    -0.204 F 
ATOM      2  C   UNL     1      31.305  -7.001 -22.162  0.00  0.00    +0.007 C 
ATOM      3  C   UNL     1      30.730  -8.270 -22.124  0.00  0.00    -0.004 C 
ATOM      4  C   UNL     1      32.075  -6.549 -21.092  0.00  0.00    +0.000 C 
ATOM      5  C   UNL     1      30.926  -9.090 -21.013  0.00  0.00    +0.010 C 
ATOM      6  C   UNL     1      32.270  -7.369 -19.980  0.00  0.00    +0.029 C 
ATOM      7  C   UNL     1      31.695  -8.640 -19.940  0.00  0.00    +0.136 C 
ENDROOT
BRANCH   2  12
ATOM      8  O   UNL     1      32.242  -6.240 -24.213  0.00  0.00    -0.347 OA
ATOM      9  C   UNL     1      30.873  -4.643 -22.970  0.00  0.00    +0.171 C 
ATOM     10  C   UNL     1      30.821  -3.740 -24.206  0.00  0.00    +0.169 C 
ATOM     11  C   UNL     1      31.995  -4.016 -25.145  0.00  0.00    +0.169 C 
ATOM     12  C   UNL     1      31.093  -6.110 -23.369  0.00  0.00    +0.167 C 
ATOM     13  C   UNL     1      32.117  -5.513 -25.436  0.00  0.00    +0.174 C 
BRANCH   9  14
ATOM     14  O   UNL     1      29.632  -4.542 -22.270  0.00  0.00    -0.379 OA
ATOM     15  H   UNL     1      29.213  -5.415 -22.226  0.00  0.00    +0.211 HD
ENDBRANCH   9  14
BRANCH  10  16
ATOM     16  O   UNL     1      30.895  -2.372 -23.798  0.00  0.00    -0.379 OA
ATOM     17  H   UNL     1      31.787  -2.180 -23.470  0.00  0.00    +0.211 HD
ENDBRANCH  10  16
BRANCH  11  18
ATOM     18  O   UNL     1      31.793  -3.314 -26.369  0.00  0.00    -0.379 OA
ATOM     19  H   UNL     1      31.248  -2.528 -26.206  0.00  0.00    +0.211 HD
ENDBRANCH  11  18
BRANCH  13  20
ATOM     20  C   UNL     1      33.346  -5.826 -26.283  0.00  0.00    +0.169 C 
BRANCH  20  21
ATOM     21  O   UNL     1      32.971  -5.799 -27.649  0.00  0.00    -0.379 OA
ATOM     22  H   UNL     1      32.729  -6.693 -27.935  0.00  0.00    +0.211 HD
ENDBRANCH  20  21
ENDBRANCH  13  20
ENDBRANCH   2  12
BRANCH   5  23
ATOM     23  C   UNL     1      30.310 -10.448 -20.974  0.00  0.00    +0.061 C 
BRANCH  23  25
ATOM     24  S   UNL     1      31.832 -11.743 -22.868  0.00  0.00    -0.091 S 
ATOM     25  C   UNL     1      31.288 -11.564 -21.281  0.00  0.00    +0.012 C 
ATOM     26  C   UNL     1      31.798 -12.466 -20.413  0.00  0.00    +0.003 C 
ATOM     27  C   UNL     1      32.697 -13.376 -21.061  0.00  0.00    +0.006 C 
ATOM     28  C   UNL     1      32.811 -13.091 -22.425  0.00  0.00    +0.029 C 
ATOM     29  C   UNL     1      33.443 -14.462 -20.540  0.00  0.00    +0.001 C 
ATOM     30  C   UNL     1      33.640 -13.854 -23.271  0.00  0.00    +0.006 C 
ATOM     31  C   UNL     1      34.266 -15.220 -21.377  0.00  0.00    +0.000 C 
ATOM     32  C   UNL     1      34.362 -14.918 -22.728  0.00  0.00    +0.001 C 
ENDBRANCH  23  25
ENDBRANCH   5  23
TORSDOF 8
ENDMDL
