MODEL 1
REMARK VINA RESULT:      -9.0      0.000      0.000
REMARK  Name = 35775
REMARK  1 active torsions:
REMARK  status: ('A' for Active; 'I' for Inactive)
REMARK    1  A    between atoms: C_8  and  C_16
REMARK                            x       y       z     vdW  Elec       q    Type
REMARK                         _______ _______ _______ _____ _____    ______ ____
ROOT
ATOM      1  O   UNL     1      31.128 -24.554 -12.942  0.00  0.00    -0.272 OA
ATOM      2  N   UNL     1      32.046 -23.570 -14.842  0.00  0.00    -0.241 N 
ATOM      3  N   UNL     1      33.295 -22.540 -16.644  0.00  0.00    -0.236 N 
ATOM      4  N   UNL     1      34.520 -22.135 -17.007  0.00  0.00    -0.172 NA
ATOM      5  N   UNL     1      34.289 -23.832 -12.653  0.00  0.00    -0.260 NA
ATOM      6  C   UNL     1      33.237 -23.104 -15.398  0.00  0.00    +0.137 A 
ATOM      7  C   UNL     1      34.544 -23.142 -14.945  0.00  0.00    +0.064 A 
ATOM      8  C   UNL     1      35.010 -23.768 -13.720  0.00  0.00    +0.083 C 
ATOM      9  C   UNL     1      35.281 -22.511 -15.978  0.00  0.00    +0.083 A 
ATOM     10  C   UNL     1      31.994 -23.853 -13.472  0.00  0.00    +0.255 C 
ATOM     11  C   UNL     1      33.011 -23.143 -12.603  0.00  0.00    +0.210 C 
ATOM     12  C   UNL     1      30.870 -23.822 -15.669  0.00  0.00    +0.122 C 
ATOM     13  C   UNL     1      32.221 -22.203 -17.553  0.00  0.00    +0.155 C 
ATOM     14  C   UNL     1      36.730 -22.247 -16.037  0.00  0.00    +0.054 C 
ENDROOT
BRANCH   8  16
ATOM     15  F   UNL     1      35.672 -26.054 -15.235  0.00  0.00    -0.204 F 
ATOM     16  C   UNL     1      36.362 -24.379 -13.699  0.00  0.00    +0.045 C 
ATOM     17  C   UNL     1      36.627 -25.507 -14.471  0.00  0.00    +0.142 C 
ATOM     18  C   UNL     1      37.360 -23.818 -12.906  0.00  0.00    +0.004 C 
ATOM     19  C   UNL     1      37.900 -26.080 -14.448  0.00  0.00    +0.030 C 
ATOM     20  C   UNL     1      38.632 -24.389 -12.884  0.00  0.00    +0.000 C 
ATOM     21  C   UNL     1      38.902 -25.520 -13.655  0.00  0.00    +0.002 C 
ENDBRANCH   8  16
TORSDOF 1
ENDMDL
MODEL 2
REMARK VINA RESULT:      -8.5      1.740      2.454
REMARK  Name = 35775
REMARK  1 active torsions:
REMARK  status: ('A' for Active; 'I' for Inactive)
REMARK    1  A    between atoms: C_8  and  C_16
REMARK                            x       y       z     vdW  Elec       q    Type
REMARK                         _______ _______ _______ _____ _____    ______ ____
ROOT
ATOM      1  O   UNL     1      31.103 -23.368 -16.135  0.00  0.00    -0.272 OA
ATOM      2  N   UNL     1      33.006 -22.491 -17.148  0.00  0.00    -0.241 N 
ATOM      3  N   UNL     1      35.142 -21.634 -17.906  0.00  0.00    -0.236 N 
ATOM      4  N   UNL     1      36.418 -21.454 -17.537  0.00  0.00    -0.172 NA
ATOM      5  N   UNL     1      33.709 -23.275 -14.186  0.00  0.00    -0.260 NA
ATOM      6  C   UNL     1      34.362 -22.234 -16.953  0.00  0.00    +0.137 A 
ATOM      7  C   UNL     1      35.219 -22.540 -15.910  0.00  0.00    +0.064 A 
ATOM      8  C   UNL     1      34.883 -23.299 -14.719  0.00  0.00    +0.083 C 
ATOM      9  C   UNL     1      36.466 -22.015 -16.328  0.00  0.00    +0.083 A 
ATOM     10  C   UNL     1      32.206 -22.822 -16.049  0.00  0.00    +0.255 C 
ATOM     11  C   UNL     1      32.704 -22.359 -14.696  0.00  0.00    +0.210 C 
ATOM     12  C   UNL     1      32.415 -22.476 -18.484  0.00  0.00    +0.122 C 
ATOM     13  C   UNL     1      34.763 -21.059 -19.178  0.00  0.00    +0.155 C 
ATOM     14  C   UNL     1      37.752 -22.028 -15.607  0.00  0.00    +0.054 C 
ENDROOT
BRANCH   8  16
ATOM     15  F   UNL     1      36.211 -22.601 -12.329  0.00  0.00    -0.204 F 
ATOM     16  C   UNL     1      35.924 -24.157 -14.100  0.00  0.00    +0.045 C 
ATOM     17  C   UNL     1      36.542 -23.758 -12.918  0.00  0.00    +0.142 C 
ATOM     18  C   UNL     1      36.275 -25.361 -14.707  0.00  0.00    +0.004 C 
ATOM     19  C   UNL     1      37.521 -24.567 -12.340  0.00  0.00    +0.030 C 
ATOM     20  C   UNL     1      37.252 -26.170 -14.128  0.00  0.00    +0.000 C 
ATOM     21  C   UNL     1      37.876 -25.773 -12.945  0.00  0.00    +0.002 C 
ENDBRANCH   8  16
TORSDOF 1
ENDMDL
MODEL 3
REMARK VINA RESULT:      -8.1     17.967     20.412
REMARK  Name = 35775
REMARK  1 active torsions:
REMARK  status: ('A' for Active; 'I' for Inactive)
REMARK    1  A    between atoms: C_8  and  C_16
REMARK                            x       y       z     vdW  Elec       q    Type
REMARK                         _______ _______ _______ _____ _____    ______ ____
ROOT
ATOM      1  O   UNL     1      32.411  -5.780 -18.811  0.00  0.00    -0.272 OA
ATOM      2  N   UNL     1      31.737  -7.265 -20.472  0.00  0.00    -0.241 N 
ATOM      3  N   UNL     1      31.034  -8.541 -22.408  0.00  0.00    -0.236 N 
ATOM      4  N   UNL     1      30.782  -8.448 -23.721  0.00  0.00    -0.172 NA
ATOM      5  N   UNL     1      31.938  -4.383 -21.714  0.00  0.00    -0.260 NA
ATOM      6  C   UNL     1      31.443  -7.368 -21.831  0.00  0.00    +0.137 A 
ATOM      7  C   UNL     1      31.542  -6.458 -22.869  0.00  0.00    +0.064 A 
ATOM      8  C   UNL     1      32.060  -5.104 -22.776  0.00  0.00    +0.083 C 
ATOM      9  C   UNL     1      31.102  -7.184 -24.002  0.00  0.00    +0.083 A 
ATOM     10  C   UNL     1      31.854  -5.997 -19.891  0.00  0.00    +0.255 C 
ATOM     11  C   UNL     1      31.140  -4.867 -20.601  0.00  0.00    +0.210 C 
ATOM     12  C   UNL     1      31.980  -8.451 -19.656  0.00  0.00    +0.122 C 
ATOM     13  C   UNL     1      30.713  -9.809 -21.790  0.00  0.00    +0.155 C 
ATOM     14  C   UNL     1      30.973  -6.716 -25.394  0.00  0.00    +0.054 C 
ENDROOT
BRANCH   8  16
ATOM     15  F   UNL     1      31.006  -3.007 -24.341  0.00  0.00    -0.204 F 
ATOM     16  C   UNL     1      32.781  -4.533 -23.941  0.00  0.00    +0.045 C 
ATOM     17  C   UNL     1      32.208  -3.497 -24.673  0.00  0.00    +0.142 C 
ATOM     18  C   UNL     1      34.030  -5.038 -24.294  0.00  0.00    +0.004 C 
ATOM     19  C   UNL     1      32.888  -2.963 -25.768  0.00  0.00    +0.030 C 
ATOM     20  C   UNL     1      34.710  -4.504 -25.387  0.00  0.00    +0.000 C 
ATOM     21  C   UNL     1      34.140  -3.466 -26.125  0.00  0.00    +0.002 C 
ENDBRANCH   8  16
TORSDOF 1
ENDMDL
MODEL 4
REMARK VINA RESULT:      -7.8     16.540     19.202
REMARK  Name = 35775
REMARK  1 active torsions:
REMARK  status: ('A' for Active; 'I' for Inactive)
REMARK    1  A    between atoms: C_8  and  C_16
REMARK                            x       y       z     vdW  Elec       q    Type
REMARK                         _______ _______ _______ _____ _____    ______ ____
ROOT
ATOM      1  O   UNL     1      32.223 -11.013 -23.763  0.00  0.00    -0.272 OA
ATOM      2  N   UNL     1      31.734  -9.939 -21.757  0.00  0.00    -0.241 N 
ATOM      3  N   UNL     1      31.353  -8.542 -19.815  0.00  0.00    -0.236 N 
ATOM      4  N   UNL     1      31.448  -7.283 -19.362  0.00  0.00    -0.172 NA
ATOM      5  N   UNL     1      33.034  -7.860 -23.726  0.00  0.00    -0.260 NA
ATOM      6  C   UNL     1      31.748  -8.700 -21.116  0.00  0.00    +0.137 A 
ATOM      7  C   UNL     1      32.050  -7.429 -21.572  0.00  0.00    +0.064 A 
ATOM      8  C   UNL     1      32.398  -7.066 -22.934  0.00  0.00    +0.083 C 
ATOM      9  C   UNL     1      31.862  -6.606 -20.434  0.00  0.00    +0.083 A 
ATOM     10  C   UNL     1      32.423 -10.093 -22.966  0.00  0.00    +0.255 C 
ATOM     11  C   UNL     1      33.554  -9.119 -23.220  0.00  0.00    +0.210 C 
ATOM     12  C   UNL     1      30.971 -11.062 -21.221  0.00  0.00    +0.122 C 
ATOM     13  C   UNL     1      30.980  -9.540 -18.837  0.00  0.00    +0.155 C 
ATOM     14  C   UNL     1      32.057  -5.150 -20.317  0.00  0.00    +0.054 C 
ENDROOT
BRANCH   8  16
ATOM     15  F   UNL     1      34.253  -5.056 -23.627  0.00  0.00    -0.204 F 
ATOM     16  C   UNL     1      31.985  -5.736 -23.447  0.00  0.00    +0.045 C 
ATOM     17  C   UNL     1      32.949  -4.786 -23.773  0.00  0.00    +0.142 C 
ATOM     18  C   UNL     1      30.631  -5.447 -23.600  0.00  0.00    +0.004 C 
ATOM     19  C   UNL     1      32.557  -3.537 -24.255  0.00  0.00    +0.030 C 
ATOM     20  C   UNL     1      30.239  -4.198 -24.082  0.00  0.00    +0.000 C 
ATOM     21  C   UNL     1      31.201  -3.243 -24.410  0.00  0.00    +0.002 C 
ENDBRANCH   8  16
TORSDOF 1
ENDMDL
MODEL 5
REMARK VINA RESULT:      -7.7     12.154     14.971
REMARK  Name = 35775
REMARK  1 active torsions:
REMARK  status: ('A' for Active; 'I' for Inactive)
REMARK    1  A    between atoms: C_8  and  C_16
REMARK                            x       y       z     vdW  Elec       q    Type
REMARK                         _______ _______ _______ _____ _____    ______ ____
ROOT
ATOM      1  O   UNL     1      33.960 -14.713 -19.778  0.00  0.00    -0.272 OA
ATOM      2  N   UNL     1      33.825 -14.973 -22.087  0.00  0.00    -0.241 N 
ATOM      3  N   UNL     1      33.520 -14.945 -24.490  0.00  0.00    -0.236 N 
ATOM      4  N   UNL     1      33.045 -14.208 -25.504  0.00  0.00    -0.172 NA
ATOM      5  N   UNL     1      32.408 -12.282 -21.288  0.00  0.00    -0.260 NA
ATOM      6  C   UNL     1      33.401 -14.353 -23.261  0.00  0.00    +0.137 A 
ATOM      7  C   UNL     1      32.878 -13.094 -23.504  0.00  0.00    +0.064 A 
ATOM      8  C   UNL     1      32.688 -12.041 -22.523  0.00  0.00    +0.083 C 
ATOM      9  C   UNL     1      32.665 -13.078 -24.904  0.00  0.00    +0.083 A 
ATOM     10  C   UNL     1      33.410 -14.460 -20.852  0.00  0.00    +0.255 C 
ATOM     11  C   UNL     1      32.134 -13.644 -20.862  0.00  0.00    +0.210 C 
ATOM     12  C   UNL     1      34.739 -16.112 -22.117  0.00  0.00    +0.122 C 
ATOM     13  C   UNL     1      33.955 -16.282 -24.830  0.00  0.00    +0.155 C 
ATOM     14  C   UNL     1      32.102 -11.995 -25.731  0.00  0.00    +0.054 C 
ENDROOT
BRANCH   8  16
ATOM     15  F   UNL     1      30.587 -10.162 -22.372  0.00  0.00    -0.204 F 
ATOM     16  C   UNL     1      32.843 -10.628 -22.951  0.00  0.00    +0.045 C 
ATOM     17  C   UNL     1      31.769  -9.749 -22.850  0.00  0.00    +0.142 C 
ATOM     18  C   UNL     1      34.068 -10.191 -23.450  0.00  0.00    +0.004 C 
ATOM     19  C   UNL     1      31.919  -8.421 -23.254  0.00  0.00    +0.030 C 
ATOM     20  C   UNL     1      34.218  -8.864 -23.853  0.00  0.00    +0.000 C 
ATOM     21  C   UNL     1      33.144  -7.979 -23.755  0.00  0.00    +0.002 C 
ENDBRANCH   8  16
TORSDOF 1
ENDMDL
MODEL 6
REMARK VINA RESULT:      -7.7     15.052     17.481
REMARK  Name = 35775
REMARK  1 active torsions:
REMARK  status: ('A' for Active; 'I' for Inactive)
REMARK    1  A    between atoms: C_8  and  C_16
REMARK                            x       y       z     vdW  Elec       q    Type
REMARK                         _______ _______ _______ _____ _____    ______ ____
ROOT
ATOM      1  O   UNL     1      31.340  -6.042 -24.772  0.00  0.00    -0.272 OA
ATOM      2  N   UNL     1      31.684  -6.077 -22.470  0.00  0.00    -0.241 N 
ATOM      3  N   UNL     1      31.945  -6.439 -20.090  0.00  0.00    -0.236 N 
ATOM      4  N   UNL     1      31.872  -7.373 -19.131  0.00  0.00    -0.172 NA
ATOM      5  N   UNL     1      30.696  -8.917 -23.388  0.00  0.00    -0.260 NA
ATOM      6  C   UNL     1      31.672  -6.904 -21.348  0.00  0.00    +0.137 A 
ATOM      7  C   UNL     1      31.484  -8.267 -21.208  0.00  0.00    +0.064 A 
ATOM      8  C   UNL     1      31.292  -9.222 -22.286  0.00  0.00    +0.083 C 
ATOM      9  C   UNL     1      31.602  -8.487 -19.813  0.00  0.00    +0.083 A 
ATOM     10  C   UNL     1      31.112  -6.532 -23.664  0.00  0.00    +0.255 C 
ATOM     11  C   UNL     1      30.063  -7.617 -23.531  0.00  0.00    +0.210 C 
ATOM     12  C   UNL     1      32.332  -4.768 -22.442  0.00  0.00    +0.122 C 
ATOM     13  C   UNL     1      32.167  -5.083 -19.636  0.00  0.00    +0.155 C 
ATOM     14  C   UNL     1      31.472  -9.755 -19.073  0.00  0.00    +0.054 C 
ENDROOT
BRANCH   8  16
ATOM     15  F   UNL     1      33.646 -10.108 -23.564  0.00  0.00    -0.204 F 
ATOM     16  C   UNL     1      31.822 -10.599 -22.125  0.00  0.00    +0.045 C 
ATOM     17  C   UNL     1      32.990 -10.975 -22.782  0.00  0.00    +0.142 C 
ATOM     18  C   UNL     1      31.145 -11.507 -21.314  0.00  0.00    +0.004 C 
ATOM     19  C   UNL     1      33.485 -12.271 -22.628  0.00  0.00    +0.030 C 
ATOM     20  C   UNL     1      31.641 -12.801 -21.160  0.00  0.00    +0.000 C 
ATOM     21  C   UNL     1      32.810 -13.184 -21.817  0.00  0.00    +0.002 C 
ENDBRANCH   8  16
TORSDOF 1
ENDMDL
MODEL 7
REMARK VINA RESULT:      -7.6     18.881     21.223
REMARK  Name = 35775
REMARK  1 active torsions:
REMARK  status: ('A' for Active; 'I' for Inactive)
REMARK    1  A    between atoms: C_8  and  C_16
REMARK                            x       y       z     vdW  Elec       q    Type
REMARK                         _______ _______ _______ _____ _____    ______ ____
ROOT
ATOM      1  O   UNL     1      29.422  -1.951 -24.337  0.00  0.00    -0.272 OA
ATOM      2  N   UNL     1      31.499  -2.823 -24.924  0.00  0.00    -0.241 N 
ATOM      3  N   UNL     1      33.641  -3.906 -25.244  0.00  0.00    -0.236 N 
ATOM      4  N   UNL     1      34.476  -4.812 -24.716  0.00  0.00    -0.172 NA
ATOM      5  N   UNL     1      30.632  -4.049 -22.161  0.00  0.00    -0.260 NA
ATOM      6  C   UNL     1      32.482  -3.733 -24.538  0.00  0.00    +0.137 A 
ATOM      7  C   UNL     1      32.530  -4.658 -23.510  0.00  0.00    +0.064 A 
ATOM      8  C   UNL     1      31.467  -4.945 -22.563  0.00  0.00    +0.083 C 
ATOM      9  C   UNL     1      33.795  -5.277 -23.667  0.00  0.00    +0.083 A 
ATOM     10  C   UNL     1      30.491  -2.475 -24.016  0.00  0.00    +0.255 C 
ATOM     11  C   UNL     1      30.820  -2.662 -22.550  0.00  0.00    +0.210 C 
ATOM     12  C   UNL     1      31.466  -2.268 -26.275  0.00  0.00    +0.122 C 
ATOM     13  C   UNL     1      34.145  -3.171 -26.384  0.00  0.00    +0.155 C 
ATOM     14  C   UNL     1      34.405  -6.334 -22.840  0.00  0.00    +0.054 C 
ENDROOT
BRANCH   8  16
ATOM     15  F   UNL     1      32.062  -5.659 -19.898  0.00  0.00    -0.204 F 
ATOM     16  C   UNL     1      31.319  -6.331 -22.052  0.00  0.00    +0.045 C 
ATOM     17  C   UNL     1      31.628  -6.620 -20.726  0.00  0.00    +0.142 C 
ATOM     18  C   UNL     1      30.869  -7.335 -22.906  0.00  0.00    +0.004 C 
ATOM     19  C   UNL     1      31.487  -7.924 -20.249  0.00  0.00    +0.030 C 
ATOM     20  C   UNL     1      30.728  -8.638 -22.429  0.00  0.00    +0.000 C 
ATOM     21  C   UNL     1      31.037  -8.933 -21.101  0.00  0.00    +0.002 C 
ENDBRANCH   8  16
TORSDOF 1
ENDMDL
MODEL 8
REMARK VINA RESULT:      -7.5     18.898     21.216
REMARK  Name = 35775
REMARK  1 active torsions:
REMARK  status: ('A' for Active; 'I' for Inactive)
REMARK    1  A    between atoms: C_8  and  C_16
REMARK                            x       y       z     vdW  Elec       q    Type
REMARK                         _______ _______ _______ _____ _____    ______ ____
ROOT
ATOM      1  O   UNL     1      29.422  -1.944 -24.316  0.00  0.00    -0.272 OA
ATOM      2  N   UNL     1      31.504  -2.806 -24.901  0.00  0.00    -0.241 N 
ATOM      3  N   UNL     1      33.650  -3.882 -25.223  0.00  0.00    -0.236 N 
ATOM      4  N   UNL     1      34.482  -4.796 -24.702  0.00  0.00    -0.172 NA
ATOM      5  N   UNL     1      30.618  -4.076 -22.165  0.00  0.00    -0.260 NA
ATOM      6  C   UNL     1      32.485  -3.721 -24.522  0.00  0.00    +0.137 A 
ATOM      7  C   UNL     1      32.527  -4.662 -23.509  0.00  0.00    +0.064 A 
ATOM      8  C   UNL     1      31.457  -4.965 -22.574  0.00  0.00    +0.083 C 
ATOM      9  C   UNL     1      33.793  -5.277 -23.667  0.00  0.00    +0.083 A 
ATOM     10  C   UNL     1      30.490  -2.473 -23.995  0.00  0.00    +0.255 C 
ATOM     11  C   UNL     1      30.807  -2.682 -22.530  0.00  0.00    +0.210 C 
ATOM     12  C   UNL     1      31.481  -2.229 -26.243  0.00  0.00    +0.122 C 
ATOM     13  C   UNL     1      34.161  -3.128 -26.347  0.00  0.00    +0.155 C 
ATOM     14  C   UNL     1      34.398  -6.347 -22.852  0.00  0.00    +0.054 C 
ENDROOT
BRANCH   8  16
ATOM     15  F   UNL     1      30.580  -7.074 -24.232  0.00  0.00    -0.204 F 
ATOM     16  C   UNL     1      31.306  -6.359 -22.087  0.00  0.00    +0.045 C 
ATOM     17  C   UNL     1      30.870  -7.356 -22.954  0.00  0.00    +0.142 C 
ATOM     18  C   UNL     1      31.605  -6.660 -20.760  0.00  0.00    +0.004 C 
ATOM     19  C   UNL     1      30.729  -8.665 -22.492  0.00  0.00    +0.030 C 
ATOM     20  C   UNL     1      31.464  -7.968 -20.298  0.00  0.00    +0.000 C 
ATOM     21  C   UNL     1      31.027  -8.971 -21.163  0.00  0.00    +0.002 C 
ENDBRANCH   8  16
TORSDOF 1
ENDMDL
MODEL 9
REMARK VINA RESULT:      -7.4      2.570      5.164
REMARK  Name = 35775
REMARK  1 active torsions:
REMARK  status: ('A' for Active; 'I' for Inactive)
REMARK    1  A    between atoms: C_8  and  C_16
REMARK                            x       y       z     vdW  Elec       q    Type
REMARK                         _______ _______ _______ _____ _____    ______ ____
ROOT
ATOM      1  O   UNL     1      37.627 -22.913 -13.865  0.00  0.00    -0.272 OA
ATOM      2  N   UNL     1      36.379 -22.286 -15.727  0.00  0.00    -0.241 N 
ATOM      3  N   UNL     1      34.837 -21.836 -17.540  0.00  0.00    -0.236 N 
ATOM      4  N   UNL     1      33.596 -22.087 -17.983  0.00  0.00    -0.172 NA
ATOM      5  N   UNL     1      34.680 -24.292 -14.001  0.00  0.00    -0.260 NA
ATOM      6  C   UNL     1      35.133 -22.421 -16.339  0.00  0.00    +0.137 A 
ATOM      7  C   UNL     1      33.965 -23.038 -15.926  0.00  0.00    +0.064 A 
ATOM      8  C   UNL     1      33.743 -23.687 -14.647  0.00  0.00    +0.083 C 
ATOM      9  C   UNL     1      33.064 -22.809 -16.995  0.00  0.00    +0.083 A 
ATOM     10  C   UNL     1      36.720 -23.138 -14.670  0.00  0.00    +0.255 C 
ATOM     11  C   UNL     1      35.986 -24.462 -14.615  0.00  0.00    +0.210 C 
ATOM     12  C   UNL     1      37.312 -21.238 -16.130  0.00  0.00    +0.122 C 
ATOM     13  C   UNL     1      35.697 -21.109 -18.448  0.00  0.00    +0.155 C 
ATOM     14  C   UNL     1      31.664 -23.255 -17.123  0.00  0.00    +0.054 C 
ENDROOT
BRANCH   8  16
ATOM     15  F   UNL     1      32.353 -21.268 -14.224  0.00  0.00    -0.204 F 
ATOM     16  C   UNL     1      32.387 -23.636 -14.044  0.00  0.00    +0.045 C 
ATOM     17  C   UNL     1      31.753 -22.410 -13.862  0.00  0.00    +0.142 C 
ATOM     18  C   UNL     1      31.757 -24.819 -13.664  0.00  0.00    +0.004 C 
ATOM     19  C   UNL     1      30.479 -22.366 -13.295  0.00  0.00    +0.030 C 
ATOM     20  C   UNL     1      30.484 -24.774 -13.098  0.00  0.00    +0.000 C 
ATOM     21  C   UNL     1      29.844 -23.548 -12.913  0.00  0.00    +0.002 C 
ENDBRANCH   8  16
TORSDOF 1
ENDMDL
