MODEL 1
REMARK VINA RESULT:     -13.7      0.000      0.000
REMARK  Name = 24779724
REMARK  3 active torsions:
REMARK  status: ('A' for Active; 'I' for Inactive)
REMARK    1  A    between atoms: C_5  and  C_12
REMARK    2  A    between atoms: C_7  and  S_16
REMARK    3  A    between atoms: S_16  and  C_19
REMARK                            x       y       z     vdW  Elec       q    Type
REMARK                         _______ _______ _______ _____ _____    ______ ____
ROOT
ATOM      1  N   UNL     1      34.056 -21.340 -18.559  0.00  0.00    -0.186 N 
ATOM      2  N   UNL     1      35.095 -21.677 -17.756  0.00  0.00    -0.162 NA
ATOM      3  N   UNL     1      32.032 -21.162 -19.393  0.00  0.00    -0.126 NA
ATOM      4  N   UNL     1      32.903 -20.462 -20.203  0.00  0.00    -0.120 NA
ATOM      5  C   UNL     1      34.753 -22.409 -16.733  0.00  0.00    +0.104 C 
ATOM      6  C   UNL     1      32.734 -21.685 -18.409  0.00  0.00    +0.187 A 
ATOM      7  C   UNL     1      34.107 -20.580 -19.692  0.00  0.00    +0.217 A 
ATOM      8  C   UNL     1      33.356 -22.875 -16.453  0.00  0.00    +0.024 C 
ATOM      9  C   UNL     1      32.396 -22.491 -17.305  0.00  0.00    +0.042 C 
ENDROOT
BRANCH   5  12
ATOM     10  N   UNL     1      36.876 -23.884 -14.182  0.00  0.00    -0.208 N 
ATOM     11  N   UNL     1      37.774 -22.990 -14.630  0.00  0.00    -0.176 NA
ATOM     12  C   UNL     1      35.802 -22.840 -15.773  0.00  0.00    +0.056 C 
ATOM     13  C   UNL     1      35.678 -23.834 -14.834  0.00  0.00    +0.087 C 
ATOM     14  C   UNL     1      37.113 -22.356 -15.602  0.00  0.00    +0.121 C 
ATOM     15  C   UNL     1      37.228 -24.777 -13.105  0.00  0.00    +0.140 C 
ENDBRANCH   5  12
BRANCH   7  16
ATOM     16  S   UNL     1      35.615 -19.873 -20.338  0.00  0.00    -0.051 S 
BRANCH  16  19
ATOM     17  N   UNL     1      33.491 -16.379 -24.658  0.00  0.00    -0.248 NA
ATOM     18  C   UNL     1      34.432 -16.603 -22.452  0.00  0.00    -0.003 C 
ATOM     19  C   UNL     1      34.981 -18.818 -21.626  0.00  0.00    +0.011 C 
ATOM     20  C   UNL     1      33.976 -17.151 -23.669  0.00  0.00    +0.060 C 
ATOM     21  C   UNL     1      34.931 -17.439 -21.440  0.00  0.00    +0.060 C 
ATOM     22  C   UNL     1      34.533 -19.365 -22.821  0.00  0.00    -0.017 C 
ATOM     23  C   UNL     1      34.036 -18.533 -23.827  0.00  0.00    +0.072 C 
ATOM     24  C   UNL     1      34.370 -15.212 -22.292  0.00  0.00    -0.001 C 
ATOM     25  C   UNL     1      33.872 -14.413 -23.310  0.00  0.00    +0.020 C 
ATOM     26  C   UNL     1      33.448 -15.041 -24.464  0.00  0.00    +0.098 C 
ENDBRANCH  16  19
ENDBRANCH   7  16
TORSDOF 3
ENDMDL
MODEL 2
REMARK VINA RESULT:     -12.5      0.927      1.600
REMARK  Name = 24779724
REMARK  3 active torsions:
REMARK  status: ('A' for Active; 'I' for Inactive)
REMARK    1  A    between atoms: C_5  and  C_12
REMARK    2  A    between atoms: C_7  and  S_16
REMARK    3  A    between atoms: S_16  and  C_19
REMARK                            x       y       z     vdW  Elec       q    Type
REMARK                         _______ _______ _______ _____ _____    ______ ____
ROOT
ATOM      1  N   UNL     1      33.985 -21.738 -18.109  0.00  0.00    -0.186 N 
ATOM      2  N   UNL     1      34.991 -22.139 -17.292  0.00  0.00    -0.162 NA
ATOM      3  N   UNL     1      31.983 -21.383 -18.937  0.00  0.00    -0.126 NA
ATOM      4  N   UNL     1      32.916 -20.843 -19.800  0.00  0.00    -0.120 NA
ATOM      5  C   UNL     1      34.582 -22.757 -16.220  0.00  0.00    +0.104 C 
ATOM      6  C   UNL     1      32.634 -21.917 -17.926  0.00  0.00    +0.187 A 
ATOM      7  C   UNL     1      34.106 -21.066 -19.291  0.00  0.00    +0.217 A 
ATOM      8  C   UNL     1      33.145 -23.039 -15.899  0.00  0.00    +0.024 C 
ATOM      9  C   UNL     1      32.223 -22.604 -16.767  0.00  0.00    +0.042 C 
ENDROOT
BRANCH   5  12
ATOM     10  N   UNL     1      36.590 -24.368 -13.658  0.00  0.00    -0.208 N 
ATOM     11  N   UNL     1      37.514 -23.465 -14.031  0.00  0.00    -0.176 NA
ATOM     12  C   UNL     1      35.589 -23.242 -15.241  0.00  0.00    +0.056 C 
ATOM     13  C   UNL     1      35.419 -24.275 -14.352  0.00  0.00    +0.087 C 
ATOM     14  C   UNL     1      36.897 -22.781 -14.998  0.00  0.00    +0.121 C 
ATOM     15  C   UNL     1      36.893 -25.312 -12.610  0.00  0.00    +0.140 C 
ENDBRANCH   5  12
BRANCH   7  16
ATOM     16  S   UNL     1      35.675 -20.582 -19.994  0.00  0.00    -0.051 S 
BRANCH  16  19
ATOM     17  N   UNL     1      34.076 -15.953 -23.371  0.00  0.00    -0.248 NA
ATOM     18  C   UNL     1      34.117 -18.335 -23.008  0.00  0.00    -0.003 C 
ATOM     19  C   UNL     1      35.191 -19.203 -21.012  0.00  0.00    +0.011 C 
ATOM     20  C   UNL     1      34.428 -17.014 -22.621  0.00  0.00    +0.060 C 
ATOM     21  C   UNL     1      34.501 -19.419 -22.201  0.00  0.00    +0.060 C 
ATOM     22  C   UNL     1      35.501 -17.906 -20.626  0.00  0.00    -0.017 C 
ATOM     23  C   UNL     1      35.120 -16.827 -21.427  0.00  0.00    +0.072 C 
ATOM     24  C   UNL     1      33.421 -18.523 -24.209  0.00  0.00    -0.001 C 
ATOM     25  C   UNL     1      33.057 -17.431 -24.984  0.00  0.00    +0.020 C 
ATOM     26  C   UNL     1      33.405 -16.178 -24.523  0.00  0.00    +0.098 C 
ENDBRANCH  16  19
ENDBRANCH   7  16
TORSDOF 3
ENDMDL
MODEL 3
REMARK VINA RESULT:     -11.6      2.699      4.044
REMARK  Name = 24779724
REMARK  3 active torsions:
REMARK  status: ('A' for Active; 'I' for Inactive)
REMARK    1  A    between atoms: C_5  and  C_12
REMARK    2  A    between atoms: C_7  and  S_16
REMARK    3  A    between atoms: S_16  and  C_19
REMARK                            x       y       z     vdW  Elec       q    Type
REMARK                         _______ _______ _______ _____ _____    ______ ____
ROOT
ATOM      1  N   UNL     1      33.438 -23.326 -15.825  0.00  0.00    -0.186 N 
ATOM      2  N   UNL     1      34.594 -24.034 -15.829  0.00  0.00    -0.162 NA
ATOM      3  N   UNL     1      31.690 -22.185 -15.143  0.00  0.00    -0.126 NA
ATOM      4  N   UNL     1      31.638 -22.285 -16.519  0.00  0.00    -0.120 NA
ATOM      5  C   UNL     1      35.100 -24.222 -14.643  0.00  0.00    +0.104 C 
ATOM      6  C   UNL     1      32.773 -22.813 -14.737  0.00  0.00    +0.187 A 
ATOM      7  C   UNL     1      32.689 -22.970 -16.909  0.00  0.00    +0.217 A 
ATOM      8  C   UNL     1      34.477 -23.737 -13.369  0.00  0.00    +0.024 C 
ATOM      9  C   UNL     1      33.334 -23.046 -13.466  0.00  0.00    +0.042 C 
ENDROOT
BRANCH   5  12
ATOM     10  N   UNL     1      38.483 -25.495 -14.285  0.00  0.00    -0.208 N 
ATOM     11  N   UNL     1      37.879 -26.692 -14.383  0.00  0.00    -0.176 NA
ATOM     12  C   UNL     1      36.371 -24.980 -14.515  0.00  0.00    +0.056 C 
ATOM     13  C   UNL     1      37.623 -24.437 -14.359  0.00  0.00    +0.087 C 
ATOM     14  C   UNL     1      36.590 -26.371 -14.523  0.00  0.00    +0.121 C 
ATOM     15  C   UNL     1      39.915 -25.425 -14.119  0.00  0.00    +0.140 C 
ENDBRANCH   5  12
BRANCH   7  16
ATOM     16  S   UNL     1      33.120 -23.397 -18.589  0.00  0.00    -0.051 S 
BRANCH  16  19
ATOM     17  N   UNL     1      36.352 -18.666 -20.188  0.00  0.00    -0.248 NA
ATOM     18  C   UNL     1      34.373 -20.012 -20.468  0.00  0.00    -0.003 C 
ATOM     19  C   UNL     1      34.080 -21.978 -19.075  0.00  0.00    +0.011 C 
ATOM     20  C   UNL     1      35.605 -19.731 -19.841  0.00  0.00    +0.060 C 
ATOM     21  C   UNL     1      33.619 -21.133 -20.080  0.00  0.00    +0.060 C 
ATOM     22  C   UNL     1      35.292 -21.708 -18.454  0.00  0.00    -0.017 C 
ATOM     23  C   UNL     1      36.042 -20.594 -18.839  0.00  0.00    +0.072 C 
ATOM     24  C   UNL     1      33.934 -19.144 -21.476  0.00  0.00    -0.001 C 
ATOM     25  C   UNL     1      34.701 -18.046 -21.836  0.00  0.00    +0.020 C 
ATOM     26  C   UNL     1      35.892 -17.854 -21.167  0.00  0.00    +0.098 C 
ENDBRANCH  16  19
ENDBRANCH   7  16
TORSDOF 3
ENDMDL
MODEL 4
REMARK VINA RESULT:     -11.6      5.775     12.180
REMARK  Name = 24779724
REMARK  3 active torsions:
REMARK  status: ('A' for Active; 'I' for Inactive)
REMARK    1  A    between atoms: C_5  and  C_12
REMARK    2  A    between atoms: C_7  and  S_16
REMARK    3  A    between atoms: S_16  and  C_19
REMARK                            x       y       z     vdW  Elec       q    Type
REMARK                         _______ _______ _______ _____ _____    ______ ____
ROOT
ATOM      1  N   UNL     1      32.032 -11.130 -22.123  0.00  0.00    -0.186 N 
ATOM      2  N   UNL     1      32.089 -10.022 -22.902  0.00  0.00    -0.162 NA
ATOM      3  N   UNL     1      31.628 -12.483 -20.441  0.00  0.00    -0.126 NA
ATOM      4  N   UNL     1      32.263 -13.199 -21.435  0.00  0.00    -0.120 NA
ATOM      5  C   UNL     1      31.556  -8.966 -22.354  0.00  0.00    +0.104 C 
ATOM      6  C   UNL     1      31.494 -11.243 -20.863  0.00  0.00    +0.187 A 
ATOM      7  C   UNL     1      32.499 -12.376 -22.432  0.00  0.00    +0.217 A 
ATOM      8  C   UNL     1      30.949  -8.937 -20.983  0.00  0.00    +0.024 C 
ATOM      9  C   UNL     1      30.940 -10.082 -20.289  0.00  0.00    +0.042 C 
ENDROOT
BRANCH   5  12
ATOM     10  N   UNL     1      32.173  -5.826 -24.069  0.00  0.00    -0.208 N 
ATOM     11  N   UNL     1      30.856  -5.885 -24.329  0.00  0.00    -0.176 NA
ATOM     12  C   UNL     1      31.551  -7.688 -23.110  0.00  0.00    +0.056 C 
ATOM     13  C   UNL     1      32.639  -6.882 -23.341  0.00  0.00    +0.087 C 
ATOM     14  C   UNL     1      30.481  -7.024 -23.742  0.00  0.00    +0.121 C 
ATOM     15  C   UNL     1      32.951  -4.710 -24.553  0.00  0.00    +0.140 C 
ENDBRANCH   5  12
BRANCH   7  16
ATOM     16  S   UNL     1      33.301 -12.773 -23.977  0.00  0.00    -0.051 S 
BRANCH  16  19
ATOM     17  N   UNL     1      34.277 -18.607 -23.348  0.00  0.00    -0.248 NA
ATOM     18  C   UNL     1      34.424 -16.375 -22.452  0.00  0.00    -0.003 C 
ATOM     19  C   UNL     1      33.597 -14.518 -23.778  0.00  0.00    +0.011 C 
ATOM     20  C   UNL     1      34.064 -17.284 -23.470  0.00  0.00    +0.060 C 
ATOM     21  C   UNL     1      34.188 -15.000 -22.614  0.00  0.00    +0.060 C 
ATOM     22  C   UNL     1      33.241 -15.407 -24.784  0.00  0.00    -0.017 C 
ATOM     23  C   UNL     1      33.476 -16.774 -24.624  0.00  0.00    +0.072 C 
ATOM     24  C   UNL     1      35.016 -16.888 -21.291  0.00  0.00    -0.001 C 
ATOM     25  C   UNL     1      35.236 -18.251 -21.162  0.00  0.00    +0.020 C 
ATOM     26  C   UNL     1      34.851 -19.061 -22.211  0.00  0.00    +0.098 C 
ENDBRANCH  16  19
ENDBRANCH   7  16
TORSDOF 3
ENDMDL
MODEL 5
REMARK VINA RESULT:     -11.6      2.372      9.343
REMARK  Name = 24779724
REMARK  3 active torsions:
REMARK  status: ('A' for Active; 'I' for Inactive)
REMARK    1  A    between atoms: C_5  and  C_12
REMARK    2  A    between atoms: C_7  and  S_16
REMARK    3  A    between atoms: S_16  and  C_19
REMARK                            x       y       z     vdW  Elec       q    Type
REMARK                         _______ _______ _______ _____ _____    ______ ____
ROOT
ATOM      1  N   UNL     1      34.702 -19.672 -20.485  0.00  0.00    -0.186 N 
ATOM      2  N   UNL     1      34.007 -19.052 -21.471  0.00  0.00    -0.162 NA
ATOM      3  N   UNL     1      36.333 -20.292 -19.151  0.00  0.00    -0.126 NA
ATOM      4  N   UNL     1      35.185 -20.962 -18.780  0.00  0.00    -0.120 NA
ATOM      5  C   UNL     1      34.722 -18.222 -22.177  0.00  0.00    +0.104 C 
ATOM      6  C   UNL     1      36.033 -19.521 -20.175  0.00  0.00    +0.187 A 
ATOM      7  C   UNL     1      34.221 -20.582 -19.588  0.00  0.00    +0.217 A 
ATOM      8  C   UNL     1      36.184 -17.970 -21.964  0.00  0.00    +0.024 C 
ATOM      9  C   UNL     1      36.785 -18.630 -20.966  0.00  0.00    +0.042 C 
ENDROOT
BRANCH   5  12
ATOM     10  N   UNL     1      33.396 -15.876 -24.610  0.00  0.00    -0.208 N 
ATOM     11  N   UNL     1      32.862 -16.981 -25.158  0.00  0.00    -0.176 NA
ATOM     12  C   UNL     1      34.072 -17.476 -23.285  0.00  0.00    +0.056 C 
ATOM     13  C   UNL     1      34.129 -16.118 -23.485  0.00  0.00    +0.087 C 
ATOM     14  C   UNL     1      33.279 -17.955 -24.345  0.00  0.00    +0.121 C 
ATOM     15  C   UNL     1      33.163 -14.589 -25.220  0.00  0.00    +0.140 C 
ENDBRANCH   5  12
BRANCH   7  16
ATOM     16  S   UNL     1      32.523 -21.135 -19.558  0.00  0.00    -0.051 S 
BRANCH  16  19
ATOM     17  N   UNL     1      32.285 -23.777 -14.234  0.00  0.00    -0.248 NA
ATOM     18  C   UNL     1      31.160 -22.622 -16.024  0.00  0.00    -0.003 C 
ATOM     19  C   UNL     1      32.441 -21.925 -17.964  0.00  0.00    +0.011 C 
ATOM     20  C   UNL     1      32.317 -23.176 -15.438  0.00  0.00    +0.060 C 
ATOM     21  C   UNL     1      31.230 -22.001 -17.282  0.00  0.00    +0.060 C 
ATOM     22  C   UNL     1      33.584 -22.467 -17.392  0.00  0.00    -0.017 C 
ATOM     23  C   UNL     1      33.515 -23.085 -16.141  0.00  0.00    +0.072 C 
ATOM     24  C   UNL     1      29.954 -22.713 -15.316  0.00  0.00    -0.001 C 
ATOM     25  C   UNL     1      29.918 -23.332 -14.075  0.00  0.00    +0.020 C 
ATOM     26  C   UNL     1      31.102 -23.844 -13.583  0.00  0.00    +0.098 C 
ENDBRANCH  16  19
ENDBRANCH   7  16
TORSDOF 3
ENDMDL
MODEL 6
REMARK VINA RESULT:     -11.5      6.613     13.128
REMARK  Name = 24779724
REMARK  3 active torsions:
REMARK  status: ('A' for Active; 'I' for Inactive)
REMARK    1  A    between atoms: C_5  and  C_12
REMARK    2  A    between atoms: C_7  and  S_16
REMARK    3  A    between atoms: S_16  and  C_19
REMARK                            x       y       z     vdW  Elec       q    Type
REMARK                         _______ _______ _______ _____ _____    ______ ____
ROOT
ATOM      1  N   UNL     1      32.006  -9.554 -22.230  0.00  0.00    -0.186 N 
ATOM      2  N   UNL     1      32.630  -8.703 -23.082  0.00  0.00    -0.162 NA
ATOM      3  N   UNL     1      30.838 -10.338 -20.543  0.00  0.00    -0.126 NA
ATOM      4  N   UNL     1      31.260 -11.401 -21.315  0.00  0.00    -0.120 NA
ATOM      5  C   UNL     1      32.504  -7.447 -22.757  0.00  0.00    +0.104 C 
ATOM      6  C   UNL     1      31.290  -9.234 -21.100  0.00  0.00    +0.187 A 
ATOM      7  C   UNL     1      31.958 -10.915 -22.317  0.00  0.00    +0.217 A 
ATOM      8  C   UNL     1      31.770  -6.953 -21.547  0.00  0.00    +0.024 C 
ATOM      9  C   UNL     1      31.187  -7.870 -20.764  0.00  0.00    +0.042 C 
ENDROOT
BRANCH   5  12
ATOM     10  N   UNL     1      34.264  -5.424 -25.206  0.00  0.00    -0.208 N 
ATOM     11  N   UNL     1      33.814  -4.401 -24.459  0.00  0.00    -0.176 NA
ATOM     12  C   UNL     1      33.138  -6.415 -23.617  0.00  0.00    +0.056 C 
ATOM     13  C   UNL     1      33.887  -6.651 -24.743  0.00  0.00    +0.087 C 
ATOM     14  C   UNL     1      33.127  -5.012 -23.490  0.00  0.00    +0.121 C 
ATOM     15  C   UNL     1      35.067  -5.158 -26.375  0.00  0.00    +0.140 C 
ENDBRANCH   5  12
BRANCH   7  16
ATOM     16  S   UNL     1      32.743 -11.848 -23.623  0.00  0.00    -0.051 S 
BRANCH  16  19
ATOM     17  N   UNL     1      34.706 -16.583 -20.605  0.00  0.00    -0.248 NA
ATOM     18  C   UNL     1      34.178 -15.546 -22.714  0.00  0.00    -0.003 C 
ATOM     19  C   UNL     1      33.333 -13.271 -22.729  0.00  0.00    +0.011 C 
ATOM     20  C   UNL     1      34.265 -15.523 -21.307  0.00  0.00    +0.060 C 
ATOM     21  C   UNL     1      33.713 -14.421 -23.415  0.00  0.00    +0.060 C 
ATOM     22  C   UNL     1      33.416 -13.241 -21.343  0.00  0.00    -0.017 C 
ATOM     23  C   UNL     1      33.878 -14.360 -20.646  0.00  0.00    +0.072 C 
ATOM     24  C   UNL     1      34.567 -16.716 -23.380  0.00  0.00    -0.001 C 
ATOM     25  C   UNL     1      35.022 -17.811 -22.659  0.00  0.00    +0.020 C 
ATOM     26  C   UNL     1      35.072 -17.693 -21.285  0.00  0.00    +0.098 C 
ENDBRANCH  16  19
ENDBRANCH   7  16
TORSDOF 3
ENDMDL
MODEL 7
REMARK VINA RESULT:     -11.3      2.111      9.301
REMARK  Name = 24779724
REMARK  3 active torsions:
REMARK  status: ('A' for Active; 'I' for Inactive)
REMARK    1  A    between atoms: C_5  and  C_12
REMARK    2  A    between atoms: C_7  and  S_16
REMARK    3  A    between atoms: S_16  and  C_19
REMARK                            x       y       z     vdW  Elec       q    Type
REMARK                         _______ _______ _______ _____ _____    ______ ____
ROOT
ATOM      1  N   UNL     1      34.701 -19.742 -20.432  0.00  0.00    -0.186 N 
ATOM      2  N   UNL     1      34.011 -19.129 -21.426  0.00  0.00    -0.162 NA
ATOM      3  N   UNL     1      36.320 -20.341 -19.074  0.00  0.00    -0.126 NA
ATOM      4  N   UNL     1      35.177 -21.030 -18.724  0.00  0.00    -0.120 NA
ATOM      5  C   UNL     1      34.724 -18.285 -22.117  0.00  0.00    +0.104 C 
ATOM      6  C   UNL     1      36.024 -19.570 -20.100  0.00  0.00    +0.187 A 
ATOM      7  C   UNL     1      34.220 -20.662 -19.545  0.00  0.00    +0.217 A 
ATOM      8  C   UNL     1      36.179 -18.010 -21.881  0.00  0.00    +0.024 C 
ATOM      9  C   UNL     1      36.774 -18.665 -20.875  0.00  0.00    +0.042 C 
ENDROOT
BRANCH   5  12
ATOM     10  N   UNL     1      33.413 -15.951 -24.571  0.00  0.00    -0.208 N 
ATOM     11  N   UNL     1      32.878 -17.059 -25.113  0.00  0.00    -0.176 NA
ATOM     12  C   UNL     1      34.081 -17.544 -23.232  0.00  0.00    +0.056 C 
ATOM     13  C   UNL     1      34.142 -16.188 -23.443  0.00  0.00    +0.087 C 
ATOM     14  C   UNL     1      33.289 -18.028 -24.292  0.00  0.00    +0.121 C 
ATOM     15  C   UNL     1      33.186 -14.668 -25.191  0.00  0.00    +0.140 C 
ENDBRANCH   5  12
BRANCH   7  16
ATOM     16  S   UNL     1      32.531 -21.243 -19.545  0.00  0.00    -0.051 S 
BRANCH  16  19
ATOM     17  N   UNL     1      32.067 -23.583 -14.096  0.00  0.00    -0.248 NA
ATOM     18  C   UNL     1      33.442 -22.984 -15.982  0.00  0.00    -0.003 C 
ATOM     19  C   UNL     1      32.403 -21.944 -17.913  0.00  0.00    +0.011 C 
ATOM     20  C   UNL     1      32.194 -23.057 -15.328  0.00  0.00    +0.060 C 
ATOM     21  C   UNL     1      33.538 -22.429 -17.269  0.00  0.00    +0.060 C 
ATOM     22  C   UNL     1      31.171 -22.014 -17.276  0.00  0.00    -0.017 C 
ATOM     23  C   UNL     1      31.076 -22.566 -15.997  0.00  0.00    +0.072 C 
ATOM     24  C   UNL     1      34.568 -23.479 -15.310  0.00  0.00    -0.001 C 
ATOM     25  C   UNL     1      34.440 -24.021 -14.039  0.00  0.00    +0.020 C 
ATOM     26  C   UNL     1      33.178 -24.049 -13.482  0.00  0.00    +0.098 C 
ENDBRANCH  16  19
ENDBRANCH   7  16
TORSDOF 3
ENDMDL
MODEL 8
REMARK VINA RESULT:     -11.2      1.959      9.446
REMARK  Name = 24779724
REMARK  3 active torsions:
REMARK  status: ('A' for Active; 'I' for Inactive)
REMARK    1  A    between atoms: C_5  and  C_12
REMARK    2  A    between atoms: C_7  and  S_16
REMARK    3  A    between atoms: S_16  and  C_19
REMARK                            x       y       z     vdW  Elec       q    Type
REMARK                         _______ _______ _______ _____ _____    ______ ____
ROOT
ATOM      1  N   UNL     1      34.591 -21.469 -18.226  0.00  0.00    -0.186 N 
ATOM      2  N   UNL     1      35.102 -20.536 -19.067  0.00  0.00    -0.162 NA
ATOM      3  N   UNL     1      33.218 -22.895 -17.274  0.00  0.00    -0.126 NA
ATOM      4  N   UNL     1      34.416 -22.917 -16.590  0.00  0.00    -0.120 NA
ATOM      5  C   UNL     1      34.272 -20.154 -19.996  0.00  0.00    +0.104 C 
ATOM      6  C   UNL     1      33.332 -22.023 -18.254  0.00  0.00    +0.187 A 
ATOM      7  C   UNL     1      35.224 -22.059 -17.171  0.00  0.00    +0.217 A 
ATOM      8  C   UNL     1      32.866 -20.657 -20.137  0.00  0.00    +0.024 C 
ATOM      9  C   UNL     1      32.451 -21.578 -19.258  0.00  0.00    +0.042 C 
ENDROOT
BRANCH   5  12
ATOM     10  N   UNL     1      34.764 -17.729 -22.654  0.00  0.00    -0.208 N 
ATOM     11  N   UNL     1      35.996 -17.629 -22.127  0.00  0.00    -0.176 NA
ATOM     12  C   UNL     1      34.716 -19.137 -20.984  0.00  0.00    +0.056 C 
ATOM     13  C   UNL     1      33.959 -18.620 -22.006  0.00  0.00    +0.087 C 
ATOM     14  C   UNL     1      35.961 -18.491 -21.107  0.00  0.00    +0.121 C 
ATOM     15  C   UNL     1      34.409 -16.930 -23.802  0.00  0.00    +0.140 C 
ENDBRANCH   5  12
BRANCH   7  16
ATOM     16  S   UNL     1      36.904 -21.684 -16.694  0.00  0.00    -0.051 S 
BRANCH  16  19
ATOM     17  N   UNL     1      37.477 -24.908 -11.728  0.00  0.00    -0.248 NA
ATOM     18  C   UNL     1      36.323 -23.187 -12.957  0.00  0.00    -0.003 C 
ATOM     19  C   UNL     1      37.066 -22.644 -15.203  0.00  0.00    +0.011 C 
ATOM     20  C   UNL     1      37.330 -24.168 -12.843  0.00  0.00    +0.060 C 
ATOM     21  C   UNL     1      36.198 -22.433 -14.136  0.00  0.00    +0.060 C 
ATOM     22  C   UNL     1      38.061 -23.608 -15.097  0.00  0.00    -0.017 C 
ATOM     23  C   UNL     1      38.185 -24.358 -13.925  0.00  0.00    +0.072 C 
ATOM     24  C   UNL     1      35.463 -22.995 -11.868  0.00  0.00    -0.001 C 
ATOM     25  C   UNL     1      35.611 -23.756 -10.718  0.00  0.00    +0.020 C 
ATOM     26  C   UNL     1      36.626 -24.691 -10.699  0.00  0.00    +0.098 C 
ENDBRANCH  16  19
ENDBRANCH   7  16
TORSDOF 3
ENDMDL
MODEL 9
REMARK VINA RESULT:     -11.0      7.413     13.866
REMARK  Name = 24779724
REMARK  3 active torsions:
REMARK  status: ('A' for Active; 'I' for Inactive)
REMARK    1  A    between atoms: C_5  and  C_12
REMARK    2  A    between atoms: C_7  and  S_16
REMARK    3  A    between atoms: S_16  and  C_19
REMARK                            x       y       z     vdW  Elec       q    Type
REMARK                         _______ _______ _______ _____ _____    ______ ____
ROOT
ATOM      1  N   UNL     1      31.715  -8.219 -21.346  0.00  0.00    -0.186 N 
ATOM      2  N   UNL     1      31.835  -7.913 -22.661  0.00  0.00    -0.162 NA
ATOM      3  N   UNL     1      31.869  -8.124 -19.157  0.00  0.00    -0.126 NA
ATOM      4  N   UNL     1      31.175  -9.267 -19.498  0.00  0.00    -0.120 NA
ATOM      5  C   UNL     1      32.475  -6.800 -22.887  0.00  0.00    +0.104 C 
ATOM      6  C   UNL     1      32.189  -7.502 -20.272  0.00  0.00    +0.187 A 
ATOM      7  C   UNL     1      31.094  -9.309 -20.809  0.00  0.00    +0.217 A 
ATOM      8  C   UNL     1      33.061  -5.927 -21.818  0.00  0.00    +0.024 C 
ATOM      9  C   UNL     1      32.892  -6.313 -20.546  0.00  0.00    +0.042 C 
ENDROOT
BRANCH   5  12
ATOM     10  N   UNL     1      33.558  -5.614 -26.143  0.00  0.00    -0.208 N 
ATOM     11  N   UNL     1      32.271  -5.812 -26.474  0.00  0.00    -0.176 NA
ATOM     12  C   UNL     1      32.667  -6.352 -24.290  0.00  0.00    +0.056 C 
ATOM     13  C   UNL     1      33.847  -5.922 -24.846  0.00  0.00    +0.087 C 
ATOM     14  C   UNL     1      31.731  -6.263 -25.339  0.00  0.00    +0.121 C 
ATOM     15  C   UNL     1      34.485  -5.118 -27.133  0.00  0.00    +0.140 C 
ENDBRANCH   5  12
BRANCH   7  16
ATOM     16  S   UNL     1      30.300 -10.574 -21.789  0.00  0.00    -0.051 S 
BRANCH  16  19
ATOM     17  N   UNL     1      34.156 -15.066 -21.204  0.00  0.00    -0.248 NA
ATOM     18  C   UNL     1      32.889 -13.597 -22.634  0.00  0.00    -0.003 C 
ATOM     19  C   UNL     1      31.456 -11.919 -21.625  0.00  0.00    +0.011 C 
ATOM     20  C   UNL     1      33.286 -14.051 -21.359  0.00  0.00    +0.060 C 
ATOM     21  C   UNL     1      31.978 -12.536 -22.759  0.00  0.00    +0.060 C 
ATOM     22  C   UNL     1      31.841 -12.360 -20.366  0.00  0.00    -0.017 C 
ATOM     23  C   UNL     1      32.747 -13.416 -20.242  0.00  0.00    +0.072 C 
ATOM     24  C   UNL     1      33.431 -14.236 -23.758  0.00  0.00    -0.001 C 
ATOM     25  C   UNL     1      34.328 -15.282 -23.602  0.00  0.00    +0.020 C 
ATOM     26  C   UNL     1      34.655 -15.655 -22.314  0.00  0.00    +0.098 C 
ENDBRANCH  16  19
ENDBRANCH   7  16
TORSDOF 3
ENDMDL
