MODEL 1
REMARK VINA RESULT:     -11.2      0.000      0.000
REMARK  Name = 6540277
REMARK  8 active torsions:
REMARK  status: ('A' for Active; 'I' for Inactive)
REMARK    1  A    between atoms: N_1  and  C_22
REMARK    2  A    between atoms: C_2  and  O_8
REMARK    3  A    between atoms: O_8  and  C_9
REMARK    4  A    between atoms: C_9  and  C_10
REMARK    5  A    between atoms: C_9  and  C_16
REMARK    6  A    between atoms: C_22  and  C_23
REMARK    7  A    between atoms: C_23  and  C_24
REMARK    8  A    between atoms: C_24  and  C_29
REMARK                            x       y       z     vdW  Elec       q    Type
REMARK                         _______ _______ _______ _____ _____    ______ ____
ROOT
ATOM      1  N   UNL     1      34.445 -19.789 -20.705  0.00  0.00    +0.387 N 
ATOM      2  C   UNL     1      33.514 -22.034 -19.062  0.00  0.00    +0.112 C 
ATOM      3  C   UNL     1      32.556 -21.148 -19.857  0.00  0.00    +0.007 C 
ATOM      4  C   UNL     1      34.927 -21.970 -19.638  0.00  0.00    +0.007 C 
ATOM      5  C   UNL     1      33.117 -19.739 -20.079  0.00  0.00    -0.075 C 
ATOM      6  C   UNL     1      35.398 -20.531 -19.869  0.00  0.00    -0.075 C 
ATOM      7  H   UNL     1      34.356 -20.283 -21.593  0.00  0.00    -0.080 HD
ENDROOT
BRANCH   2   8
ATOM      8  O   UNL     1      33.525 -21.639 -17.691  0.00  0.00    -0.350 OA
BRANCH   8   9
ATOM      9  C   UNL     1      33.448 -22.764 -16.826  0.00  0.00    +0.160 C 
BRANCH   9  10
ATOM     10  C   UNL     1      34.747 -22.920 -16.061  0.00  0.00    +0.009 C 
ATOM     11  C   UNL     1      34.953 -24.063 -15.309  0.00  0.00    -0.002 C 
ATOM     12  C   UNL     1      35.697 -21.917 -16.132  0.00  0.00    -0.002 C 
ATOM     13  C   UNL     1      36.148 -24.208 -14.605  0.00  0.00    -0.000 C 
ATOM     14  C   UNL     1      36.893 -22.062 -15.429  0.00  0.00    -0.000 C 
ATOM     15  C   UNL     1      37.118 -23.207 -14.665  0.00  0.00    -0.000 C 
ENDBRANCH   9  10
BRANCH   9  16
ATOM     16  C   UNL     1      32.235 -22.695 -15.919  0.00  0.00    +0.009 C 
ATOM     17  C   UNL     1      30.978 -22.596 -16.486  0.00  0.00    -0.002 C 
ATOM     18  C   UNL     1      32.416 -22.733 -14.550  0.00  0.00    -0.002 C 
ATOM     19  C   UNL     1      29.861 -22.531 -15.652  0.00  0.00    -0.000 C 
ATOM     20  C   UNL     1      31.299 -22.669 -13.716  0.00  0.00    -0.000 C 
ATOM     21  C   UNL     1      30.021 -22.569 -14.268  0.00  0.00    -0.000 C 
ENDBRANCH   9  16
ENDBRANCH   8   9
ENDBRANCH   2   8
BRANCH   1  22
ATOM     22  C   UNL     1      34.938 -18.437 -20.967  0.00  0.00    -0.076 C 
BRANCH  22  23
ATOM     23  C   UNL     1      34.513 -17.977 -22.360  0.00  0.00    -0.007 C 
BRANCH  23  24
ATOM     24  C   UNL     1      34.948 -16.531 -22.622  0.00  0.00    +0.100 C 
BRANCH  24  29
ATOM     25  N   UNL     1      33.597 -14.656 -23.469  0.00  0.00    -0.114 NA
ATOM     26  N   UNL     1      33.805 -16.455 -24.830  0.00  0.00    -0.091 NA
ATOM     27  N   UNL     1      32.952 -14.535 -24.637  0.00  0.00    -0.140 N 
ATOM     28  N   UNL     1      33.047 -15.577 -25.475  0.00  0.00    -0.022 NA
ATOM     29  C   UNL     1      34.096 -15.861 -23.660  0.00  0.00    +0.050 C 
ATOM     30  H   UNL     1      32.438 -13.727 -24.868  0.00  0.00    +0.197 HD
ENDBRANCH  24  29
ENDBRANCH  23  24
ENDBRANCH  22  23
ENDBRANCH   1  22
TORSDOF 8
ENDMDL
MODEL 2
REMARK VINA RESULT:     -10.4      5.962      9.152
REMARK  Name = 6540277
REMARK  8 active torsions:
REMARK  status: ('A' for Active; 'I' for Inactive)
REMARK    1  A    between atoms: N_1  and  C_22
REMARK    2  A    between atoms: C_2  and  O_8
REMARK    3  A    between atoms: O_8  and  C_9
REMARK    4  A    between atoms: C_9  and  C_10
REMARK    5  A    between atoms: C_9  and  C_16
REMARK    6  A    between atoms: C_22  and  C_23
REMARK    7  A    between atoms: C_23  and  C_24
REMARK    8  A    between atoms: C_24  and  C_29
REMARK                            x       y       z     vdW  Elec       q    Type
REMARK                         _______ _______ _______ _____ _____    ______ ____
ROOT
ATOM      1  N   UNL     1      36.389 -23.663 -13.284  0.00  0.00    +0.387 N 
ATOM      2  C   UNL     1      35.179 -23.365 -15.939  0.00  0.00    +0.112 C 
ATOM      3  C   UNL     1      36.520 -22.731 -15.574  0.00  0.00    +0.007 C 
ATOM      4  C   UNL     1      34.859 -24.543 -15.021  0.00  0.00    +0.007 C 
ATOM      5  C   UNL     1      36.641 -22.450 -14.072  0.00  0.00    -0.075 C 
ATOM      6  C   UNL     1      35.043 -24.193 -13.541  0.00  0.00    -0.075 C 
ATOM      7  H   UNL     1      37.065 -24.371 -13.570  0.00  0.00    -0.080 HD
ENDROOT
BRANCH   2   8
ATOM      8  O   UNL     1      34.140 -22.390 -15.867  0.00  0.00    -0.350 OA
BRANCH   8   9
ATOM      9  C   UNL     1      33.095 -22.676 -16.787  0.00  0.00    +0.160 C 
BRANCH   9  10
ATOM     10  C   UNL     1      31.752 -22.589 -16.091  0.00  0.00    +0.009 C 
ATOM     11  C   UNL     1      31.713 -22.368 -14.726  0.00  0.00    -0.002 C 
ATOM     12  C   UNL     1      30.595 -22.732 -16.836  0.00  0.00    -0.002 C 
ATOM     13  C   UNL     1      30.477 -22.287 -14.085  0.00  0.00    -0.000 C 
ATOM     14  C   UNL     1      29.359 -22.650 -16.196  0.00  0.00    -0.000 C 
ATOM     15  C   UNL     1      29.300 -22.428 -14.819  0.00  0.00    -0.000 C 
ENDBRANCH   9  10
BRANCH   9  16
ATOM     16  C   UNL     1      33.177 -21.798 -18.021  0.00  0.00    +0.009 C 
ATOM     17  C   UNL     1      34.404 -21.605 -18.627  0.00  0.00    -0.002 C 
ATOM     18  C   UNL     1      32.022 -21.216 -18.510  0.00  0.00    -0.002 C 
ATOM     19  C   UNL     1      34.480 -20.797 -19.763  0.00  0.00    -0.000 C 
ATOM     20  C   UNL     1      32.098 -20.409 -19.645  0.00  0.00    -0.000 C 
ATOM     21  C   UNL     1      33.328 -20.199 -20.272  0.00  0.00    -0.000 C 
ENDBRANCH   9  16
ENDBRANCH   8   9
ENDBRANCH   2   8
BRANCH   1  22
ATOM     22  C   UNL     1      36.569 -23.392 -11.857  0.00  0.00    -0.076 C 
BRANCH  22  23
ATOM     23  C   UNL     1      37.677 -24.274 -11.285  0.00  0.00    -0.007 C 
BRANCH  23  24
ATOM     24  C   UNL     1      37.904 -25.513 -12.159  0.00  0.00    +0.100 C 
BRANCH  24  29
ATOM     25  N   UNL     1      39.172 -26.172 -14.163  0.00  0.00    -0.114 NA
ATOM     26  N   UNL     1      39.610 -24.119 -13.313  0.00  0.00    -0.091 NA
ATOM     27  N   UNL     1      40.102 -25.487 -14.843  0.00  0.00    -0.140 N 
ATOM     28  N   UNL     1      40.393 -24.265 -14.375  0.00  0.00    -0.022 NA
ATOM     29  C   UNL     1      38.918 -25.269 -13.239  0.00  0.00    +0.050 C 
ATOM     30  H   UNL     1      40.545 -25.859 -15.640  0.00  0.00    +0.197 HD
ENDBRANCH  24  29
ENDBRANCH  23  24
ENDBRANCH  22  23
ENDBRANCH   1  22
TORSDOF 8
ENDMDL
MODEL 3
REMARK VINA RESULT:     -10.0      8.023     14.204
REMARK  Name = 6540277
REMARK  8 active torsions:
REMARK  status: ('A' for Active; 'I' for Inactive)
REMARK    1  A    between atoms: N_1  and  C_22
REMARK    2  A    between atoms: C_2  and  O_8
REMARK    3  A    between atoms: O_8  and  C_9
REMARK    4  A    between atoms: C_9  and  C_10
REMARK    5  A    between atoms: C_9  and  C_16
REMARK    6  A    between atoms: C_22  and  C_23
REMARK    7  A    between atoms: C_23  and  C_24
REMARK    8  A    between atoms: C_24  and  C_29
REMARK                            x       y       z     vdW  Elec       q    Type
REMARK                         _______ _______ _______ _____ _____    ______ ____
ROOT
ATOM      1  N   UNL     1      32.030 -12.214 -21.537  0.00  0.00    +0.387 N 
ATOM      2  C   UNL     1      31.514  -9.892 -23.253  0.00  0.00    +0.112 C 
ATOM      3  C   UNL     1      32.386 -11.063 -23.701  0.00  0.00    +0.007 C 
ATOM      4  C   UNL     1      30.564 -10.310 -22.134  0.00  0.00    +0.007 C 
ATOM      5  C   UNL     1      33.038 -11.788 -22.518  0.00  0.00    -0.075 C 
ATOM      6  C   UNL     1      31.283 -11.063 -21.011  0.00  0.00    -0.075 C 
ATOM      7  H   UNL     1      31.368 -12.827 -22.012  0.00  0.00    -0.080 HD
ENDROOT
BRANCH   2   8
ATOM      8  O   UNL     1      32.333  -8.806 -22.823  0.00  0.00    -0.350 OA
BRANCH   8   9
ATOM      9  C   UNL     1      31.730  -7.553 -23.111  0.00  0.00    +0.160 C 
BRANCH   9  10
ATOM     10  C   UNL     1      31.683  -6.699 -21.861  0.00  0.00    +0.009 C 
ATOM     11  C   UNL     1      30.886  -5.568 -21.846  0.00  0.00    -0.002 C 
ATOM     12  C   UNL     1      32.436  -7.070 -20.761  0.00  0.00    -0.002 C 
ATOM     13  C   UNL     1      30.842  -4.781 -20.695  0.00  0.00    -0.000 C 
ATOM     14  C   UNL     1      32.392  -6.284 -19.610  0.00  0.00    -0.000 C 
ATOM     15  C   UNL     1      31.594  -5.140 -19.577  0.00  0.00    -0.000 C 
ENDBRANCH   9  10
BRANCH   9  16
ATOM     16  C   UNL     1      32.409  -6.856 -24.275  0.00  0.00    +0.009 C 
ATOM     17  C   UNL     1      31.640  -6.426 -25.341  0.00  0.00    -0.002 C 
ATOM     18  C   UNL     1      33.777  -6.668 -24.241  0.00  0.00    -0.002 C 
ATOM     19  C   UNL     1      32.264  -5.786 -26.412  0.00  0.00    -0.000 C 
ATOM     20  C   UNL     1      34.401  -6.028 -25.312  0.00  0.00    -0.000 C 
ATOM     21  C   UNL     1      33.644  -5.586 -26.397  0.00  0.00    -0.000 C 
ENDBRANCH   9  16
ENDBRANCH   8   9
ENDBRANCH   2   8
BRANCH   1  22
ATOM     22  C   UNL     1      32.661 -12.957 -20.447  0.00  0.00    -0.076 C 
BRANCH  22  23
ATOM     23  C   UNL     1      33.812 -13.808 -20.981  0.00  0.00    -0.007 C 
BRANCH  23  24
ATOM     24  C   UNL     1      33.800 -15.209 -20.359  0.00  0.00    +0.100 C 
BRANCH  24  29
ATOM     25  N   UNL     1      34.641 -16.098 -22.494  0.00  0.00    -0.114 NA
ATOM     26  N   UNL     1      35.202 -17.245 -20.623  0.00  0.00    -0.091 NA
ATOM     27  N   UNL     1      35.397 -17.181 -22.724  0.00  0.00    -0.140 N 
ATOM     28  N   UNL     1      35.753 -17.891 -21.644  0.00  0.00    -0.022 NA
ATOM     29  C   UNL     1      34.563 -16.203 -21.183  0.00  0.00    +0.050 C 
ATOM     30  H   UNL     1      35.675 -17.440 -23.632  0.00  0.00    +0.197 HD
ENDBRANCH  24  29
ENDBRANCH  23  24
ENDBRANCH  22  23
ENDBRANCH   1  22
TORSDOF 8
ENDMDL
MODEL 4
REMARK VINA RESULT:      -9.7      8.015     14.148
REMARK  Name = 6540277
REMARK  8 active torsions:
REMARK  status: ('A' for Active; 'I' for Inactive)
REMARK    1  A    between atoms: N_1  and  C_22
REMARK    2  A    between atoms: C_2  and  O_8
REMARK    3  A    between atoms: O_8  and  C_9
REMARK    4  A    between atoms: C_9  and  C_10
REMARK    5  A    between atoms: C_9  and  C_16
REMARK    6  A    between atoms: C_22  and  C_23
REMARK    7  A    between atoms: C_23  and  C_24
REMARK    8  A    between atoms: C_24  and  C_29
REMARK                            x       y       z     vdW  Elec       q    Type
REMARK                         _______ _______ _______ _____ _____    ______ ____
ROOT
ATOM      1  N   UNL     1      31.921 -12.190 -21.545  0.00  0.00    +0.387 N 
ATOM      2  C   UNL     1      31.490  -9.853 -23.264  0.00  0.00    +0.112 C 
ATOM      3  C   UNL     1      32.349 -11.040 -23.696  0.00  0.00    +0.007 C 
ATOM      4  C   UNL     1      30.506 -10.256 -22.168  0.00  0.00    +0.007 C 
ATOM      5  C   UNL     1      32.958 -11.781 -22.501  0.00  0.00    -0.075 C 
ATOM      6  C   UNL     1      31.184 -11.027 -21.031  0.00  0.00    -0.075 C 
ATOM      7  H   UNL     1      31.258 -12.789 -22.037  0.00  0.00    -0.080 HD
ENDROOT
BRANCH   2   8
ATOM      8  O   UNL     1      32.320  -8.785 -22.810  0.00  0.00    -0.350 OA
BRANCH   8   9
ATOM      9  C   UNL     1      31.739  -7.519 -23.092  0.00  0.00    +0.160 C 
BRANCH   9  10
ATOM     10  C   UNL     1      31.722  -6.665 -21.840  0.00  0.00    +0.009 C 
ATOM     11  C   UNL     1      32.479  -7.054 -20.749  0.00  0.00    -0.002 C 
ATOM     12  C   UNL     1      30.952  -5.516 -21.817  0.00  0.00    -0.002 C 
ATOM     13  C   UNL     1      32.465  -6.268 -19.597  0.00  0.00    -0.000 C 
ATOM     14  C   UNL     1      30.938  -4.729 -20.666  0.00  0.00    -0.000 C 
ATOM     15  C   UNL     1      31.695  -5.105 -19.555  0.00  0.00    -0.000 C 
ENDBRANCH   9  10
BRANCH   9  16
ATOM     16  C   UNL     1      32.419  -6.836 -24.262  0.00  0.00    +0.009 C 
ATOM     17  C   UNL     1      31.646  -6.374 -25.312  0.00  0.00    -0.002 C 
ATOM     18  C   UNL     1      33.794  -6.692 -24.250  0.00  0.00    -0.002 C 
ATOM     19  C   UNL     1      32.272  -5.746 -26.390  0.00  0.00    -0.000 C 
ATOM     20  C   UNL     1      34.419  -6.063 -25.328  0.00  0.00    -0.000 C 
ATOM     21  C   UNL     1      33.657  -5.590 -26.397  0.00  0.00    -0.000 C 
ENDBRANCH   9  16
ENDBRANCH   8   9
ENDBRANCH   2   8
BRANCH   1  22
ATOM     22  C   UNL     1      32.511 -12.950 -20.443  0.00  0.00    -0.076 C 
BRANCH  22  23
ATOM     23  C   UNL     1      33.915 -13.423 -20.817  0.00  0.00    -0.007 C 
BRANCH  23  24
ATOM     24  C   UNL     1      34.029 -14.948 -20.716  0.00  0.00    +0.100 C 
BRANCH  24  29
ATOM     25  N   UNL     1      34.678 -16.838 -22.153  0.00  0.00    -0.114 NA
ATOM     26  N   UNL     1      34.078 -14.923 -23.202  0.00  0.00    -0.091 NA
ATOM     27  N   UNL     1      34.732 -16.909 -23.490  0.00  0.00    -0.140 N 
ATOM     28  N   UNL     1      34.384 -15.797 -24.154  0.00  0.00    -0.022 NA
ATOM     29  C   UNL     1      34.270 -15.590 -22.051  0.00  0.00    +0.050 C 
ATOM     30  H   UNL     1      35.010 -17.729 -23.958  0.00  0.00    +0.197 HD
ENDBRANCH  24  29
ENDBRANCH  23  24
ENDBRANCH  22  23
ENDBRANCH   1  22
TORSDOF 8
ENDMDL
MODEL 5
REMARK VINA RESULT:      -9.4      9.775     16.057
REMARK  Name = 6540277
REMARK  8 active torsions:
REMARK  status: ('A' for Active; 'I' for Inactive)
REMARK    1  A    between atoms: N_1  and  C_22
REMARK    2  A    between atoms: C_2  and  O_8
REMARK    3  A    between atoms: O_8  and  C_9
REMARK    4  A    between atoms: C_9  and  C_10
REMARK    5  A    between atoms: C_9  and  C_16
REMARK    6  A    between atoms: C_22  and  C_23
REMARK    7  A    between atoms: C_23  and  C_24
REMARK    8  A    between atoms: C_24  and  C_29
REMARK                            x       y       z     vdW  Elec       q    Type
REMARK                         _______ _______ _______ _____ _____    ______ ____
ROOT
ATOM      1  N   UNL     1      31.752  -9.741 -21.651  0.00  0.00    +0.387 N 
ATOM      2  C   UNL     1      33.025  -7.170 -22.264  0.00  0.00    +0.112 C 
ATOM      3  C   UNL     1      32.423  -7.481 -20.894  0.00  0.00    +0.007 C 
ATOM      4  C   UNL     1      33.366  -8.453 -23.018  0.00  0.00    +0.007 C 
ATOM      5  C   UNL     1      31.298  -8.518 -20.976  0.00  0.00    -0.075 C 
ATOM      6  C   UNL     1      32.207  -9.454 -23.019  0.00  0.00    -0.075 C 
ATOM      7  H   UNL     1      32.546 -10.113 -21.129  0.00  0.00    -0.080 HD
ENDROOT
BRANCH   2   8
ATOM      8  O   UNL     1      32.120  -6.376 -23.029  0.00  0.00    -0.350 OA
BRANCH   8   9
ATOM      9  C   UNL     1      32.699  -5.129 -23.389  0.00  0.00    +0.160 C 
BRANCH   9  10
ATOM     10  C   UNL     1      33.171  -5.171 -24.828  0.00  0.00    +0.009 C 
ATOM     11  C   UNL     1      34.435  -4.701 -25.136  0.00  0.00    -0.002 C 
ATOM     12  C   UNL     1      32.329  -5.680 -25.801  0.00  0.00    -0.002 C 
ATOM     13  C   UNL     1      34.871  -4.740 -26.460  0.00  0.00    -0.000 C 
ATOM     14  C   UNL     1      32.765  -5.720 -27.125  0.00  0.00    -0.000 C 
ATOM     15  C   UNL     1      34.037  -5.250 -27.455  0.00  0.00    -0.000 C 
ENDBRANCH   9  10
BRANCH   9  16
ATOM     16  C   UNL     1      31.758  -3.972 -23.112  0.00  0.00    +0.009 C 
ATOM     17  C   UNL     1      30.876  -4.063 -22.050  0.00  0.00    -0.002 C 
ATOM     18  C   UNL     1      31.807  -2.856 -23.925  0.00  0.00    -0.002 C 
ATOM     19  C   UNL     1      30.010  -2.999 -21.795  0.00  0.00    -0.000 C 
ATOM     20  C   UNL     1      30.942  -1.792 -23.670  0.00  0.00    -0.000 C 
ATOM     21  C   UNL     1      30.043  -1.864 -22.604  0.00  0.00    -0.000 C 
ENDBRANCH   9  16
ENDBRANCH   8   9
ENDBRANCH   2   8
BRANCH   1  22
ATOM     22  C   UNL     1      30.687 -10.743 -21.665  0.00  0.00    -0.076 C 
BRANCH  22  23
ATOM     23  C   UNL     1      31.276 -12.141 -21.848  0.00  0.00    -0.007 C 
BRANCH  23  24
ATOM     24  C   UNL     1      32.362 -12.424 -20.804  0.00  0.00    +0.100 C 
BRANCH  24  29
ATOM     25  N   UNL     1      33.592 -13.820 -22.415  0.00  0.00    -0.114 NA
ATOM     26  N   UNL     1      33.622 -14.495 -20.253  0.00  0.00    -0.091 NA
ATOM     27  N   UNL     1      34.292 -14.943 -22.204  0.00  0.00    -0.140 N 
ATOM     28  N   UNL     1      34.338 -15.380 -20.937  0.00  0.00    -0.022 NA
ATOM     29  C   UNL     1      33.211 -13.605 -21.173  0.00  0.00    +0.050 C 
ATOM     30  H   UNL     1      34.747 -15.420 -22.936  0.00  0.00    +0.197 HD
ENDBRANCH  24  29
ENDBRANCH  23  24
ENDBRANCH  22  23
ENDBRANCH   1  22
TORSDOF 8
ENDMDL
MODEL 6
REMARK VINA RESULT:      -9.4      5.737      9.023
REMARK  Name = 6540277
REMARK  8 active torsions:
REMARK  status: ('A' for Active; 'I' for Inactive)
REMARK    1  A    between atoms: N_1  and  C_22
REMARK    2  A    between atoms: C_2  and  O_8
REMARK    3  A    between atoms: O_8  and  C_9
REMARK    4  A    between atoms: C_9  and  C_10
REMARK    5  A    between atoms: C_9  and  C_16
REMARK    6  A    between atoms: C_22  and  C_23
REMARK    7  A    between atoms: C_23  and  C_24
REMARK    8  A    between atoms: C_24  and  C_29
REMARK                            x       y       z     vdW  Elec       q    Type
REMARK                         _______ _______ _______ _____ _____    ______ ____
ROOT
ATOM      1  N   UNL     1      36.834 -23.910 -14.332  0.00  0.00    +0.387 N 
ATOM      2  C   UNL     1      34.188 -23.203 -15.382  0.00  0.00    +0.112 C 
ATOM      3  C   UNL     1      34.405 -24.380 -14.433  0.00  0.00    +0.007 C 
ATOM      4  C   UNL     1      35.321 -22.186 -15.264  0.00  0.00    +0.007 C 
ATOM      5  C   UNL     1      35.822 -24.955 -14.534  0.00  0.00    -0.075 C 
ATOM      6  C   UNL     1      36.702 -22.843 -15.334  0.00  0.00    -0.075 C 
ATOM      7  H   UNL     1      36.681 -23.497 -13.412  0.00  0.00    -0.080 HD
ENDROOT
BRANCH   2   8
ATOM      8  O   UNL     1      34.083 -23.668 -16.726  0.00  0.00    -0.350 OA
BRANCH   8   9
ATOM      9  C   UNL     1      32.865 -23.252 -17.327  0.00  0.00    +0.160 C 
BRANCH   9  10
ATOM     10  C   UNL     1      31.832 -22.957 -16.258  0.00  0.00    +0.009 C 
ATOM     11  C   UNL     1      30.581 -23.539 -16.351  0.00  0.00    -0.002 C 
ATOM     12  C   UNL     1      32.164 -22.113 -15.213  0.00  0.00    -0.002 C 
ATOM     13  C   UNL     1      29.630 -23.268 -15.368  0.00  0.00    -0.000 C 
ATOM     14  C   UNL     1      31.214 -21.843 -14.229  0.00  0.00    -0.000 C 
ATOM     15  C   UNL     1      29.946 -22.420 -14.306  0.00  0.00    -0.000 C 
ENDBRANCH   9  10
BRANCH   9  16
ATOM     16  C   UNL     1      33.075 -22.091 -18.280  0.00  0.00    +0.009 C 
ATOM     17  C   UNL     1      31.984 -21.336 -18.669  0.00  0.00    -0.002 C 
ATOM     18  C   UNL     1      34.351 -21.817 -18.734  0.00  0.00    -0.002 C 
ATOM     19  C   UNL     1      32.177 -20.268 -19.547  0.00  0.00    -0.000 C 
ATOM     20  C   UNL     1      34.544 -20.749 -19.611  0.00  0.00    -0.000 C 
ATOM     21  C   UNL     1      33.456 -19.974 -20.017  0.00  0.00    -0.000 C 
ENDBRANCH   9  16
ENDBRANCH   8   9
ENDBRANCH   2   8
BRANCH   1  22
ATOM     22  C   UNL     1      38.178 -24.485 -14.371  0.00  0.00    -0.076 C 
BRANCH  22  23
ATOM     23  C   UNL     1      38.622 -24.892 -12.967  0.00  0.00    -0.007 C 
BRANCH  23  24
ATOM     24  C   UNL     1      38.308 -23.792 -11.947  0.00  0.00    +0.100 C 
BRANCH  24  29
ATOM     25  N   UNL     1      36.113 -22.790 -11.462  0.00  0.00    -0.114 NA
ATOM     26  N   UNL     1      36.348 -24.996 -11.003  0.00  0.00    -0.091 NA
ATOM     27  N   UNL     1      35.012 -23.363 -10.957  0.00  0.00    -0.140 N 
ATOM     28  N   UNL     1      35.105 -24.670 -10.670  0.00  0.00    -0.022 NA
ATOM     29  C   UNL     1      36.890 -23.854 -11.461  0.00  0.00    +0.050 C 
ATOM     30  H   UNL     1      34.182 -22.855 -10.806  0.00  0.00    +0.197 HD
ENDBRANCH  24  29
ENDBRANCH  23  24
ENDBRANCH  22  23
ENDBRANCH   1  22
TORSDOF 8
ENDMDL
MODEL 7
REMARK VINA RESULT:      -9.4      5.953      8.891
REMARK  Name = 6540277
REMARK  8 active torsions:
REMARK  status: ('A' for Active; 'I' for Inactive)
REMARK    1  A    between atoms: N_1  and  C_22
REMARK    2  A    between atoms: C_2  and  O_8
REMARK    3  A    between atoms: O_8  and  C_9
REMARK    4  A    between atoms: C_9  and  C_10
REMARK    5  A    between atoms: C_9  and  C_16
REMARK    6  A    between atoms: C_22  and  C_23
REMARK    7  A    between atoms: C_23  and  C_24
REMARK    8  A    between atoms: C_24  and  C_29
REMARK                            x       y       z     vdW  Elec       q    Type
REMARK                         _______ _______ _______ _____ _____    ______ ____
ROOT
ATOM      1  N   UNL     1      37.119 -24.326 -14.374  0.00  0.00    +0.387 N 
ATOM      2  C   UNL     1      34.206 -24.230 -14.703  0.00  0.00    +0.112 C 
ATOM      3  C   UNL     1      34.986 -25.543 -14.691  0.00  0.00    +0.007 C 
ATOM      4  C   UNL     1      34.988 -23.119 -14.006  0.00  0.00    +0.007 C 
ATOM      5  C   UNL     1      36.435 -25.363 -15.158  0.00  0.00    -0.075 C 
ATOM      6  C   UNL     1      36.436 -23.030 -14.498  0.00  0.00    -0.075 C 
ATOM      7  H   UNL     1      37.091 -24.603 -13.393  0.00  0.00    -0.080 HD
ENDROOT
BRANCH   2   8
ATOM      8  O   UNL     1      33.903 -23.851 -16.044  0.00  0.00    -0.350 OA
BRANCH   8   9
ATOM      9  C   UNL     1      33.237 -22.597 -16.092  0.00  0.00    +0.160 C 
BRANCH   9  10
ATOM     10  C   UNL     1      33.416 -21.965 -17.457  0.00  0.00    +0.009 C 
ATOM     11  C   UNL     1      32.302 -21.523 -18.148  0.00  0.00    -0.002 C 
ATOM     12  C   UNL     1      34.691 -21.843 -17.982  0.00  0.00    -0.002 C 
ATOM     13  C   UNL     1      32.467 -20.941 -19.404  0.00  0.00    -0.000 C 
ATOM     14  C   UNL     1      34.856 -21.260 -19.238  0.00  0.00    -0.000 C 
ATOM     15  C   UNL     1      33.744 -20.809 -19.950  0.00  0.00    -0.000 C 
ENDBRANCH   9  10
BRANCH   9  16
ATOM     16  C   UNL     1      31.780 -22.718 -15.686  0.00  0.00    +0.009 C 
ATOM     17  C   UNL     1      30.911 -23.415 -16.504  0.00  0.00    -0.002 C 
ATOM     18  C   UNL     1      31.360 -22.129 -14.509  0.00  0.00    -0.002 C 
ATOM     19  C   UNL     1      29.571 -23.525 -16.131  0.00  0.00    -0.000 C 
ATOM     20  C   UNL     1      30.020 -22.240 -14.136  0.00  0.00    -0.000 C 
ATOM     21  C   UNL     1      29.125 -22.939 -14.947  0.00  0.00    -0.000 C 
ENDBRANCH   9  16
ENDBRANCH   8   9
ENDBRANCH   2   8
BRANCH   1  22
ATOM     22  C   UNL     1      38.517 -24.209 -14.791  0.00  0.00    -0.076 C 
BRANCH  22  23
ATOM     23  C   UNL     1      39.446 -24.549 -13.627  0.00  0.00    -0.007 C 
BRANCH  23  24
ATOM     24  C   UNL     1      38.805 -25.577 -12.689  0.00  0.00    +0.100 C 
BRANCH  24  29
ATOM     25  N   UNL     1      37.805 -23.752 -11.376  0.00  0.00    -0.114 NA
ATOM     26  N   UNL     1      36.603 -25.665 -11.538  0.00  0.00    -0.091 NA
ATOM     27  N   UNL     1      36.632 -23.716 -10.728  0.00  0.00    -0.140 N 
ATOM     28  N   UNL     1      35.886 -24.828 -10.797  0.00  0.00    -0.022 NA
ATOM     29  C   UNL     1      37.717 -24.979 -11.848  0.00  0.00    +0.050 C 
ATOM     30  H   UNL     1      36.335 -22.920 -10.231  0.00  0.00    +0.197 HD
ENDBRANCH  24  29
ENDBRANCH  23  24
ENDBRANCH  22  23
ENDBRANCH   1  22
TORSDOF 8
ENDMDL
MODEL 8
REMARK VINA RESULT:      -9.3      5.382      7.749
REMARK  Name = 6540277
REMARK  8 active torsions:
REMARK  status: ('A' for Active; 'I' for Inactive)
REMARK    1  A    between atoms: N_1  and  C_22
REMARK    2  A    between atoms: C_2  and  O_8
REMARK    3  A    between atoms: O_8  and  C_9
REMARK    4  A    between atoms: C_9  and  C_10
REMARK    5  A    between atoms: C_9  and  C_16
REMARK    6  A    between atoms: C_22  and  C_23
REMARK    7  A    between atoms: C_23  and  C_24
REMARK    8  A    between atoms: C_24  and  C_29
REMARK                            x       y       z     vdW  Elec       q    Type
REMARK                         _______ _______ _______ _____ _____    ______ ____
ROOT
ATOM      1  N   UNL     1      30.297 -23.425 -14.755  0.00  0.00    +0.387 N 
ATOM      2  C   UNL     1      32.744 -23.456 -13.138  0.00  0.00    +0.112 C 
ATOM      3  C   UNL     1      31.549 -22.568 -12.798  0.00  0.00    +0.007 C 
ATOM      4  C   UNL     1      32.321 -24.639 -14.006  0.00  0.00    +0.007 C 
ATOM      5  C   UNL     1      30.716 -22.215 -14.036  0.00  0.00    -0.075 C 
ATOM      6  C   UNL     1      31.460 -24.209 -15.197  0.00  0.00    -0.075 C 
ATOM      7  H   UNL     1      29.756 -24.002 -14.112  0.00  0.00    -0.080 HD
ENDROOT
BRANCH   2   8
ATOM      8  O   UNL     1      33.749 -22.693 -13.804  0.00  0.00    -0.350 OA
BRANCH   8   9
ATOM      9  C   UNL     1      34.570 -23.515 -14.622  0.00  0.00    +0.160 C 
BRANCH   9  10
ATOM     10  C   UNL     1      35.034 -22.740 -15.838  0.00  0.00    +0.009 C 
ATOM     11  C   UNL     1      36.325 -22.243 -15.868  0.00  0.00    -0.002 C 
ATOM     12  C   UNL     1      34.158 -22.548 -16.891  0.00  0.00    -0.002 C 
ATOM     13  C   UNL     1      36.753 -21.530 -16.987  0.00  0.00    -0.000 C 
ATOM     14  C   UNL     1      34.586 -21.836 -18.011  0.00  0.00    -0.000 C 
ATOM     15  C   UNL     1      35.884 -21.326 -18.059  0.00  0.00    -0.000 C 
ENDBRANCH   9  10
BRANCH   9  16
ATOM     16  C   UNL     1      35.717 -24.123 -13.837  0.00  0.00    +0.009 C 
ATOM     17  C   UNL     1      36.224 -25.348 -14.229  0.00  0.00    -0.002 C 
ATOM     18  C   UNL     1      36.226 -23.437 -12.751  0.00  0.00    -0.002 C 
ATOM     19  C   UNL     1      37.278 -25.908 -13.507  0.00  0.00    -0.000 C 
ATOM     20  C   UNL     1      37.281 -23.997 -12.029  0.00  0.00    -0.000 C 
ATOM     21  C   UNL     1      37.807 -25.233 -12.408  0.00  0.00    -0.000 C 
ENDBRANCH   9  16
ENDBRANCH   8   9
ENDBRANCH   2   8
BRANCH   1  22
ATOM     22  C   UNL     1      29.453 -23.074 -15.897  0.00  0.00    -0.076 C 
BRANCH  22  23
ATOM     23  C   UNL     1      28.027 -23.576 -15.677  0.00  0.00    -0.007 C 
BRANCH  23  24
ATOM     24  C   UNL     1      27.058 -22.408 -15.460  0.00  0.00    +0.100 C 
BRANCH  24  29
ATOM     25  N   UNL     1      26.480 -22.630 -17.841  0.00  0.00    -0.114 NA
ATOM     26  N   UNL     1      25.964 -20.661 -16.850  0.00  0.00    -0.091 NA
ATOM     27  N   UNL     1      25.894 -21.745 -18.659  0.00  0.00    -0.140 N 
ATOM     28  N   UNL     1      25.570 -20.563 -18.114  0.00  0.00    -0.022 NA
ATOM     29  C   UNL     1      26.489 -21.894 -16.750  0.00  0.00    +0.050 C 
ATOM     30  H   UNL     1      25.710 -21.949 -19.605  0.00  0.00    +0.197 HD
ENDBRANCH  24  29
ENDBRANCH  23  24
ENDBRANCH  22  23
ENDBRANCH   1  22
TORSDOF 8
ENDMDL
MODEL 9
REMARK VINA RESULT:      -9.1      5.610      8.747
REMARK  Name = 6540277
REMARK  8 active torsions:
REMARK  status: ('A' for Active; 'I' for Inactive)
REMARK    1  A    between atoms: N_1  and  C_22
REMARK    2  A    between atoms: C_2  and  O_8
REMARK    3  A    between atoms: O_8  and  C_9
REMARK    4  A    between atoms: C_9  and  C_10
REMARK    5  A    between atoms: C_9  and  C_16
REMARK    6  A    between atoms: C_22  and  C_23
REMARK    7  A    between atoms: C_23  and  C_24
REMARK    8  A    between atoms: C_24  and  C_29
REMARK                            x       y       z     vdW  Elec       q    Type
REMARK                         _______ _______ _______ _____ _____    ______ ____
ROOT
ATOM      1  N   UNL     1      36.794 -22.653 -13.813  0.00  0.00    +0.387 N 
ATOM      2  C   UNL     1      34.893 -22.129 -15.984  0.00  0.00    +0.112 C 
ATOM      3  C   UNL     1      34.523 -21.956 -14.512  0.00  0.00    +0.007 C 
ATOM      4  C   UNL     1      36.405 -22.054 -16.184  0.00  0.00    +0.007 C 
ATOM      5  C   UNL     1      35.356 -22.857 -13.594  0.00  0.00    -0.075 C 
ATOM      6  C   UNL     1      37.167 -22.950 -15.203  0.00  0.00    -0.075 C 
ATOM      7  H   UNL     1      37.003 -21.670 -13.636  0.00  0.00    -0.080 HD
ENDROOT
BRANCH   2   8
ATOM      8  O   UNL     1      34.394 -23.372 -16.473  0.00  0.00    -0.350 OA
BRANCH   8   9
ATOM      9  C   UNL     1      33.233 -23.189 -17.271  0.00  0.00    +0.160 C 
BRANCH   9  10
ATOM     10  C   UNL     1      32.022 -22.976 -16.386  0.00  0.00    +0.009 C 
ATOM     11  C   UNL     1      32.030 -23.481 -15.098  0.00  0.00    -0.002 C 
ATOM     12  C   UNL     1      30.935 -22.279 -16.885  0.00  0.00    -0.002 C 
ATOM     13  C   UNL     1      30.916 -23.285 -14.283  0.00  0.00    -0.000 C 
ATOM     14  C   UNL     1      29.821 -22.082 -16.070  0.00  0.00    -0.000 C 
ATOM     15  C   UNL     1      29.811 -22.585 -14.768  0.00  0.00    -0.000 C 
ENDBRANCH   9  10
BRANCH   9  16
ATOM     16  C   UNL     1      33.420 -22.081 -18.291  0.00  0.00    +0.009 C 
ATOM     17  C   UNL     1      32.320 -21.346 -18.692  0.00  0.00    -0.002 C 
ATOM     18  C   UNL     1      34.684 -21.836 -18.792  0.00  0.00    -0.002 C 
ATOM     19  C   UNL     1      32.491 -20.327 -19.631  0.00  0.00    -0.000 C 
ATOM     20  C   UNL     1      34.855 -20.817 -19.730  0.00  0.00    -0.000 C 
ATOM     21  C   UNL     1      33.759 -20.062 -20.149  0.00  0.00    -0.000 C 
ENDBRANCH   9  16
ENDBRANCH   8   9
ENDBRANCH   2   8
BRANCH   1  22
ATOM     22  C   UNL     1      37.574 -23.474 -12.887  0.00  0.00    -0.076 C 
BRANCH  22  23
ATOM     23  C   UNL     1      36.652 -24.389 -12.084  0.00  0.00    -0.007 C 
BRANCH  23  24
ATOM     24  C   UNL     1      36.976 -25.865 -12.342  0.00  0.00    +0.100 C 
BRANCH  24  29
ATOM     25  N   UNL     1      37.811 -26.700 -14.501  0.00  0.00    -0.114 NA
ATOM     26  N   UNL     1      35.621 -26.130 -14.410  0.00  0.00    -0.091 NA
ATOM     27  N   UNL     1      37.153 -26.872 -15.656  0.00  0.00    -0.140 N 
ATOM     28  N   UNL     1      35.853 -26.548 -15.648  0.00  0.00    -0.022 NA
ATOM     29  C   UNL     1      36.806 -26.242 -13.784  0.00  0.00    +0.050 C 
ATOM     30  H   UNL     1      37.599 -27.218 -16.464  0.00  0.00    +0.197 HD
ENDBRANCH  24  29
ENDBRANCH  23  24
ENDBRANCH  22  23
ENDBRANCH   1  22
TORSDOF 8
ENDMDL
