MODEL 1
REMARK VINA RESULT:     -12.0      0.000      0.000
REMARK  Name = 9931954
REMARK  3 active torsions:
REMARK  status: ('A' for Active; 'I' for Inactive)
REMARK    1  A    between atoms: C_8  and  C_18
REMARK    2  A    between atoms: C_21  and  C_24
REMARK    3  A    between atoms: C_24  and  N_25
REMARK                            x       y       z     vdW  Elec       q    Type
REMARK                         _______ _______ _______ _____ _____    ______ ____
ROOT
ATOM      1  F   UNL     1      29.241 -25.085 -13.604  0.00  0.00    -0.204 F 
ATOM      2  O   UNL     1      33.810 -24.059 -11.978  0.00  0.00    -0.270 OA
ATOM      3  N   UNL     1      31.511 -22.606 -17.115  0.00  0.00    -0.353 N 
ATOM      4  N   UNL     1      35.166 -23.733 -13.773  0.00  0.00    -0.301 N 
ATOM      5  C   UNL     1      33.509 -22.628 -16.142  0.00  0.00    -0.003 A 
ATOM      6  C   UNL     1      32.587 -23.301 -15.282  0.00  0.00    +0.018 A 
ATOM      7  C   UNL     1      34.965 -22.466 -15.892  0.00  0.00    +0.049 C 
ATOM      8  C   UNL     1      32.810 -22.205 -17.252  0.00  0.00    +0.053 A 
ATOM      9  C   UNL     1      31.348 -23.287 -15.931  0.00  0.00    +0.059 A 
ATOM     10  C   UNL     1      32.686 -23.926 -14.018  0.00  0.00    +0.057 C 
ATOM     11  C   UNL     1      35.535 -23.687 -15.180  0.00  0.00    +0.094 C 
ATOM     12  C   UNL     1      33.923 -23.915 -13.197  0.00  0.00    +0.246 C 
ATOM     13  C   UNL     1      30.200 -23.880 -15.395  0.00  0.00    +0.047 C 
ATOM     14  C   UNL     1      31.532 -24.523 -13.473  0.00  0.00    +0.034 C 
ATOM     15  C   UNL     1      30.316 -24.504 -14.154  0.00  0.00    +0.142 C 
ATOM     16  H   UNL     1      30.796 -22.434 -17.769  0.00  0.00    +0.166 HD
ATOM     17  H   UNL     1      35.910 -23.618 -13.140  0.00  0.00    +0.150 HD
ENDROOT
BRANCH   8  18
ATOM     18  C   UNL     1      33.249 -21.479 -18.421  0.00  0.00    +0.015 C 
ATOM     19  C   UNL     1      34.597 -21.478 -18.774  0.00  0.00    +0.001 C 
ATOM     20  C   UNL     1      32.322 -20.780 -19.194  0.00  0.00    +0.001 C 
ATOM     21  C   UNL     1      34.095 -20.078 -20.677  0.00  0.00    -0.044 C 
ATOM     22  C   UNL     1      35.020 -20.777 -19.903  0.00  0.00    -0.006 C 
ATOM     23  C   UNL     1      32.747 -20.079 -20.323  0.00  0.00    -0.006 C 
BRANCH  21  24
ATOM     24  C   UNL     1      34.547 -19.329 -21.884  0.00  0.00    -0.054 C 
BRANCH  24  25
ATOM     25  N   UNL     1      35.543 -18.334 -21.571  0.00  0.00    +0.385 N 
ATOM     26  C   UNL     1      34.938 -17.023 -21.343  0.00  0.00    -0.105 C 
ATOM     27  H   UNL     1      36.199 -18.266 -22.349  0.00  0.00    -0.084 HD
ATOM     28  H   UNL     1      36.021 -18.619 -20.716  0.00  0.00    -0.084 HD
ENDBRANCH  24  25
ENDBRANCH  21  24
ENDBRANCH   8  18
TORSDOF 3
ENDMDL
MODEL 2
REMARK VINA RESULT:     -10.9      1.955      3.244
REMARK  Name = 9931954
REMARK  3 active torsions:
REMARK  status: ('A' for Active; 'I' for Inactive)
REMARK    1  A    between atoms: C_8  and  C_18
REMARK    2  A    between atoms: C_21  and  C_24
REMARK    3  A    between atoms: C_24  and  N_25
REMARK                            x       y       z     vdW  Elec       q    Type
REMARK                         _______ _______ _______ _____ _____    ______ ____
ROOT
ATOM      1  F   UNL     1      36.282 -24.422 -12.238  0.00  0.00    -0.204 F 
ATOM      2  O   UNL     1      31.545 -25.238 -13.446  0.00  0.00    -0.270 OA
ATOM      3  N   UNL     1      35.467 -22.220 -16.493  0.00  0.00    -0.353 N 
ATOM      4  N   UNL     1      30.859 -23.594 -14.858  0.00  0.00    -0.301 N 
ATOM      5  C   UNL     1      33.270 -22.559 -16.498  0.00  0.00    -0.003 A 
ATOM      6  C   UNL     1      33.810 -23.150 -15.314  0.00  0.00    +0.018 A 
ATOM      7  C   UNL     1      31.830 -22.513 -16.863  0.00  0.00    +0.049 C 
ATOM      8  C   UNL     1      34.319 -22.009 -17.204  0.00  0.00    +0.053 A 
ATOM      9  C   UNL     1      35.187 -22.902 -15.332  0.00  0.00    +0.059 A 
ATOM     10  C   UNL     1      33.262 -23.865 -14.226  0.00  0.00    +0.057 C 
ATOM     11  C   UNL     1      30.959 -22.360 -15.623  0.00  0.00    +0.094 C 
ATOM     12  C   UNL     1      31.836 -24.269 -14.150  0.00  0.00    +0.246 C 
ATOM     13  C   UNL     1      36.049 -23.315 -14.311  0.00  0.00    +0.047 C 
ATOM     14  C   UNL     1      34.127 -24.285 -13.195  0.00  0.00    +0.034 C 
ATOM     15  C   UNL     1      35.492 -24.008 -13.238  0.00  0.00    +0.142 C 
ATOM     16  H   UNL     1      36.364 -21.927 -16.772  0.00  0.00    +0.166 HD
ATOM     17  H   UNL     1      29.967 -24.008 -14.842  0.00  0.00    +0.150 HD
ENDROOT
BRANCH   8  18
ATOM     18  C   UNL     1      34.338 -21.298 -18.462  0.00  0.00    +0.015 C 
ATOM     19  C   UNL     1      33.139 -20.959 -19.087  0.00  0.00    +0.001 C 
ATOM     20  C   UNL     1      35.556 -20.954 -19.047  0.00  0.00    +0.001 C 
ATOM     21  C   UNL     1      34.376 -19.928 -20.889  0.00  0.00    -0.044 C 
ATOM     22  C   UNL     1      33.158 -20.273 -20.302  0.00  0.00    -0.006 C 
ATOM     23  C   UNL     1      35.574 -20.268 -20.262  0.00  0.00    -0.006 C 
BRANCH  21  24
ATOM     24  C   UNL     1      34.396 -19.195 -22.187  0.00  0.00    -0.054 C 
BRANCH  24  25
ATOM     25  N   UNL     1      35.365 -18.128 -22.199  0.00  0.00    +0.385 N 
ATOM     26  C   UNL     1      34.832 -16.913 -21.584  0.00  0.00    -0.105 C 
ATOM     27  H   UNL     1      35.622 -17.925 -23.165  0.00  0.00    -0.084 HD
ATOM     28  H   UNL     1      36.178 -18.428 -21.662  0.00  0.00    -0.084 HD
ENDBRANCH  24  25
ENDBRANCH  21  24
ENDBRANCH   8  18
TORSDOF 3
ENDMDL
MODEL 3
REMARK VINA RESULT:     -10.1      2.621      4.083
REMARK  Name = 9931954
REMARK  3 active torsions:
REMARK  status: ('A' for Active; 'I' for Inactive)
REMARK    1  A    between atoms: C_8  and  C_18
REMARK    2  A    between atoms: C_21  and  C_24
REMARK    3  A    between atoms: C_24  and  N_25
REMARK                            x       y       z     vdW  Elec       q    Type
REMARK                         _______ _______ _______ _____ _____    ______ ____
ROOT
ATOM      1  F   UNL     1      37.745 -23.057 -13.890  0.00  0.00    -0.204 F 
ATOM      2  O   UNL     1      33.219 -24.763 -14.970  0.00  0.00    -0.270 OA
ATOM      3  N   UNL     1      36.328 -20.908 -18.012  0.00  0.00    -0.353 N 
ATOM      4  N   UNL     1      32.160 -23.239 -16.283  0.00  0.00    -0.301 N 
ATOM      5  C   UNL     1      34.244 -21.681 -17.957  0.00  0.00    -0.003 A 
ATOM      6  C   UNL     1      34.941 -22.194 -16.820  0.00  0.00    +0.018 A 
ATOM      7  C   UNL     1      32.810 -21.911 -18.270  0.00  0.00    +0.049 C 
ATOM      8  C   UNL     1      35.131 -20.905 -18.673  0.00  0.00    +0.053 A 
ATOM      9  C   UNL     1      36.239 -21.675 -16.874  0.00  0.00    +0.059 A 
ATOM     10  C   UNL     1      34.593 -23.045 -15.746  0.00  0.00    +0.057 C 
ATOM     11  C   UNL     1      31.979 -21.983 -16.995  0.00  0.00    +0.094 C 
ATOM     12  C   UNL     1      33.281 -23.730 -15.640  0.00  0.00    +0.246 C 
ATOM     13  C   UNL     1      37.208 -21.943 -15.902  0.00  0.00    +0.047 C 
ATOM     14  C   UNL     1      35.568 -23.320 -14.766  0.00  0.00    +0.034 C 
ATOM     15  C   UNL     1      36.847 -22.773 -14.843  0.00  0.00    +0.142 C 
ATOM     16  H   UNL     1      37.136 -20.431 -18.308  0.00  0.00    +0.166 HD
ATOM     17  H   UNL     1      31.369 -23.824 -16.256  0.00  0.00    +0.150 HD
ENDROOT
BRANCH   8  18
ATOM     18  C   UNL     1      34.955 -20.160 -19.898  0.00  0.00    +0.015 C 
ATOM     19  C   UNL     1      36.032 -19.471 -20.453  0.00  0.00    +0.001 C 
ATOM     20  C   UNL     1      33.709 -20.131 -20.522  0.00  0.00    +0.001 C 
ATOM     21  C   UNL     1      34.616 -18.721 -22.261  0.00  0.00    -0.044 C 
ATOM     22  C   UNL     1      35.863 -18.751 -21.635  0.00  0.00    -0.006 C 
ATOM     23  C   UNL     1      33.540 -19.411 -21.704  0.00  0.00    -0.006 C 
BRANCH  21  24
ATOM     24  C   UNL     1      34.435 -17.952 -23.525  0.00  0.00    -0.054 C 
BRANCH  24  25
ATOM     25  N   UNL     1      34.656 -16.539 -23.343  0.00  0.00    +0.385 N 
ATOM     26  C   UNL     1      34.130 -15.765 -24.467  0.00  0.00    -0.105 C 
ATOM     27  H   UNL     1      35.658 -16.368 -23.263  0.00  0.00    -0.084 HD
ATOM     28  H   UNL     1      34.168 -16.245 -22.497  0.00  0.00    -0.084 HD
ENDBRANCH  24  25
ENDBRANCH  21  24
ENDBRANCH   8  18
TORSDOF 3
ENDMDL
MODEL 4
REMARK VINA RESULT:      -9.9      9.731     14.176
REMARK  Name = 9931954
REMARK  3 active torsions:
REMARK  status: ('A' for Active; 'I' for Inactive)
REMARK    1  A    between atoms: C_8  and  C_18
REMARK    2  A    between atoms: C_21  and  C_24
REMARK    3  A    between atoms: C_24  and  N_25
REMARK                            x       y       z     vdW  Elec       q    Type
REMARK                         _______ _______ _______ _____ _____    ______ ____
ROOT
ATOM      1  F   UNL     1      33.734  -5.236 -23.287  0.00  0.00    -0.204 F 
ATOM      2  O   UNL     1      31.376  -7.116 -19.354  0.00  0.00    -0.270 OA
ATOM      3  N   UNL     1      33.743 -10.073 -23.762  0.00  0.00    -0.353 N 
ATOM      4  N   UNL     1      30.570  -9.170 -19.900  0.00  0.00    -0.301 N 
ATOM      5  C   UNL     1      32.388 -10.464 -22.043  0.00  0.00    -0.003 A 
ATOM      6  C   UNL     1      32.594  -9.053 -22.137  0.00  0.00    +0.018 A 
ATOM      7  C   UNL     1      31.504 -11.147 -21.063  0.00  0.00    +0.049 C 
ATOM      8  C   UNL     1      33.119 -11.059 -23.050  0.00  0.00    +0.053 A 
ATOM      9  C   UNL     1      33.432  -8.840 -23.237  0.00  0.00    +0.059 A 
ATOM     10  C   UNL     1      32.145  -7.936 -21.398  0.00  0.00    +0.057 C 
ATOM     11  C   UNL     1      30.272 -10.304 -20.762  0.00  0.00    +0.094 C 
ATOM     12  C   UNL     1      31.336  -8.049 -20.159  0.00  0.00    +0.246 C 
ATOM     13  C   UNL     1      33.834  -7.567 -23.654  0.00  0.00    +0.047 C 
ATOM     14  C   UNL     1      32.549  -6.651 -21.813  0.00  0.00    +0.034 C 
ATOM     15  C   UNL     1      33.372  -6.474 -22.923  0.00  0.00    +0.142 C 
ATOM     16  H   UNL     1      34.329 -10.223 -24.537  0.00  0.00    +0.166 HD
ATOM     17  H   UNL     1      30.168  -9.207 -19.003  0.00  0.00    +0.150 HD
ENDROOT
BRANCH   8  18
ATOM     18  C   UNL     1      33.272 -12.450 -23.407  0.00  0.00    +0.015 C 
ATOM     19  C   UNL     1      32.832 -12.900 -24.651  0.00  0.00    +0.001 C 
ATOM     20  C   UNL     1      33.859 -13.339 -22.508  0.00  0.00    +0.001 C 
ATOM     21  C   UNL     1      33.567 -15.135 -24.097  0.00  0.00    -0.044 C 
ATOM     22  C   UNL     1      32.980 -14.244 -24.996  0.00  0.00    -0.006 C 
ATOM     23  C   UNL     1      34.006 -14.683 -22.854  0.00  0.00    -0.006 C 
BRANCH  21  24
ATOM     24  C   UNL     1      33.724 -16.570 -24.467  0.00  0.00    -0.054 C 
BRANCH  24  25
ATOM     25  N   UNL     1      34.427 -17.322 -23.457  0.00  0.00    +0.385 N 
ATOM     26  C   UNL     1      33.865 -18.662 -23.298  0.00  0.00    -0.105 C 
ATOM     27  H   UNL     1      34.359 -16.827 -22.568  0.00  0.00    -0.084 HD
ATOM     28  H   UNL     1      35.400 -17.416 -23.748  0.00  0.00    -0.084 HD
ENDBRANCH  24  25
ENDBRANCH  21  24
ENDBRANCH   8  18
TORSDOF 3
ENDMDL
MODEL 5
REMARK VINA RESULT:      -9.4      4.135      6.143
REMARK  Name = 9931954
REMARK  3 active torsions:
REMARK  status: ('A' for Active; 'I' for Inactive)
REMARK    1  A    between atoms: C_8  and  C_18
REMARK    2  A    between atoms: C_21  and  C_24
REMARK    3  A    between atoms: C_24  and  N_25
REMARK                            x       y       z     vdW  Elec       q    Type
REMARK                         _______ _______ _______ _____ _____    ______ ____
ROOT
ATOM      1  F   UNL     1      38.728 -22.408 -16.126  0.00  0.00    -0.204 F 
ATOM      2  O   UNL     1      37.403 -25.338 -12.355  0.00  0.00    -0.270 OA
ATOM      3  N   UNL     1      33.874 -22.378 -15.900  0.00  0.00    -0.353 N 
ATOM      4  N   UNL     1      35.342 -24.707 -11.632  0.00  0.00    -0.301 N 
ATOM      5  C   UNL     1      33.737 -23.502 -13.987  0.00  0.00    -0.003 A 
ATOM      6  C   UNL     1      35.118 -23.373 -14.331  0.00  0.00    +0.018 A 
ATOM      7  C   UNL     1      33.208 -24.141 -12.754  0.00  0.00    +0.049 C 
ATOM      8  C   UNL     1      33.002 -22.890 -14.980  0.00  0.00    +0.053 A 
ATOM      9  C   UNL     1      35.170 -22.646 -15.525  0.00  0.00    +0.059 A 
ATOM     10  C   UNL     1      36.330 -23.798 -13.740  0.00  0.00    +0.057 C 
ATOM     11  C   UNL     1      34.136 -23.894 -11.572  0.00  0.00    +0.094 C 
ATOM     12  C   UNL     1      36.391 -24.656 -12.531  0.00  0.00    +0.246 C 
ATOM     13  C   UNL     1      36.369 -22.301 -16.156  0.00  0.00    +0.047 C 
ATOM     14  C   UNL     1      37.541 -23.455 -14.373  0.00  0.00    +0.034 C 
ATOM     15  C   UNL     1      37.557 -22.716 -15.554  0.00  0.00    +0.142 C 
ATOM     16  H   UNL     1      33.612 -21.888 -16.712  0.00  0.00    +0.166 HD
ATOM     17  H   UNL     1      35.422 -25.393 -10.931  0.00  0.00    +0.150 HD
ENDROOT
BRANCH   8  18
ATOM     18  C   UNL     1      31.574 -22.731 -15.134  0.00  0.00    +0.015 C 
ATOM     19  C   UNL     1      31.033 -22.512 -16.399  0.00  0.00    +0.001 C 
ATOM     20  C   UNL     1      30.743 -22.799 -14.017  0.00  0.00    +0.001 C 
ATOM     21  C   UNL     1      28.820 -22.426 -15.431  0.00  0.00    -0.044 C 
ATOM     22  C   UNL     1      29.654 -22.359 -16.548  0.00  0.00    -0.006 C 
ATOM     23  C   UNL     1      29.364 -22.646 -14.167  0.00  0.00    -0.006 C 
BRANCH  21  24
ATOM     24  C   UNL     1      27.347 -22.263 -15.590  0.00  0.00    -0.054 C 
BRANCH  24  25
ATOM     25  N   UNL     1      26.945 -22.238 -16.974  0.00  0.00    +0.385 N 
ATOM     26  C   UNL     1      25.941 -21.205 -17.223  0.00  0.00    -0.105 C 
ATOM     27  H   UNL     1      26.553 -23.147 -17.221  0.00  0.00    -0.084 HD
ATOM     28  H   UNL     1      27.765 -22.030 -17.542  0.00  0.00    -0.084 HD
ENDBRANCH  24  25
ENDBRANCH  21  24
ENDBRANCH   8  18
TORSDOF 3
ENDMDL
MODEL 6
REMARK VINA RESULT:      -9.3      9.599     13.288
REMARK  Name = 9931954
REMARK  3 active torsions:
REMARK  status: ('A' for Active; 'I' for Inactive)
REMARK    1  A    between atoms: C_8  and  C_18
REMARK    2  A    between atoms: C_21  and  C_24
REMARK    3  A    between atoms: C_24  and  N_25
REMARK                            x       y       z     vdW  Elec       q    Type
REMARK                         _______ _______ _______ _____ _____    ______ ____
ROOT
ATOM      1  F   UNL     1      34.466 -16.249 -20.230  0.00  0.00    -0.204 F 
ATOM      2  O   UNL     1      34.596 -15.963 -25.176  0.00  0.00    -0.270 OA
ATOM      3  N   UNL     1      33.052 -11.766 -21.463  0.00  0.00    -0.353 N 
ATOM      4  N   UNL     1      33.170 -14.325 -25.849  0.00  0.00    -0.301 N 
ATOM      5  C   UNL     1      32.962 -12.158 -23.649  0.00  0.00    -0.003 A 
ATOM      6  C   UNL     1      33.394 -13.355 -22.998  0.00  0.00    +0.018 A 
ATOM      7  C   UNL     1      32.718 -12.006 -25.107  0.00  0.00    +0.049 C 
ATOM      8  C   UNL     1      32.774 -11.201 -22.675  0.00  0.00    +0.053 A 
ATOM      9  C   UNL     1      33.421 -13.081 -21.627  0.00  0.00    +0.059 A 
ATOM     10  C   UNL     1      33.759 -14.647 -23.441  0.00  0.00    +0.057 C 
ATOM     11  C   UNL     1      32.157 -13.290 -25.702  0.00  0.00    +0.094 C 
ATOM     12  C   UNL     1      33.861 -15.019 -24.874  0.00  0.00    +0.246 C 
ATOM     13  C   UNL     1      33.775 -14.034 -20.666  0.00  0.00    +0.047 C 
ATOM     14  C   UNL     1      34.119 -15.610 -22.477  0.00  0.00    +0.034 C 
ATOM     15  C   UNL     1      34.120 -15.307 -21.117  0.00  0.00    +0.142 C 
ATOM     16  H   UNL     1      32.997 -11.300 -20.598  0.00  0.00    +0.166 HD
ATOM     17  H   UNL     1      33.395 -14.565 -26.776  0.00  0.00    +0.150 HD
ENDROOT
BRANCH   8  18
ATOM     18  C   UNL     1      32.348  -9.824 -22.778  0.00  0.00    +0.015 C 
ATOM     19  C   UNL     1      31.029  -9.481 -22.489  0.00  0.00    +0.001 C 
ATOM     20  C   UNL     1      33.259  -8.841 -23.166  0.00  0.00    +0.001 C 
ATOM     21  C   UNL     1      31.528  -7.168 -22.976  0.00  0.00    -0.044 C 
ATOM     22  C   UNL     1      30.618  -8.152 -22.588  0.00  0.00    -0.006 C 
ATOM     23  C   UNL     1      32.847  -7.512 -23.264  0.00  0.00    -0.006 C 
BRANCH  21  24
ATOM     24  C   UNL     1      31.088  -5.747 -23.082  0.00  0.00    -0.054 C 
BRANCH  24  25
ATOM     25  N   UNL     1      30.038  -5.427 -22.147  0.00  0.00    +0.385 N 
ATOM     26  C   UNL     1      30.567  -4.783 -20.946  0.00  0.00    -0.105 C 
ATOM     27  H   UNL     1      29.560  -6.287 -21.879  0.00  0.00    -0.084 HD
ATOM     28  H   UNL     1      29.394  -4.779 -22.600  0.00  0.00    -0.084 HD
ENDBRANCH  24  25
ENDBRANCH  21  24
ENDBRANCH   8  18
TORSDOF 3
ENDMDL
MODEL 7
REMARK VINA RESULT:      -9.3      4.207      7.952
REMARK  Name = 9931954
REMARK  3 active torsions:
REMARK  status: ('A' for Active; 'I' for Inactive)
REMARK    1  A    between atoms: C_8  and  C_18
REMARK    2  A    between atoms: C_21  and  C_24
REMARK    3  A    between atoms: C_24  and  N_25
REMARK                            x       y       z     vdW  Elec       q    Type
REMARK                         _______ _______ _______ _____ _____    ______ ____
ROOT
ATOM      1  F   UNL     1      35.979 -17.988 -22.209  0.00  0.00    -0.204 F 
ATOM      2  O   UNL     1      31.609 -19.916 -20.884  0.00  0.00    -0.270 OA
ATOM      3  N   UNL     1      36.689 -20.528 -18.127  0.00  0.00    -0.353 N 
ATOM      4  N   UNL     1      31.983 -21.751 -19.595  0.00  0.00    -0.301 N 
ATOM      5  C   UNL     1      34.655 -21.423 -18.070  0.00  0.00    -0.003 A 
ATOM      6  C   UNL     1      34.734 -20.566 -19.211  0.00  0.00    +0.018 A 
ATOM      7  C   UNL     1      33.484 -22.257 -17.692  0.00  0.00    +0.049 C 
ATOM      8  C   UNL     1      35.871 -21.364 -17.422  0.00  0.00    +0.053 A 
ATOM      9  C   UNL     1      36.028 -20.036 -19.229  0.00  0.00    +0.059 A 
ATOM     10  C   UNL     1      33.832 -20.195 -20.234  0.00  0.00    +0.057 C 
ATOM     11  C   UNL     1      32.767 -22.780 -18.929  0.00  0.00    +0.094 C 
ATOM     12  C   UNL     1      32.409 -20.616 -20.261  0.00  0.00    +0.246 C 
ATOM     13  C   UNL     1      36.482 -19.166 -20.225  0.00  0.00    +0.047 C 
ATOM     14  C   UNL     1      34.284 -19.316 -21.239  0.00  0.00    +0.034 C 
ATOM     15  C   UNL     1      35.586 -18.819 -21.235  0.00  0.00    +0.142 C 
ATOM     16  H   UNL     1      37.617 -20.309 -17.883  0.00  0.00    +0.166 HD
ATOM     17  H   UNL     1      31.009 -21.881 -19.568  0.00  0.00    +0.150 HD
ENDROOT
BRANCH   8  18
ATOM     18  C   UNL     1      36.332 -22.025 -16.222  0.00  0.00    +0.015 C 
ATOM     19  C   UNL     1      35.458 -22.216 -15.154  0.00  0.00    +0.001 C 
ATOM     20  C   UNL     1      37.650 -22.471 -16.137  0.00  0.00    +0.001 C 
ATOM     21  C   UNL     1      37.222 -23.301 -13.910  0.00  0.00    -0.044 C 
ATOM     22  C   UNL     1      35.903 -22.854 -13.996  0.00  0.00    -0.006 C 
ATOM     23  C   UNL     1      38.095 -23.109 -14.979  0.00  0.00    -0.006 C 
BRANCH  21  24
ATOM     24  C   UNL     1      37.698 -23.983 -12.672  0.00  0.00    -0.054 C 
BRANCH  24  25
ATOM     25  N   UNL     1      38.082 -25.351 -12.914  0.00  0.00    +0.385 N 
ATOM     26  C   UNL     1      36.919 -26.195 -13.185  0.00  0.00    -0.105 C 
ATOM     27  H   UNL     1      38.566 -25.710 -12.091  0.00  0.00    -0.084 HD
ATOM     28  H   UNL     1      38.690 -25.373 -13.732  0.00  0.00    -0.084 HD
ENDBRANCH  24  25
ENDBRANCH  21  24
ENDBRANCH   8  18
TORSDOF 3
ENDMDL
MODEL 8
REMARK VINA RESULT:      -9.2      3.127      4.447
REMARK  Name = 9931954
REMARK  3 active torsions:
REMARK  status: ('A' for Active; 'I' for Inactive)
REMARK    1  A    between atoms: C_8  and  C_18
REMARK    2  A    between atoms: C_21  and  C_24
REMARK    3  A    between atoms: C_24  and  N_25
REMARK                            x       y       z     vdW  Elec       q    Type
REMARK                         _______ _______ _______ _____ _____    ______ ____
ROOT
ATOM      1  F   UNL     1      40.137 -24.565 -13.162  0.00  0.00    -0.204 F 
ATOM      2  O   UNL     1      35.439 -25.180 -11.707  0.00  0.00    -0.270 OA
ATOM      3  N   UNL     1      37.292 -22.547 -16.546  0.00  0.00    -0.353 N 
ATOM      4  N   UNL     1      34.158 -23.576 -12.684  0.00  0.00    -0.301 N 
ATOM      5  C   UNL     1      35.400 -22.763 -15.399  0.00  0.00    -0.003 A 
ATOM      6  C   UNL     1      36.461 -23.320 -14.620  0.00  0.00    +0.018 A 
ATOM      7  C   UNL     1      33.979 -22.656 -14.977  0.00  0.00    +0.049 C 
ATOM      8  C   UNL     1      35.947 -22.309 -16.580  0.00  0.00    +0.053 A 
ATOM      9  C   UNL     1      37.636 -23.151 -15.359  0.00  0.00    +0.059 A 
ATOM     10  C   UNL     1      36.537 -23.947 -13.355  0.00  0.00    +0.057 C 
ATOM     11  C   UNL     1      33.875 -22.391 -13.480  0.00  0.00    +0.094 C 
ATOM     12  C   UNL     1      35.345 -24.267 -12.530  0.00  0.00    +0.246 C 
ATOM     13  C   UNL     1      38.892 -23.556 -14.897  0.00  0.00    +0.047 C 
ATOM     14  C   UNL     1      37.800 -24.359 -12.886  0.00  0.00    +0.034 C 
ATOM     15  C   UNL     1      38.953 -24.161 -13.642  0.00  0.00    +0.142 C 
ATOM     16  H   UNL     1      37.923 -22.319 -17.265  0.00  0.00    +0.166 HD
ATOM     17  H   UNL     1      33.393 -23.939 -12.183  0.00  0.00    +0.150 HD
ENDROOT
BRANCH   8  18
ATOM     18  C   UNL     1      35.330 -21.668 -17.719  0.00  0.00    +0.015 C 
ATOM     19  C   UNL     1      36.094 -20.859 -18.558  0.00  0.00    +0.001 C 
ATOM     20  C   UNL     1      33.973 -21.859 -17.974  0.00  0.00    +0.001 C 
ATOM     21  C   UNL     1      34.140 -20.430 -19.914  0.00  0.00    -0.044 C 
ATOM     22  C   UNL     1      35.498 -20.239 -19.657  0.00  0.00    -0.006 C 
ATOM     23  C   UNL     1      33.378 -21.240 -19.074  0.00  0.00    -0.006 C 
BRANCH  21  24
ATOM     24  C   UNL     1      33.504 -19.768 -21.089  0.00  0.00    -0.054 C 
BRANCH  24  25
ATOM     25  N   UNL     1      34.437 -18.961 -21.835  0.00  0.00    +0.385 N 
ATOM     26  C   UNL     1      33.929 -18.652 -23.171  0.00  0.00    -0.105 C 
ATOM     27  H   UNL     1      35.317 -19.469 -21.924  0.00  0.00    -0.084 HD
ATOM     28  H   UNL     1      34.573 -18.084 -21.334  0.00  0.00    -0.084 HD
ENDBRANCH  24  25
ENDBRANCH  21  24
ENDBRANCH   8  18
TORSDOF 3
ENDMDL
