MODEL 1
REMARK VINA RESULT:     -10.0      0.000      0.000
REMARK  Name = 16129579
REMARK  9 active torsions:
REMARK  status: ('A' for Active; 'I' for Inactive)
REMARK    1  A    between atoms: S_1  and  C_4
REMARK    2  A    between atoms: S_1  and  C_17
REMARK    3  A    between atoms: C_9  and  O_10
REMARK    4  A    between atoms: O_10  and  C_11
REMARK    5  A    between atoms: C_17  and  C_18
REMARK    6  A    between atoms: C_18  and  C_22
REMARK    7  A    between atoms: C_18  and  C_25
REMARK    8  A    between atoms: C_18  and  N_29
REMARK    9  A    between atoms: N_24  and  O_27
REMARK                            x       y       z     vdW  Elec       q    Type
REMARK                         _______ _______ _______ _____ _____    ______ ____
ROOT
ATOM      1  S   UNL     1      35.277 -18.446 -21.400  0.00  0.00    +0.007 S 
ATOM      2  O   UNL     1      36.321 -17.919 -20.540  0.00  0.00    -0.169 OA
ATOM      3  O   UNL     1      35.598 -18.926 -22.733  0.00  0.00    -0.169 OA
ENDROOT
BRANCH   1   4
ATOM      4  C   UNL     1      34.500 -19.767 -20.518  0.00  0.00    +0.106 C 
ATOM      5  C   UNL     1      33.117 -19.825 -20.469  0.00  0.00    +0.021 C 
ATOM      6  C   UNL     1      35.287 -20.718 -19.894  0.00  0.00    +0.021 C 
ATOM      7  C   UNL     1      32.504 -20.867 -19.774  0.00  0.00    +0.039 C 
ATOM      8  C   UNL     1      34.674 -21.760 -19.198  0.00  0.00    +0.039 C 
ATOM      9  C   UNL     1      33.281 -21.834 -19.137  0.00  0.00    +0.145 C 
BRANCH   9  10
ATOM     10  O   UNL     1      32.683 -22.851 -18.460  0.00  0.00    -0.453 OA
BRANCH  10  11
ATOM     11  C   UNL     1      32.590 -22.739 -17.083  0.00  0.00    +0.145 C 
ATOM     12  C   UNL     1      31.343 -22.601 -16.501  0.00  0.00    +0.037 C 
ATOM     13  C   UNL     1      33.746 -22.769 -16.324  0.00  0.00    +0.037 C 
ATOM     14  C   UNL     1      31.247 -22.488 -15.114  0.00  0.00    +0.003 C 
ATOM     15  C   UNL     1      33.650 -22.656 -14.937  0.00  0.00    +0.003 C 
ATOM     16  C   UNL     1      32.402 -22.516 -14.332  0.00  0.00    +0.000 C 
ENDBRANCH  10  11
ENDBRANCH   9  10
ENDBRANCH   1   4
BRANCH   1  17
ATOM     17  C   UNL     1      34.005 -17.232 -21.557  0.00  0.00    +0.153 C 
BRANCH  17  18
ATOM     18  C   UNL     1      34.263 -16.167 -22.638  0.00  0.00    +0.135 C 
BRANCH  18  22
ATOM     19  F   UNL     1      34.329 -14.566 -20.870  0.00  0.00    -0.172 F 
ATOM     20  F   UNL     1      32.595 -14.509 -22.186  0.00  0.00    -0.172 F 
ATOM     21  F   UNL     1      34.524 -13.807 -22.903  0.00  0.00    -0.172 F 
ATOM     22  C   UNL     1      33.923 -14.754 -22.147  0.00  0.00    +0.391 C 
ENDBRANCH  18  22
BRANCH  18  25
ATOM     23  O   UNL     1      33.488 -15.666 -24.888  0.00  0.00    -0.275 OA
ATOM     24  N   UNL     1      32.937 -17.713 -24.000  0.00  0.00    -0.198 N 
ATOM     25  C   UNL     1      33.532 -16.474 -23.959  0.00  0.00    +0.235 C 
ATOM     26  H   UNL     1      32.986 -18.342 -23.244  0.00  0.00    +0.182 HD
BRANCH  24  27
ATOM     27  O   UNL     1      32.256 -18.025 -25.185  0.00  0.00    -0.295 OA
ATOM     28  H   UNL     1      31.442 -17.500 -25.237  0.00  0.00    +0.241 HD
ENDBRANCH  24  27
ENDBRANCH  18  25
BRANCH  18  29
ATOM     29  N   UNL     1      35.698 -16.170 -22.966  0.00  0.00    +0.395 N 
ATOM     30  H   UNL     1      35.917 -16.992 -23.529  0.00  0.00    -0.088 HD
ATOM     31  H   UNL     1      36.244 -16.193 -22.104  0.00  0.00    -0.088 HD
ATOM     32  H   UNL     1      35.928 -15.327 -23.491  0.00  0.00    -0.088 HD
ENDBRANCH  18  29
ENDBRANCH  17  18
ENDBRANCH   1  17
TORSDOF 9
ENDMDL
MODEL 2
REMARK VINA RESULT:     -10.0      6.904     10.090
REMARK  Name = 16129579
REMARK  9 active torsions:
REMARK  status: ('A' for Active; 'I' for Inactive)
REMARK    1  A    between atoms: S_1  and  C_4
REMARK    2  A    between atoms: S_1  and  C_17
REMARK    3  A    between atoms: C_9  and  O_10
REMARK    4  A    between atoms: O_10  and  C_11
REMARK    5  A    between atoms: C_17  and  C_18
REMARK    6  A    between atoms: C_18  and  C_22
REMARK    7  A    between atoms: C_18  and  C_25
REMARK    8  A    between atoms: C_18  and  N_29
REMARK    9  A    between atoms: N_24  and  O_27
REMARK                            x       y       z     vdW  Elec       q    Type
REMARK                         _______ _______ _______ _____ _____    ______ ____
ROOT
ATOM      1  S   UNL     1      36.401 -22.680 -14.619  0.00  0.00    +0.007 S 
ATOM      2  O   UNL     1      36.711 -21.456 -13.902  0.00  0.00    -0.169 OA
ATOM      3  O   UNL     1      35.526 -23.675 -14.024  0.00  0.00    -0.169 OA
ENDROOT
BRANCH   1   4
ATOM      4  C   UNL     1      35.707 -22.204 -16.175  0.00  0.00    +0.106 C 
ATOM      5  C   UNL     1      34.383 -22.505 -16.443  0.00  0.00    +0.021 C 
ATOM      6  C   UNL     1      36.501 -21.541 -17.094  0.00  0.00    +0.021 C 
ATOM      7  C   UNL     1      33.835 -22.129 -17.670  0.00  0.00    +0.039 C 
ATOM      8  C   UNL     1      35.953 -21.166 -18.321  0.00  0.00    +0.039 C 
ATOM      9  C   UNL     1      34.620 -21.461 -18.609  0.00  0.00    +0.145 C 
BRANCH   9  10
ATOM     10  O   UNL     1      34.086 -21.094 -19.806  0.00  0.00    -0.453 OA
BRANCH  10  11
ATOM     11  C   UNL     1      34.650 -20.011 -20.457  0.00  0.00    +0.145 C 
ATOM     12  C   UNL     1      35.979 -19.705 -20.230  0.00  0.00    +0.037 C 
ATOM     13  C   UNL     1      33.869 -19.261 -21.319  0.00  0.00    +0.037 C 
ATOM     14  C   UNL     1      36.548 -18.613 -20.885  0.00  0.00    +0.003 C 
ATOM     15  C   UNL     1      34.438 -18.169 -21.974  0.00  0.00    +0.003 C 
ATOM     16  C   UNL     1      35.776 -17.845 -21.758  0.00  0.00    +0.000 C 
ENDBRANCH  10  11
ENDBRANCH   9  10
ENDBRANCH   1   4
BRANCH   1  17
ATOM     17  C   UNL     1      37.912 -23.481 -15.053  0.00  0.00    +0.153 C 
BRANCH  17  18
ATOM     18  C   UNL     1      38.325 -24.627 -14.112  0.00  0.00    +0.135 C 
BRANCH  18  22
ATOM     19  F   UNL     1      40.091 -25.384 -15.528  0.00  0.00    -0.172 F 
ATOM     20  F   UNL     1      40.170 -25.997 -13.440  0.00  0.00    -0.172 F 
ATOM     21  F   UNL     1      40.611 -23.938 -13.983  0.00  0.00    -0.172 F 
ATOM     22  C   UNL     1      39.808 -24.991 -14.264  0.00  0.00    +0.391 C 
ENDBRANCH  18  22
BRANCH  18  25
ATOM     23  O   UNL     1      37.220 -26.653 -13.344  0.00  0.00    -0.275 OA
ATOM     24  N   UNL     1      36.930 -26.045 -15.541  0.00  0.00    -0.198 N 
ATOM     25  C   UNL     1      37.440 -25.877 -14.275  0.00  0.00    +0.235 C 
ATOM     26  H   UNL     1      37.120 -25.411 -16.270  0.00  0.00    +0.182 HD
BRANCH  24  27
ATOM     27  O   UNL     1      36.124 -27.176 -15.730  0.00  0.00    -0.295 OA
ATOM     28  H   UNL     1      36.089 -27.688 -14.907  0.00  0.00    +0.241 HD
ENDBRANCH  24  27
ENDBRANCH  18  25
BRANCH  18  29
ATOM     29  N   UNL     1      38.137 -24.183 -12.721  0.00  0.00    +0.395 N 
ATOM     30  H   UNL     1      37.165 -23.907 -12.581  0.00  0.00    -0.088 HD
ATOM     31  H   UNL     1      38.747 -23.386 -12.533  0.00  0.00    -0.088 HD
ATOM     32  H   UNL     1      38.370 -24.946 -12.086  0.00  0.00    -0.088 HD
ENDBRANCH  18  29
ENDBRANCH  17  18
ENDBRANCH   1  17
TORSDOF 9
ENDMDL
MODEL 3
REMARK VINA RESULT:     -10.0      4.904      8.923
REMARK  Name = 16129579
REMARK  9 active torsions:
REMARK  status: ('A' for Active; 'I' for Inactive)
REMARK    1  A    between atoms: S_1  and  C_4
REMARK    2  A    between atoms: S_1  and  C_17
REMARK    3  A    between atoms: C_9  and  O_10
REMARK    4  A    between atoms: O_10  and  C_11
REMARK    5  A    between atoms: C_17  and  C_18
REMARK    6  A    between atoms: C_18  and  C_22
REMARK    7  A    between atoms: C_18  and  C_25
REMARK    8  A    between atoms: C_18  and  N_29
REMARK    9  A    between atoms: N_24  and  O_27
REMARK                            x       y       z     vdW  Elec       q    Type
REMARK                         _______ _______ _______ _____ _____    ______ ____
ROOT
ATOM      1  S   UNL     1      33.287 -22.288 -18.366  0.00  0.00    +0.007 S 
ATOM      2  O   UNL     1      31.986 -21.811 -17.933  0.00  0.00    -0.169 OA
ATOM      3  O   UNL     1      33.410 -23.572 -19.034  0.00  0.00    -0.169 OA
ENDROOT
BRANCH   1   4
ATOM      4  C   UNL     1      33.961 -21.051 -19.436  0.00  0.00    +0.106 C 
ATOM      5  C   UNL     1      35.329 -20.839 -19.444  0.00  0.00    +0.021 C 
ATOM      6  C   UNL     1      33.108 -20.320 -20.243  0.00  0.00    +0.021 C 
ATOM      7  C   UNL     1      35.861 -19.863 -20.288  0.00  0.00    +0.039 C 
ATOM      8  C   UNL     1      33.640 -19.344 -21.086  0.00  0.00    +0.039 C 
ATOM      9  C   UNL     1      35.017 -19.116 -21.108  0.00  0.00    +0.145 C 
BRANCH   9  10
ATOM     10  O   UNL     1      35.536 -18.164 -21.932  0.00  0.00    -0.453 OA
BRANCH  10  11
ATOM     11  C   UNL     1      34.907 -16.932 -21.967  0.00  0.00    +0.145 C 
ATOM     12  C   UNL     1      34.594 -16.301 -20.777  0.00  0.00    +0.037 C 
ATOM     13  C   UNL     1      34.608 -16.362 -23.192  0.00  0.00    +0.037 C 
ATOM     14  C   UNL     1      33.960 -15.059 -20.811  0.00  0.00    +0.003 C 
ATOM     15  C   UNL     1      33.975 -15.119 -23.226  0.00  0.00    +0.003 C 
ATOM     16  C   UNL     1      33.650 -14.468 -22.037  0.00  0.00    +0.000 C 
ENDBRANCH  10  11
ENDBRANCH   9  10
ENDBRANCH   1   4
BRANCH   1  17
ATOM     17  C   UNL     1      34.380 -22.295 -16.980  0.00  0.00    +0.153 C 
BRANCH  17  18
ATOM     18  C   UNL     1      33.992 -23.277 -15.861  0.00  0.00    +0.135 C 
BRANCH  18  22
ATOM     19  F   UNL     1      34.247 -21.454 -14.343  0.00  0.00    -0.172 F 
ATOM     20  F   UNL     1      33.553 -23.341 -13.508  0.00  0.00    -0.172 F 
ATOM     21  F   UNL     1      32.217 -22.140 -14.734  0.00  0.00    -0.172 F 
ATOM     22  C   UNL     1      33.500 -22.551 -14.602  0.00  0.00    +0.391 C 
ENDBRANCH  18  22
BRANCH  18  25
ATOM     23  O   UNL     1      34.943 -25.473 -15.422  0.00  0.00    -0.275 OA
ATOM     24  N   UNL     1      36.349 -23.657 -15.311  0.00  0.00    -0.198 N 
ATOM     25  C   UNL     1      35.129 -24.258 -15.513  0.00  0.00    +0.235 C 
ATOM     26  H   UNL     1      36.472 -22.684 -15.388  0.00  0.00    +0.182 HD
BRANCH  24  27
ATOM     27  O   UNL     1      37.406 -24.518 -14.985  0.00  0.00    -0.295 OA
ATOM     28  H   UNL     1      37.072 -25.251 -14.445  0.00  0.00    +0.241 HD
ENDBRANCH  24  27
ENDBRANCH  18  25
BRANCH  18  29
ATOM     29  N   UNL     1      32.876 -24.112 -16.334  0.00  0.00    +0.395 N 
ATOM     30  H   UNL     1      32.046 -23.921 -15.772  0.00  0.00    -0.088 HD
ATOM     31  H   UNL     1      33.126 -25.097 -16.247  0.00  0.00    -0.088 HD
ATOM     32  H   UNL     1      32.680 -23.896 -17.312  0.00  0.00    -0.088 HD
ENDBRANCH  18  29
ENDBRANCH  17  18
ENDBRANCH   1  17
TORSDOF 9
ENDMDL
MODEL 4
REMARK VINA RESULT:      -9.9      5.965      9.433
REMARK  Name = 16129579
REMARK  9 active torsions:
REMARK  status: ('A' for Active; 'I' for Inactive)
REMARK    1  A    between atoms: S_1  and  C_4
REMARK    2  A    between atoms: S_1  and  C_17
REMARK    3  A    between atoms: C_9  and  O_10
REMARK    4  A    between atoms: O_10  and  C_11
REMARK    5  A    between atoms: C_17  and  C_18
REMARK    6  A    between atoms: C_18  and  C_22
REMARK    7  A    between atoms: C_18  and  C_25
REMARK    8  A    between atoms: C_18  and  N_29
REMARK    9  A    between atoms: N_24  and  O_27
REMARK                            x       y       z     vdW  Elec       q    Type
REMARK                         _______ _______ _______ _____ _____    ______ ____
ROOT
ATOM      1  S   UNL     1      33.246 -22.881 -16.534  0.00  0.00    +0.007 S 
ATOM      2  O   UNL     1      31.906 -22.328 -16.455  0.00  0.00    -0.169 OA
ATOM      3  O   UNL     1      33.441 -24.287 -16.844  0.00  0.00    -0.169 OA
ENDROOT
BRANCH   1   4
ATOM      4  C   UNL     1      34.127 -21.931 -17.737  0.00  0.00    +0.106 C 
ATOM      5  C   UNL     1      35.473 -21.671 -17.539  0.00  0.00    +0.021 C 
ATOM      6  C   UNL     1      33.455 -21.465 -18.853  0.00  0.00    +0.021 C 
ATOM      7  C   UNL     1      36.168 -20.922 -18.489  0.00  0.00    +0.039 C 
ATOM      8  C   UNL     1      34.151 -20.715 -19.802  0.00  0.00    +0.039 C 
ATOM      9  C   UNL     1      35.507 -20.443 -19.619  0.00  0.00    +0.145 C 
BRANCH   9  10
ATOM     10  O   UNL     1      36.186 -19.713 -20.546  0.00  0.00    -0.453 OA
BRANCH  10  11
ATOM     11  C   UNL     1      35.456 -18.845 -21.340  0.00  0.00    +0.145 C 
ATOM     12  C   UNL     1      34.789 -19.341 -22.445  0.00  0.00    +0.037 C 
ATOM     13  C   UNL     1      35.414 -17.502 -21.009  0.00  0.00    +0.037 C 
ATOM     14  C   UNL     1      34.054 -18.468 -23.246  0.00  0.00    +0.003 C 
ATOM     15  C   UNL     1      34.679 -16.628 -21.810  0.00  0.00    +0.003 C 
ATOM     16  C   UNL     1      34.000 -17.110 -22.928  0.00  0.00    +0.000 C 
ENDBRANCH  10  11
ENDBRANCH   9  10
ENDBRANCH   1   4
BRANCH   1  17
ATOM     17  C   UNL     1      34.091 -22.542 -15.021  0.00  0.00    +0.153 C 
BRANCH  17  18
ATOM     18  C   UNL     1      34.497 -23.790 -14.218  0.00  0.00    +0.135 C 
BRANCH  18  22
ATOM     19  F   UNL     1      35.446 -24.506 -12.149  0.00  0.00    -0.172 F 
ATOM     20  F   UNL     1      33.827 -23.054 -12.040  0.00  0.00    -0.172 F 
ATOM     21  F   UNL     1      35.793 -22.436 -12.734  0.00  0.00    -0.172 F 
ATOM     22  C   UNL     1      34.890 -23.444 -12.776  0.00  0.00    +0.391 C 
ENDBRANCH  18  22
BRANCH  18  25
ATOM     23  O   UNL     1      36.676 -24.087 -15.256  0.00  0.00    -0.275 OA
ATOM     24  N   UNL     1      35.310 -25.929 -15.091  0.00  0.00    -0.198 N 
ATOM     25  C   UNL     1      35.613 -24.600 -14.905  0.00  0.00    +0.235 C 
ATOM     26  H   UNL     1      34.453 -26.316 -14.802  0.00  0.00    +0.182 HD
BRANCH  24  27
ATOM     27  O   UNL     1      36.300 -26.697 -15.720  0.00  0.00    -0.295 OA
ATOM     28  H   UNL     1      36.147 -26.699 -16.678  0.00  0.00    +0.241 HD
ENDBRANCH  24  27
ENDBRANCH  18  25
BRANCH  18  29
ATOM     29  N   UNL     1      33.338 -24.694 -14.137  0.00  0.00    +0.395 N 
ATOM     30  H   UNL     1      32.504 -24.209 -14.470  0.00  0.00    -0.088 HD
ATOM     31  H   UNL     1      33.199 -24.983 -13.168  0.00  0.00    -0.088 HD
ATOM     32  H   UNL     1      33.507 -25.516 -14.716  0.00  0.00    -0.088 HD
ENDBRANCH  18  29
ENDBRANCH  17  18
ENDBRANCH   1  17
TORSDOF 9
ENDMDL
MODEL 5
REMARK VINA RESULT:      -9.8      6.542      9.877
REMARK  Name = 16129579
REMARK  9 active torsions:
REMARK  status: ('A' for Active; 'I' for Inactive)
REMARK    1  A    between atoms: S_1  and  C_4
REMARK    2  A    between atoms: S_1  and  C_17
REMARK    3  A    between atoms: C_9  and  O_10
REMARK    4  A    between atoms: O_10  and  C_11
REMARK    5  A    between atoms: C_17  and  C_18
REMARK    6  A    between atoms: C_18  and  C_22
REMARK    7  A    between atoms: C_18  and  C_25
REMARK    8  A    between atoms: C_18  and  N_29
REMARK    9  A    between atoms: N_24  and  O_27
REMARK                            x       y       z     vdW  Elec       q    Type
REMARK                         _______ _______ _______ _____ _____    ______ ____
ROOT
ATOM      1  S   UNL     1      34.669 -23.366 -14.979  0.00  0.00    +0.007 S 
ATOM      2  O   UNL     1      34.328 -22.409 -13.942  0.00  0.00    -0.169 OA
ATOM      3  O   UNL     1      34.068 -24.689 -14.981  0.00  0.00    -0.169 OA
ENDROOT
BRANCH   1   4
ATOM      4  C   UNL     1      34.301 -22.599 -16.530  0.00  0.00    +0.106 C 
ATOM      5  C   UNL     1      32.994 -22.590 -16.986  0.00  0.00    +0.021 C 
ATOM      6  C   UNL     1      35.327 -22.023 -17.259  0.00  0.00    +0.021 C 
ATOM      7  C   UNL     1      32.703 -21.984 -18.208  0.00  0.00    +0.039 C 
ATOM      8  C   UNL     1      35.036 -21.418 -18.482  0.00  0.00    +0.039 C 
ATOM      9  C   UNL     1      33.724 -21.399 -18.957  0.00  0.00    +0.145 C 
BRANCH   9  10
ATOM     10  O   UNL     1      33.441 -20.808 -20.149  0.00  0.00    -0.453 OA
BRANCH  10  11
ATOM     11  C   UNL     1      34.325 -19.852 -20.619  0.00  0.00    +0.145 C 
ATOM     12  C   UNL     1      35.629 -19.855 -20.159  0.00  0.00    +0.037 C 
ATOM     13  C   UNL     1      33.881 -18.917 -21.537  0.00  0.00    +0.037 C 
ATOM     14  C   UNL     1      36.520 -18.891 -20.631  0.00  0.00    +0.003 C 
ATOM     15  C   UNL     1      34.772 -17.953 -22.010  0.00  0.00    +0.003 C 
ATOM     16  C   UNL     1      36.090 -17.940 -21.557  0.00  0.00    +0.000 C 
ENDBRANCH  10  11
ENDBRANCH   9  10
ENDBRANCH   1   4
BRANCH   1  17
ATOM     17  C   UNL     1      36.422 -23.570 -15.009  0.00  0.00    +0.153 C 
BRANCH  17  18
ATOM     18  C   UNL     1      36.980 -24.494 -13.912  0.00  0.00    +0.135 C 
BRANCH  18  22
ATOM     19  F   UNL     1      36.718 -24.079 -11.577  0.00  0.00    -0.172 F 
ATOM     20  F   UNL     1      37.258 -22.379 -12.825  0.00  0.00    -0.172 F 
ATOM     21  F   UNL     1      38.732 -23.918 -12.392  0.00  0.00    -0.172 F 
ATOM     22  C   UNL     1      37.424 -23.710 -12.670  0.00  0.00    +0.391 C 
ENDBRANCH  18  22
BRANCH  18  25
ATOM     23  O   UNL     1      38.215 -26.581 -14.095  0.00  0.00    -0.275 OA
ATOM     24  N   UNL     1      39.011 -24.763 -15.254  0.00  0.00    -0.198 N 
ATOM     25  C   UNL     1      38.120 -25.397 -14.420  0.00  0.00    +0.235 C 
ATOM     26  H   UNL     1      38.915 -23.815 -15.500  0.00  0.00    +0.182 HD
BRANCH  24  27
ATOM     27  O   UNL     1      40.067 -25.553 -15.732  0.00  0.00    -0.295 OA
ATOM     28  H   UNL     1      40.582 -25.046 -16.379  0.00  0.00    +0.241 HD
ENDBRANCH  24  27
ENDBRANCH  18  25
BRANCH  18  29
ATOM     29  N   UNL     1      35.910 -25.408 -13.478  0.00  0.00    +0.395 N 
ATOM     30  H   UNL     1      36.270 -26.361 -13.444  0.00  0.00    -0.088 HD
ATOM     31  H   UNL     1      35.134 -25.361 -14.140  0.00  0.00    -0.088 HD
ATOM     32  H   UNL     1      35.584 -25.134 -12.552  0.00  0.00    -0.088 HD
ENDBRANCH  18  29
ENDBRANCH  17  18
ENDBRANCH   1  17
TORSDOF 9
ENDMDL
MODEL 6
REMARK VINA RESULT:      -9.8      7.266     10.583
REMARK  Name = 16129579
REMARK  9 active torsions:
REMARK  status: ('A' for Active; 'I' for Inactive)
REMARK    1  A    between atoms: S_1  and  C_4
REMARK    2  A    between atoms: S_1  and  C_17
REMARK    3  A    between atoms: C_9  and  O_10
REMARK    4  A    between atoms: O_10  and  C_11
REMARK    5  A    between atoms: C_17  and  C_18
REMARK    6  A    between atoms: C_18  and  C_22
REMARK    7  A    between atoms: C_18  and  C_25
REMARK    8  A    between atoms: C_18  and  N_29
REMARK    9  A    between atoms: N_24  and  O_27
REMARK                            x       y       z     vdW  Elec       q    Type
REMARK                         _______ _______ _______ _____ _____    ______ ____
ROOT
ATOM      1  S   UNL     1      36.878 -22.542 -14.670  0.00  0.00    +0.007 S 
ATOM      2  O   UNL     1      38.142 -23.141 -15.059  0.00  0.00    -0.169 OA
ATOM      3  O   UNL     1      36.855 -21.384 -13.794  0.00  0.00    -0.169 OA
ENDROOT
BRANCH   1   4
ATOM      4  C   UNL     1      36.029 -22.115 -16.161  0.00  0.00    +0.106 C 
ATOM      5  C   UNL     1      36.712 -21.435 -17.155  0.00  0.00    +0.021 C 
ATOM      6  C   UNL     1      34.699 -22.467 -16.306  0.00  0.00    +0.021 C 
ATOM      7  C   UNL     1      36.044 -21.098 -18.332  0.00  0.00    +0.039 C 
ATOM      8  C   UNL     1      34.030 -22.129 -17.483  0.00  0.00    +0.039 C 
ATOM      9  C   UNL     1      34.703 -21.444 -18.496  0.00  0.00    +0.145 C 
BRANCH   9  10
ATOM     10  O   UNL     1      34.050 -21.116 -19.644  0.00  0.00    -0.453 OA
BRANCH  10  11
ATOM     11  C   UNL     1      34.569 -20.084 -20.407  0.00  0.00    +0.145 C 
ATOM     12  C   UNL     1      33.764 -19.472 -21.350  0.00  0.00    +0.037 C 
ATOM     13  C   UNL     1      35.881 -19.692 -20.207  0.00  0.00    +0.037 C 
ATOM     14  C   UNL     1      34.286 -18.432 -22.119  0.00  0.00    +0.003 C 
ATOM     15  C   UNL     1      36.403 -18.652 -20.977  0.00  0.00    +0.003 C 
ATOM     16  C   UNL     1      35.607 -18.023 -21.932  0.00  0.00    +0.000 C 
ENDBRANCH  10  11
ENDBRANCH   9  10
ENDBRANCH   1   4
BRANCH   1  17
ATOM     17  C   UNL     1      35.860 -23.788 -13.942  0.00  0.00    +0.153 C 
BRANCH  17  18
ATOM     18  C   UNL     1      36.403 -24.374 -12.627  0.00  0.00    +0.135 C 
BRANCH  18  22
ATOM     19  F   UNL     1      36.366 -26.412 -13.868  0.00  0.00    -0.172 F 
ATOM     20  F   UNL     1      36.726 -26.569 -11.727  0.00  0.00    -0.172 F 
ATOM     21  F   UNL     1      38.282 -25.795 -13.034  0.00  0.00    -0.172 F 
ATOM     22  C   UNL     1      36.947 -25.797 -12.812  0.00  0.00    +0.391 C 
ENDBRANCH  18  22
BRANCH  18  25
ATOM     23  O   UNL     1      34.167 -24.519 -11.683  0.00  0.00    -0.275 OA
ATOM     24  N   UNL     1      35.905 -24.064 -10.249  0.00  0.00    -0.198 N 
ATOM     25  C   UNL     1      35.368 -24.332 -11.486  0.00  0.00    +0.235 C 
ATOM     26  H   UNL     1      36.869 -23.918 -10.117  0.00  0.00    +0.182 HD
BRANCH  24  27
ATOM     27  O   UNL     1      34.991 -24.011  -9.187  0.00  0.00    -0.295 OA
ATOM     28  H   UNL     1      34.735 -23.090  -9.027  0.00  0.00    +0.241 HD
ENDBRANCH  24  27
ENDBRANCH  18  25
BRANCH  18  29
ATOM     29  N   UNL     1      37.532 -23.544 -12.174  0.00  0.00    +0.395 N 
ATOM     30  H   UNL     1      37.688 -22.789 -12.841  0.00  0.00    -0.088 HD
ATOM     31  H   UNL     1      38.372 -24.119 -12.107  0.00  0.00    -0.088 HD
ATOM     32  H   UNL     1      37.317 -23.149 -11.258  0.00  0.00    -0.088 HD
ENDBRANCH  18  29
ENDBRANCH  17  18
ENDBRANCH   1  17
TORSDOF 9
ENDMDL
MODEL 7
REMARK VINA RESULT:      -9.7      7.108     10.303
REMARK  Name = 16129579
REMARK  9 active torsions:
REMARK  status: ('A' for Active; 'I' for Inactive)
REMARK    1  A    between atoms: S_1  and  C_4
REMARK    2  A    between atoms: S_1  and  C_17
REMARK    3  A    between atoms: C_9  and  O_10
REMARK    4  A    between atoms: O_10  and  C_11
REMARK    5  A    between atoms: C_17  and  C_18
REMARK    6  A    between atoms: C_18  and  C_22
REMARK    7  A    between atoms: C_18  and  C_25
REMARK    8  A    between atoms: C_18  and  N_29
REMARK    9  A    between atoms: N_24  and  O_27
REMARK                            x       y       z     vdW  Elec       q    Type
REMARK                         _______ _______ _______ _____ _____    ______ ____
ROOT
ATOM      1  S   UNL     1      36.327 -22.982 -14.552  0.00  0.00    +0.007 S 
ATOM      2  O   UNL     1      37.762 -22.787 -14.655  0.00  0.00    -0.169 OA
ATOM      3  O   UNL     1      35.581 -22.371 -13.466  0.00  0.00    -0.169 OA
ENDROOT
BRANCH   1   4
ATOM      4  C   UNL     1      35.621 -22.429 -16.076  0.00  0.00    +0.106 C 
ATOM      5  C   UNL     1      36.409 -21.721 -16.968  0.00  0.00    +0.021 C 
ATOM      6  C   UNL     1      34.295 -22.715 -16.349  0.00  0.00    +0.021 C 
ATOM      7  C   UNL     1      35.852 -21.285 -18.171  0.00  0.00    +0.039 C 
ATOM      8  C   UNL     1      33.739 -22.279 -17.552  0.00  0.00    +0.039 C 
ATOM      9  C   UNL     1      34.518 -21.563 -18.463  0.00  0.00    +0.145 C 
BRANCH   9  10
ATOM     10  O   UNL     1      33.975 -21.139 -19.636  0.00  0.00    -0.453 OA
BRANCH  10  11
ATOM     11  C   UNL     1      34.591 -20.083 -20.286  0.00  0.00    +0.145 C 
ATOM     12  C   UNL     1      33.845 -19.288 -21.136  0.00  0.00    +0.037 C 
ATOM     13  C   UNL     1      35.937 -19.851 -20.067  0.00  0.00    +0.037 C 
ATOM     14  C   UNL     1      34.465 -18.224 -21.792  0.00  0.00    +0.003 C 
ATOM     15  C   UNL     1      36.557 -18.787 -20.723  0.00  0.00    +0.003 C 
ATOM     16  C   UNL     1      35.823 -17.974 -21.584  0.00  0.00    +0.000 C 
ENDBRANCH  10  11
ENDBRANCH   9  10
ENDBRANCH   1   4
BRANCH   1  17
ATOM     17  C   UNL     1      35.990 -24.715 -14.529  0.00  0.00    +0.153 C 
BRANCH  17  18
ATOM     18  C   UNL     1      36.856 -25.524 -13.548  0.00  0.00    +0.135 C 
BRANCH  18  22
ATOM     19  F   UNL     1      36.990 -26.042 -11.222  0.00  0.00    -0.172 F 
ATOM     20  F   UNL     1      35.392 -24.699 -11.842  0.00  0.00    -0.172 F 
ATOM     21  F   UNL     1      37.450 -23.995 -11.810  0.00  0.00    -0.172 F 
ATOM     22  C   UNL     1      36.668 -25.062 -12.097  0.00  0.00    +0.391 C 
ENDBRANCH  18  22
BRANCH  18  25
ATOM     23  O   UNL     1      39.243 -25.587 -13.086  0.00  0.00    -0.275 OA
ATOM     24  N   UNL     1      38.583 -25.430 -15.282  0.00  0.00    -0.198 N 
ATOM     25  C   UNL     1      38.349 -25.520 -13.930  0.00  0.00    +0.235 C 
ATOM     26  H   UNL     1      37.851 -25.378 -15.938  0.00  0.00    +0.182 HD
BRANCH  24  27
ATOM     27  O   UNL     1      39.931 -25.417 -15.668  0.00  0.00    -0.295 OA
ATOM     28  H   UNL     1      40.022 -25.830 -16.541  0.00  0.00    +0.241 HD
ENDBRANCH  24  27
ENDBRANCH  18  25
BRANCH  18  29
ATOM     29  N   UNL     1      36.434 -26.934 -13.603  0.00  0.00    +0.395 N 
ATOM     30  H   UNL     1      35.782 -27.123 -12.841  0.00  0.00    -0.088 HD
ATOM     31  H   UNL     1      37.251 -27.538 -13.508  0.00  0.00    -0.088 HD
ATOM     32  H   UNL     1      35.977 -27.118 -14.496  0.00  0.00    -0.088 HD
ENDBRANCH  18  29
ENDBRANCH  17  18
ENDBRANCH   1  17
TORSDOF 9
ENDMDL
MODEL 8
REMARK VINA RESULT:      -9.6      5.993      8.832
REMARK  Name = 16129579
REMARK  9 active torsions:
REMARK  status: ('A' for Active; 'I' for Inactive)
REMARK    1  A    between atoms: S_1  and  C_4
REMARK    2  A    between atoms: S_1  and  C_17
REMARK    3  A    between atoms: C_9  and  O_10
REMARK    4  A    between atoms: O_10  and  C_11
REMARK    5  A    between atoms: C_17  and  C_18
REMARK    6  A    between atoms: C_18  and  C_22
REMARK    7  A    between atoms: C_18  and  C_25
REMARK    8  A    between atoms: C_18  and  N_29
REMARK    9  A    between atoms: N_24  and  O_27
REMARK                            x       y       z     vdW  Elec       q    Type
REMARK                         _______ _______ _______ _____ _____    ______ ____
ROOT
ATOM      1  S   UNL     1      31.516 -11.092 -21.230  0.00  0.00    +0.007 S 
ATOM      2  O   UNL     1      30.177 -11.321 -21.742  0.00  0.00    -0.169 OA
ATOM      3  O   UNL     1      31.742 -10.969 -19.800  0.00  0.00    -0.169 OA
ENDROOT
BRANCH   1   4
ATOM      4  C   UNL     1      32.531 -12.410 -21.830  0.00  0.00    +0.106 C 
ATOM      5  C   UNL     1      33.058 -13.320 -20.929  0.00  0.00    +0.021 C 
ATOM      6  C   UNL     1      32.778 -12.508 -23.188  0.00  0.00    +0.021 C 
ATOM      7  C   UNL     1      33.858 -14.361 -21.402  0.00  0.00    +0.039 C 
ATOM      8  C   UNL     1      33.579 -13.548 -23.660  0.00  0.00    +0.039 C 
ATOM      9  C   UNL     1      34.119 -14.475 -22.767  0.00  0.00    +0.145 C 
BRANCH   9  10
ATOM     10  O   UNL     1      34.899 -15.490 -23.228  0.00  0.00    -0.453 OA
BRANCH  10  11
ATOM     11  C   UNL     1      34.640 -16.765 -22.757  0.00  0.00    +0.145 C 
ATOM     12  C   UNL     1      35.102 -17.127 -21.504  0.00  0.00    +0.037 C 
ATOM     13  C   UNL     1      33.927 -17.646 -23.550  0.00  0.00    +0.037 C 
ATOM     14  C   UNL     1      34.843 -18.412 -21.028  0.00  0.00    +0.003 C 
ATOM     15  C   UNL     1      33.668 -18.931 -23.074  0.00  0.00    +0.003 C 
ATOM     16  C   UNL     1      34.125 -19.314 -21.814  0.00  0.00    +0.000 C 
ENDBRANCH  10  11
ENDBRANCH   9  10
ENDBRANCH   1   4
BRANCH   1  17
ATOM     17  C   UNL     1      32.182  -9.654 -22.007  0.00  0.00    +0.153 C 
BRANCH  17  18
ATOM     18  C   UNL     1      31.490  -8.335 -21.620  0.00  0.00    +0.135 C 
BRANCH  18  22
ATOM     19  F   UNL     1      29.551  -8.422 -23.008  0.00  0.00    -0.172 F 
ATOM     20  F   UNL     1      31.401  -7.752 -23.940  0.00  0.00    -0.172 F 
ATOM     21  F   UNL     1      30.353  -6.450 -22.550  0.00  0.00    -0.172 F 
ATOM     22  C   UNL     1      30.696  -7.737 -22.789  0.00  0.00    +0.391 C 
ENDBRANCH  18  22
BRANCH  18  25
ATOM     23  O   UNL     1      33.319  -6.736 -21.737  0.00  0.00    -0.275 OA
ATOM     24  N   UNL     1      32.315  -7.065 -19.695  0.00  0.00    -0.198 N 
ATOM     25  C   UNL     1      32.471  -7.297 -21.041  0.00  0.00    +0.235 C 
ATOM     26  H   UNL     1      31.630  -7.526 -19.160  0.00  0.00    +0.182 HD
BRANCH  24  27
ATOM     27  O   UNL     1      33.196  -6.131 -19.132  0.00  0.00    -0.295 OA
ATOM     28  H   UNL     1      32.754  -5.670 -18.401  0.00  0.00    +0.241 HD
ENDBRANCH  24  27
ENDBRANCH  18  25
BRANCH  18  29
ATOM     29  N   UNL     1      30.521  -8.611 -20.546  0.00  0.00    +0.395 N 
ATOM     30  H   UNL     1      30.396  -9.619 -20.451  0.00  0.00    -0.088 HD
ATOM     31  H   UNL     1      29.626  -8.178 -20.775  0.00  0.00    -0.088 HD
ATOM     32  H   UNL     1      30.869  -8.228 -19.667  0.00  0.00    -0.088 HD
ENDBRANCH  18  29
ENDBRANCH  17  18
ENDBRANCH   1  17
TORSDOF 9
ENDMDL
MODEL 9
REMARK VINA RESULT:      -9.5      6.184      9.137
REMARK  Name = 16129579
REMARK  9 active torsions:
REMARK  status: ('A' for Active; 'I' for Inactive)
REMARK    1  A    between atoms: S_1  and  C_4
REMARK    2  A    between atoms: S_1  and  C_17
REMARK    3  A    between atoms: C_9  and  O_10
REMARK    4  A    between atoms: O_10  and  C_11
REMARK    5  A    between atoms: C_17  and  C_18
REMARK    6  A    between atoms: C_18  and  C_22
REMARK    7  A    between atoms: C_18  and  C_25
REMARK    8  A    between atoms: C_18  and  N_29
REMARK    9  A    between atoms: N_24  and  O_27
REMARK                            x       y       z     vdW  Elec       q    Type
REMARK                         _______ _______ _______ _____ _____    ______ ____
ROOT
ATOM      1  S   UNL     1      31.381 -10.388 -22.233  0.00  0.00    +0.007 S 
ATOM      2  O   UNL     1      31.568 -10.203 -23.661  0.00  0.00    -0.169 OA
ATOM      3  O   UNL     1      30.043 -10.495 -21.678  0.00  0.00    -0.169 OA
ENDROOT
BRANCH   1   4
ATOM      4  C   UNL     1      32.277 -11.843 -21.780  0.00  0.00    +0.106 C 
ATOM      5  C   UNL     1      31.894 -12.548 -20.651  0.00  0.00    +0.021 C 
ATOM      6  C   UNL     1      33.343 -12.251 -22.562  0.00  0.00    +0.021 C 
ATOM      7  C   UNL     1      32.600 -13.697 -20.294  0.00  0.00    +0.039 C 
ATOM      8  C   UNL     1      34.049 -13.400 -22.204  0.00  0.00    +0.039 C 
ATOM      9  C   UNL     1      33.678 -14.122 -21.069  0.00  0.00    +0.145 C 
BRANCH   9  10
ATOM     10  O   UNL     1      34.367 -15.243 -20.721  0.00  0.00    -0.453 OA
BRANCH  10  11
ATOM     11  C   UNL     1      34.377 -16.297 -21.618  0.00  0.00    +0.145 C 
ATOM     12  C   UNL     1      34.108 -16.049 -22.952  0.00  0.00    +0.037 C 
ATOM     13  C   UNL     1      34.657 -17.571 -21.159  0.00  0.00    +0.037 C 
ATOM     14  C   UNL     1      34.117 -17.110 -23.857  0.00  0.00    +0.003 C 
ATOM     15  C   UNL     1      34.667 -18.633 -22.064  0.00  0.00    +0.003 C 
ATOM     16  C   UNL     1      34.397 -18.403 -23.412  0.00  0.00    +0.000 C 
ENDBRANCH  10  11
ENDBRANCH   9  10
ENDBRANCH   1   4
BRANCH   1  17
ATOM     17  C   UNL     1      32.217  -9.089 -21.379  0.00  0.00    +0.153 C 
BRANCH  17  18
ATOM     18  C   UNL     1      32.084  -7.701 -22.030  0.00  0.00    +0.135 C 
BRANCH  18  22
ATOM     19  F   UNL     1      32.704  -7.104 -24.256  0.00  0.00    -0.172 F 
ATOM     20  F   UNL     1      34.005  -8.505 -23.213  0.00  0.00    -0.172 F 
ATOM     21  F   UNL     1      33.996  -6.405 -22.647  0.00  0.00    -0.172 F 
ATOM     22  C   UNL     1      33.205  -7.430 -23.042  0.00  0.00    +0.391 C 
ENDBRANCH  18  22
BRANCH  18  25
ATOM     23  O   UNL     1      31.339  -5.545 -21.187  0.00  0.00    -0.275 OA
ATOM     24  N   UNL     1      32.734  -6.791 -19.851  0.00  0.00    -0.198 N 
ATOM     25  C   UNL     1      32.002  -6.564 -20.993  0.00  0.00    +0.235 C 
ATOM     26  H   UNL     1      33.257  -7.614 -19.719  0.00  0.00    +0.182 HD
BRANCH  24  27
ATOM     27  O   UNL     1      32.689  -5.774 -18.886  0.00  0.00    -0.295 OA
ATOM     28  H   UNL     1      33.178  -5.002 -19.208  0.00  0.00    +0.241 HD
ENDBRANCH  24  27
ENDBRANCH  18  25
BRANCH  18  29
ATOM     29  N   UNL     1      30.816  -7.653 -22.777  0.00  0.00    +0.395 N 
ATOM     30  H   UNL     1      30.046  -7.492 -22.128  0.00  0.00    -0.088 HD
ATOM     31  H   UNL     1      30.673  -8.539 -23.261  0.00  0.00    -0.088 HD
ATOM     32  H   UNL     1      30.851  -6.895 -23.458  0.00  0.00    -0.088 HD
ENDBRANCH  18  29
ENDBRANCH  17  18
ENDBRANCH   1  17
TORSDOF 9
ENDMDL
