MODEL 1
REMARK VINA RESULT:     -12.1      0.000      0.000
REMARK  Name = 11719003
REMARK  7 active torsions:
REMARK  status: ('A' for Active; 'I' for Inactive)
REMARK    1  A    between atoms: C_2  and  C_10
REMARK    2  A    between atoms: CA_3  and  C_21
REMARK    3  A    between atoms: N_8  and  C_16
REMARK    4  A    between atoms: N_20  and  CA_23
REMARK    5  A    between atoms: CA_23  and  C_25
REMARK    6  A    between atoms: CA_23  and  C_31
REMARK    7  A    between atoms: C_31  and  O_32
REMARK                            x       y       z     vdW  Elec       q    Type
REMARK                         _______ _______ _______ _____ _____    ______ ____
ROOT
ATOM      1  N   UNL     1      35.685 -20.619 -19.528  0.00  0.00    -0.308 N 
ATOM      2  C   UNL     1      34.640 -19.082 -20.734  0.00  0.00    +0.017 C 
ATOM      3  CA  UNL     1      34.359 -20.965 -19.542  0.00  0.00    +0.102 C 
ATOM      4  C   UNL     1      33.684 -20.023 -20.287  0.00  0.00    +0.021 C 
ATOM      5  C   UNL     1      35.867 -19.470 -20.254  0.00  0.00    +0.062 C 
ATOM      6  H   UNL     1      36.398 -21.118 -19.068  0.00  0.00    +0.152 HD
ENDROOT
BRANCH   2  10
ATOM      7 CL   UNL     1      34.638 -19.432 -23.811  0.00  0.00    -0.081 Cl
ATOM      8  N   UNL     1      33.955 -14.316 -21.022  0.00  0.00    -0.320 N 
ATOM      9  N   UNL     1      34.101 -15.573 -23.041  0.00  0.00    -0.229 NA
ATOM     10  C   UNL     1      34.458 -17.905 -21.542  0.00  0.00    +0.016 C 
ATOM     11  C   UNL     1      34.116 -15.526 -21.674  0.00  0.00    +0.129 C 
ATOM     12  C   UNL     1      34.294 -16.682 -20.901  0.00  0.00    +0.035 C 
ATOM     13  C   UNL     1      34.443 -17.963 -22.931  0.00  0.00    +0.077 C 
ATOM     14  C   UNL     1      34.264 -16.779 -23.628  0.00  0.00    +0.112 C 
ATOM     15  H   UNL     1      33.969 -14.311 -20.038  0.00  0.00    +0.148 HD
BRANCH   8  16
ATOM     16  C   UNL     1      33.765 -13.056 -21.709  0.00  0.00    +0.070 C 
ATOM     17  C   UNL     1      33.773 -13.290 -23.214  0.00  0.00    +0.021 C 
ATOM     18  C   UNL     1      32.456 -12.428 -21.252  0.00  0.00    +0.021 C 
ENDBRANCH   8  16
ENDBRANCH   2  10
BRANCH   3  21
ATOM     19  O   UNL     1      33.575 -23.199 -19.453  0.00  0.00    -0.269 OA
ATOM     20  N   UNL     1      33.565 -21.995 -17.497  0.00  0.00    -0.295 N 
ATOM     21  C   UNL     1      33.832 -22.114 -18.877  0.00  0.00    +0.260 C 
ATOM     22  H   UNL     1      33.770 -21.140 -17.055  0.00  0.00    +0.150 HD
BRANCH  20  23
ATOM     23  CA  UNL     1      33.003 -23.060 -16.695  0.00  0.00    +0.124 C 
BRANCH  23  25
ATOM     24 CL   UNL     1      37.718 -23.597 -14.569  0.00  0.00    -0.082 Cl
ATOM     25  C   UNL     1      33.846 -23.303 -15.462  0.00  0.00    -0.001 C 
ATOM     26  C   UNL     1      35.224 -23.333 -15.581  0.00  0.00    +0.009 C 
ATOM     27  C   UNL     1      33.220 -23.488 -14.242  0.00  0.00    -0.003 C 
ATOM     28  C   UNL     1      36.002 -23.555 -14.445  0.00  0.00    +0.057 C 
ATOM     29  C   UNL     1      33.997 -23.710 -13.105  0.00  0.00    +0.001 C 
ATOM     30  C   UNL     1      35.388 -23.744 -13.206  0.00  0.00    +0.011 C 
ENDBRANCH  23  25
BRANCH  23  31
ATOM     31  C   UNL     1      31.540 -22.767 -16.356  0.00  0.00    +0.161 C 
BRANCH  31  32
ATOM     32  O   UNL     1      30.956 -22.010 -17.410  0.00  0.00    -0.380 OA
ATOM     33  H   UNL     1      30.866 -22.568 -18.198  0.00  0.00    +0.211 HD
ENDBRANCH  31  32
ENDBRANCH  23  31
ENDBRANCH  20  23
ENDBRANCH   3  21
TORSDOF 7
ENDMDL
MODEL 2
REMARK VINA RESULT:     -12.0      2.795      9.615
REMARK  Name = 11719003
REMARK  7 active torsions:
REMARK  status: ('A' for Active; 'I' for Inactive)
REMARK    1  A    between atoms: C_2  and  C_10
REMARK    2  A    between atoms: CA_3  and  C_21
REMARK    3  A    between atoms: N_8  and  C_16
REMARK    4  A    between atoms: N_20  and  CA_23
REMARK    5  A    between atoms: CA_23  and  C_25
REMARK    6  A    between atoms: CA_23  and  C_31
REMARK    7  A    between atoms: C_31  and  O_32
REMARK                            x       y       z     vdW  Elec       q    Type
REMARK                         _______ _______ _______ _____ _____    ______ ____
ROOT
ATOM      1  N   UNL     1      31.979 -20.663 -19.516  0.00  0.00    -0.308 N 
ATOM      2  C   UNL     1      33.319 -21.623 -18.035  0.00  0.00    +0.017 C 
ATOM      3  CA  UNL     1      33.262 -20.372 -19.900  0.00  0.00    +0.102 C 
ATOM      4  C   UNL     1      34.118 -20.959 -18.993  0.00  0.00    +0.021 C 
ATOM      5  C   UNL     1      32.003 -21.427 -18.379  0.00  0.00    +0.062 C 
ATOM      6  H   UNL     1      31.166 -20.369 -19.986  0.00  0.00    +0.152 HD
ENDROOT
BRANCH   2  10
ATOM      7 CL   UNL     1      31.081 -22.849 -16.279  0.00  0.00    -0.081 Cl
ATOM      8  N   UNL     1      36.831 -23.402 -15.248  0.00  0.00    -0.320 N 
ATOM      9  N   UNL     1      34.566 -23.850 -14.657  0.00  0.00    -0.229 NA
ATOM     10  C   UNL     1      33.715 -22.386 -16.880  0.00  0.00    +0.016 C 
ATOM     11  C   UNL     1      35.476 -23.268 -15.497  0.00  0.00    +0.129 C 
ATOM     12  C   UNL     1      35.073 -22.529 -16.617  0.00  0.00    +0.035 C 
ATOM     13  C   UNL     1      32.783 -22.973 -16.033  0.00  0.00    +0.077 C 
ATOM     14  C   UNL     1      33.256 -23.688 -14.945  0.00  0.00    +0.112 C 
ATOM     15  H   UNL     1      37.463 -22.974 -15.869  0.00  0.00    +0.148 HD
BRANCH   8  16
ATOM     16  C   UNL     1      37.368 -24.139 -14.124  0.00  0.00    +0.070 C 
ATOM     17  C   UNL     1      38.794 -24.573 -14.434  0.00  0.00    +0.021 C 
ATOM     18  C   UNL     1      37.313 -23.264 -12.879  0.00  0.00    +0.021 C 
ENDBRANCH   8  16
ENDBRANCH   2  10
BRANCH   3  21
ATOM     19  O   UNL     1      32.937 -19.614 -22.121  0.00  0.00    -0.269 OA
ATOM     20  N   UNL     1      34.732 -18.766 -20.965  0.00  0.00    -0.295 N 
ATOM     21  C   UNL     1      33.589 -19.589 -21.049  0.00  0.00    +0.260 C 
ATOM     22  H   UNL     1      35.235 -18.753 -20.119  0.00  0.00    +0.150 HD
BRANCH  20  23
ATOM     23  CA  UNL     1      35.206 -17.940 -22.054  0.00  0.00    +0.124 C 
BRANCH  23  25
ATOM     24 CL   UNL     1      33.214 -13.825 -24.531  0.00  0.00    -0.082 Cl
ATOM     25  C   UNL     1      34.595 -16.556 -21.981  0.00  0.00    -0.001 C 
ATOM     26  C   UNL     1      34.234 -15.916 -23.153  0.00  0.00    +0.009 C 
ATOM     27  C   UNL     1      34.410 -15.964 -20.744  0.00  0.00    -0.003 C 
ATOM     28  C   UNL     1      33.670 -14.642 -23.087  0.00  0.00    +0.057 C 
ATOM     29  C   UNL     1      33.845 -14.691 -20.678  0.00  0.00    +0.001 C 
ATOM     30  C   UNL     1      33.476 -14.029 -21.849  0.00  0.00    +0.011 C 
ENDBRANCH  23  25
BRANCH  23  31
ATOM     31  C   UNL     1      36.736 -17.905 -22.080  0.00  0.00    +0.161 C 
BRANCH  31  32
ATOM     32  O   UNL     1      37.234 -18.220 -20.784  0.00  0.00    -0.380 OA
ATOM     33  H   UNL     1      37.498 -19.153 -20.757  0.00  0.00    +0.211 HD
ENDBRANCH  31  32
ENDBRANCH  23  31
ENDBRANCH  20  23
ENDBRANCH   3  21
TORSDOF 7
ENDMDL
MODEL 3
REMARK VINA RESULT:     -12.0      7.336     13.944
REMARK  Name = 11719003
REMARK  7 active torsions:
REMARK  status: ('A' for Active; 'I' for Inactive)
REMARK    1  A    between atoms: C_2  and  C_10
REMARK    2  A    between atoms: CA_3  and  C_21
REMARK    3  A    between atoms: N_8  and  C_16
REMARK    4  A    between atoms: N_20  and  CA_23
REMARK    5  A    between atoms: CA_23  and  C_25
REMARK    6  A    between atoms: CA_23  and  C_31
REMARK    7  A    between atoms: C_31  and  O_32
REMARK                            x       y       z     vdW  Elec       q    Type
REMARK                         _______ _______ _______ _____ _____    ______ ____
ROOT
ATOM      1  N   UNL     1      31.291 -10.829 -21.603  0.00  0.00    -0.308 N 
ATOM      2  C   UNL     1      32.532 -12.197 -22.827  0.00  0.00    +0.017 C 
ATOM      3  CA  UNL     1      32.093 -10.039 -22.385  0.00  0.00    +0.102 C 
ATOM      4  C   UNL     1      32.877 -10.867 -23.159  0.00  0.00    +0.021 C 
ATOM      5  C   UNL     1      31.552 -12.148 -21.866  0.00  0.00    +0.062 C 
ATOM      6  H   UNL     1      30.631 -10.499 -20.952  0.00  0.00    +0.152 HD
ENDROOT
BRANCH   2  10
ATOM      7 CL   UNL     1      32.270 -12.715 -25.869  0.00  0.00    -0.081 Cl
ATOM      8  N   UNL     1      34.742 -16.412 -22.043  0.00  0.00    -0.320 N 
ATOM      9  N   UNL     1      34.091 -15.860 -24.268  0.00  0.00    -0.229 NA
ATOM     10  C   UNL     1      33.055 -13.435 -23.344  0.00  0.00    +0.016 C 
ATOM     11  C   UNL     1      34.158 -15.536 -22.940  0.00  0.00    +0.129 C 
ATOM     12  C   UNL     1      33.644 -14.326 -22.454  0.00  0.00    +0.035 C 
ATOM     13  C   UNL     1      32.983 -13.755 -24.694  0.00  0.00    +0.077 C 
ATOM     14  C   UNL     1      33.510 -14.970 -25.101  0.00  0.00    +0.112 C 
ATOM     15  H   UNL     1      34.778 -16.152 -21.094  0.00  0.00    +0.148 HD
BRANCH   8  16
ATOM     16  C   UNL     1      35.305 -17.690 -22.424  0.00  0.00    +0.070 C 
ATOM     17  C   UNL     1      36.414 -18.068 -21.451  0.00  0.00    +0.021 C 
ATOM     18  C   UNL     1      34.201 -18.739 -22.442  0.00  0.00    +0.021 C 
ENDBRANCH   8  16
ENDBRANCH   2  10
BRANCH   3  21
ATOM     19  O   UNL     1      32.075  -7.933 -21.299  0.00  0.00    -0.269 OA
ATOM     20  N   UNL     1      32.018  -7.940 -23.595  0.00  0.00    -0.295 N 
ATOM     21  C   UNL     1      32.072  -8.611 -22.355  0.00  0.00    +0.260 C 
ATOM     22  H   UNL     1      32.017  -8.482 -24.417  0.00  0.00    +0.150 HD
BRANCH  20  23
ATOM     23  CA  UNL     1      31.962  -6.501 -23.726  0.00  0.00    +0.124 C 
BRANCH  23  25
ATOM     24 CL   UNL     1      35.952  -4.208 -26.146  0.00  0.00    -0.082 Cl
ATOM     25  C   UNL     1      32.606  -6.055 -25.021  0.00  0.00    -0.001 C 
ATOM     26  C   UNL     1      33.832  -5.415 -24.979  0.00  0.00    +0.009 C 
ATOM     27  C   UNL     1      31.956  -6.299 -26.218  0.00  0.00    -0.003 C 
ATOM     28  C   UNL     1      34.427  -5.006 -26.172  0.00  0.00    +0.057 C 
ATOM     29  C   UNL     1      32.551  -5.890 -27.411  0.00  0.00    +0.001 C 
ATOM     30  C   UNL     1      33.786  -5.243 -27.388  0.00  0.00    +0.011 C 
ENDBRANCH  23  25
BRANCH  23  31
ATOM     31  C   UNL     1      30.522  -6.001 -23.585  0.00  0.00    +0.161 C 
BRANCH  31  32
ATOM     32  O   UNL     1      30.285  -5.628 -22.232  0.00  0.00    -0.380 OA
ATOM     33  H   UNL     1      29.383  -5.879 -21.980  0.00  0.00    +0.211 HD
ENDBRANCH  31  32
ENDBRANCH  23  31
ENDBRANCH  20  23
ENDBRANCH   3  21
TORSDOF 7
ENDMDL
MODEL 4
REMARK VINA RESULT:     -11.8      3.322      9.821
REMARK  Name = 11719003
REMARK  7 active torsions:
REMARK  status: ('A' for Active; 'I' for Inactive)
REMARK    1  A    between atoms: C_2  and  C_10
REMARK    2  A    between atoms: CA_3  and  C_21
REMARK    3  A    between atoms: N_8  and  C_16
REMARK    4  A    between atoms: N_20  and  CA_23
REMARK    5  A    between atoms: CA_23  and  C_25
REMARK    6  A    between atoms: CA_23  and  C_31
REMARK    7  A    between atoms: C_31  and  O_32
REMARK                            x       y       z     vdW  Elec       q    Type
REMARK                         _______ _______ _______ _____ _____    ______ ____
ROOT
ATOM      1  N   UNL     1      36.169 -18.649 -21.344  0.00  0.00    -0.308 N 
ATOM      2  C   UNL     1      35.141 -19.974 -19.895  0.00  0.00    +0.017 C 
ATOM      3  CA  UNL     1      34.824 -18.505 -21.565  0.00  0.00    +0.102 C 
ATOM      4  C   UNL     1      34.160 -19.320 -20.674  0.00  0.00    +0.021 C 
ATOM      5  C   UNL     1      36.373 -19.544 -20.326  0.00  0.00    +0.062 C 
ATOM      6  H   UNL     1      36.879 -18.183 -21.841  0.00  0.00    +0.152 HD
ENDROOT
BRANCH   2  10
ATOM      7 CL   UNL     1      32.390 -21.366 -19.612  0.00  0.00    -0.081 Cl
ATOM      8  N   UNL     1      37.005 -22.327 -16.119  0.00  0.00    -0.320 N 
ATOM      9  N   UNL     1      34.746 -22.765 -16.736  0.00  0.00    -0.229 NA
ATOM     10  C   UNL     1      34.980 -20.928 -18.829  0.00  0.00    +0.016 C 
ATOM     11  C   UNL     1      35.920 -22.096 -16.947  0.00  0.00    +0.129 C 
ATOM     12  C   UNL     1      36.061 -21.170 -17.990  0.00  0.00    +0.035 C 
ATOM     13  C   UNL     1      33.782 -21.603 -18.624  0.00  0.00    +0.077 C 
ATOM     14  C   UNL     1      33.717 -22.502 -17.572  0.00  0.00    +0.112 C 
ATOM     15  H   UNL     1      37.838 -21.833 -16.295  0.00  0.00    +0.148 HD
BRANCH   8  16
ATOM     16  C   UNL     1      36.982 -23.257 -15.010  0.00  0.00    +0.070 C 
ATOM     17  C   UNL     1      38.338 -23.939 -14.888  0.00  0.00    +0.021 C 
ATOM     18  C   UNL     1      36.621 -22.507 -13.735  0.00  0.00    +0.021 C 
ENDBRANCH   8  16
ENDBRANCH   2  10
BRANCH   3  21
ATOM     19  O   UNL     1      33.922 -18.030 -23.703  0.00  0.00    -0.269 OA
ATOM     20  N   UNL     1      34.142 -16.278 -22.234  0.00  0.00    -0.295 N 
ATOM     21  C   UNL     1      34.271 -17.644 -22.561  0.00  0.00    +0.260 C 
ATOM     22  H   UNL     1      34.418 -15.986 -21.335  0.00  0.00    +0.150 HD
BRANCH  20  23
ATOM     23  CA  UNL     1      33.627 -15.281 -23.147  0.00  0.00    +0.124 C 
BRANCH  23  25
ATOM     24 CL   UNL     1      32.117 -10.306 -23.220  0.00  0.00    -0.082 Cl
ATOM     25  C   UNL     1      33.125 -14.070 -22.390  0.00  0.00    -0.001 C 
ATOM     26  C   UNL     1      32.886 -12.894 -23.080  0.00  0.00    +0.009 C 
ATOM     27  C   UNL     1      32.914 -14.166 -21.026  0.00  0.00    -0.003 C 
ATOM     28  C   UNL     1      32.421 -11.779 -22.384  0.00  0.00    +0.057 C 
ATOM     29  C   UNL     1      32.449 -13.050 -20.330  0.00  0.00    +0.001 C 
ATOM     30  C   UNL     1      32.204 -11.856 -21.008  0.00  0.00    +0.011 C 
ENDBRANCH  23  25
BRANCH  23  31
ATOM     31  C   UNL     1      34.677 -14.919 -24.200  0.00  0.00    +0.161 C 
BRANCH  31  32
ATOM     32  O   UNL     1      34.320 -15.515 -25.443  0.00  0.00    -0.380 OA
ATOM     33  H   UNL     1      34.333 -16.480 -25.354  0.00  0.00    +0.211 HD
ENDBRANCH  31  32
ENDBRANCH  23  31
ENDBRANCH  20  23
ENDBRANCH   3  21
TORSDOF 7
ENDMDL
MODEL 5
REMARK VINA RESULT:     -11.7      6.813     13.190
REMARK  Name = 11719003
REMARK  7 active torsions:
REMARK  status: ('A' for Active; 'I' for Inactive)
REMARK    1  A    between atoms: C_2  and  C_10
REMARK    2  A    between atoms: CA_3  and  C_21
REMARK    3  A    between atoms: N_8  and  C_16
REMARK    4  A    between atoms: N_20  and  CA_23
REMARK    5  A    between atoms: CA_23  and  C_25
REMARK    6  A    between atoms: CA_23  and  C_31
REMARK    7  A    between atoms: C_31  and  O_32
REMARK                            x       y       z     vdW  Elec       q    Type
REMARK                         _______ _______ _______ _____ _____    ______ ____
ROOT
ATOM      1  N   UNL     1      31.558 -11.326 -21.597  0.00  0.00    -0.308 N 
ATOM      2  C   UNL     1      32.701 -12.807 -22.784  0.00  0.00    +0.017 C 
ATOM      3  CA  UNL     1      32.057 -10.657 -22.685  0.00  0.00    +0.102 C 
ATOM      4  C   UNL     1      32.773 -11.558 -23.442  0.00  0.00    +0.021 C 
ATOM      5  C   UNL     1      31.946 -12.639 -21.648  0.00  0.00    +0.062 C 
ATOM      6  H   UNL     1      31.007 -10.924 -20.887  0.00  0.00    +0.152 HD
ENDROOT
BRANCH   2  10
ATOM      7 CL   UNL     1      32.743 -13.547 -25.791  0.00  0.00    -0.081 Cl
ATOM      8  N   UNL     1      34.843 -16.928 -21.480  0.00  0.00    -0.320 N 
ATOM      9  N   UNL     1      34.412 -16.547 -23.793  0.00  0.00    -0.229 NA
ATOM     10  C   UNL     1      33.278 -14.073 -23.155  0.00  0.00    +0.016 C 
ATOM     11  C   UNL     1      34.346 -16.126 -22.493  0.00  0.00    +0.129 C 
ATOM     12  C   UNL     1      33.781 -14.890 -22.148  0.00  0.00    +0.035 C 
ATOM     13  C   UNL     1      33.341 -14.491 -24.479  0.00  0.00    +0.077 C 
ATOM     14  C   UNL     1      33.912 -15.726 -24.742  0.00  0.00    +0.112 C 
ATOM     15  H   UNL     1      34.783 -16.600 -20.554  0.00  0.00    +0.148 HD
BRANCH   8  16
ATOM     16  C   UNL     1      35.447 -18.223 -21.710  0.00  0.00    +0.070 C 
ATOM     17  C   UNL     1      36.730 -18.338 -20.898  0.00  0.00    +0.021 C 
ATOM     18  C   UNL     1      34.453 -19.313 -21.333  0.00  0.00    +0.021 C 
ENDBRANCH   8  16
ENDBRANCH   2  10
BRANCH   3  21
ATOM     19  O   UNL     1      30.705  -8.726 -22.919  0.00  0.00    -0.269 OA
ATOM     20  N   UNL     1      32.967  -8.480 -23.234  0.00  0.00    -0.295 N 
ATOM     21  C   UNL     1      31.837  -9.268 -22.932  0.00  0.00    +0.260 C 
ATOM     22  H   UNL     1      33.850  -8.915 -23.241  0.00  0.00    +0.150 HD
BRANCH  20  23
ATOM     23  CA  UNL     1      32.901  -7.067 -23.536  0.00  0.00    +0.124 C 
BRANCH  23  25
ATOM     24 CL   UNL     1      29.919  -3.218 -21.709  0.00  0.00    -0.082 Cl
ATOM     25  C   UNL     1      32.375  -6.290 -22.348  0.00  0.00    -0.001 C 
ATOM     26  C   UNL     1      31.498  -5.242 -22.562  0.00  0.00    +0.009 C 
ATOM     27  C   UNL     1      32.782  -6.646 -21.074  0.00  0.00    -0.003 C 
ATOM     28  C   UNL     1      31.011  -4.526 -21.468  0.00  0.00    +0.057 C 
ATOM     29  C   UNL     1      32.296  -5.931 -19.980  0.00  0.00    +0.001 C 
ATOM     30  C   UNL     1      31.411  -4.870 -20.176  0.00  0.00    +0.011 C 
ENDBRANCH  23  25
BRANCH  23  31
ATOM     31  C   UNL     1      34.260  -6.552 -24.018  0.00  0.00    +0.161 C 
BRANCH  31  32
ATOM     32  O   UNL     1      34.070  -5.731 -25.164  0.00  0.00    -0.380 OA
ATOM     33  H   UNL     1      34.408  -4.840 -24.983  0.00  0.00    +0.211 HD
ENDBRANCH  31  32
ENDBRANCH  23  31
ENDBRANCH  20  23
ENDBRANCH   3  21
TORSDOF 7
ENDMDL
MODEL 6
REMARK VINA RESULT:     -11.7      5.054      8.565
REMARK  Name = 11719003
REMARK  7 active torsions:
REMARK  status: ('A' for Active; 'I' for Inactive)
REMARK    1  A    between atoms: C_2  and  C_10
REMARK    2  A    between atoms: CA_3  and  C_21
REMARK    3  A    between atoms: N_8  and  C_16
REMARK    4  A    between atoms: N_20  and  CA_23
REMARK    5  A    between atoms: CA_23  and  C_25
REMARK    6  A    between atoms: CA_23  and  C_31
REMARK    7  A    between atoms: C_31  and  O_32
REMARK                            x       y       z     vdW  Elec       q    Type
REMARK                         _______ _______ _______ _____ _____    ______ ____
ROOT
ATOM      1  N   UNL     1      33.115 -13.499 -21.774  0.00  0.00    -0.308 N 
ATOM      2  C   UNL     1      32.647 -11.538 -22.693  0.00  0.00    +0.017 C 
ATOM      3  CA  UNL     1      33.429 -13.604 -23.104  0.00  0.00    +0.102 C 
ATOM      4  C   UNL     1      33.147 -12.394 -23.701  0.00  0.00    +0.021 C 
ATOM      5  C   UNL     1      32.636 -12.242 -21.513  0.00  0.00    +0.062 C 
ATOM      6  H   UNL     1      33.216 -14.217 -21.109  0.00  0.00    +0.152 HD
ENDROOT
BRANCH   2  10
ATOM      7 CL   UNL     1      29.988 -10.786 -21.296  0.00  0.00    -0.081 Cl
ATOM      8  N   UNL     1      33.362  -7.050 -24.309  0.00  0.00    -0.320 N 
ATOM      9  N   UNL     1      31.411  -7.502 -23.019  0.00  0.00    -0.229 NA
ATOM     10  C   UNL     1      32.204 -10.172 -22.788  0.00  0.00    +0.016 C 
ATOM     11  C   UNL     1      32.571  -7.936 -23.599  0.00  0.00    +0.129 C 
ATOM     12  C   UNL     1      32.989  -9.270 -23.498  0.00  0.00    +0.035 C 
ATOM     13  C   UNL     1      31.023  -9.740 -22.193  0.00  0.00    +0.077 C 
ATOM     14  C   UNL     1      30.675  -8.407 -22.338  0.00  0.00    +0.112 C 
ATOM     15  H   UNL     1      34.192  -7.389 -24.715  0.00  0.00    +0.148 HD
BRANCH   8  16
ATOM     16  C   UNL     1      33.037  -5.650 -24.485  0.00  0.00    +0.070 C 
ATOM     17  C   UNL     1      34.314  -4.822 -24.447  0.00  0.00    +0.021 C 
ATOM     18  C   UNL     1      32.298  -5.470 -25.804  0.00  0.00    +0.021 C 
ENDBRANCH   8  16
ENDBRANCH   2  10
BRANCH   3  21
ATOM     19  O   UNL     1      34.435 -14.831 -24.864  0.00  0.00    -0.269 OA
ATOM     20  N   UNL     1      33.893 -15.977 -22.949  0.00  0.00    -0.295 N 
ATOM     21  C   UNL     1      33.953 -14.788 -23.706  0.00  0.00    +0.260 C 
ATOM     22  H   UNL     1      33.514 -15.932 -22.041  0.00  0.00    +0.150 HD
BRANCH  20  23
ATOM     23  CA  UNL     1      34.355 -17.259 -23.432  0.00  0.00    +0.124 C 
BRANCH  23  25
ATOM     24 CL   UNL     1      33.350 -20.838 -19.796  0.00  0.00    -0.082 Cl
ATOM     25  C   UNL     1      34.852 -18.116 -22.288  0.00  0.00    -0.001 C 
ATOM     26  C   UNL     1      33.970 -18.973 -21.654  0.00  0.00    +0.009 C 
ATOM     27  C   UNL     1      36.178 -18.025 -21.903  0.00  0.00    -0.003 C 
ATOM     28  C   UNL     1      34.429 -19.764 -20.600  0.00  0.00    +0.057 C 
ATOM     29  C   UNL     1      36.637 -18.817 -20.850  0.00  0.00    +0.001 C 
ATOM     30  C   UNL     1      35.762 -19.686 -20.198  0.00  0.00    +0.011 C 
ENDBRANCH  23  25
BRANCH  23  31
ATOM     31  C   UNL     1      33.265 -17.953 -24.253  0.00  0.00    +0.161 C 
BRANCH  31  32
ATOM     32  O   UNL     1      32.720 -17.027 -25.187  0.00  0.00    -0.380 OA
ATOM     33  H   UNL     1      32.323 -17.511 -25.927  0.00  0.00    +0.211 HD
ENDBRANCH  31  32
ENDBRANCH  23  31
ENDBRANCH  20  23
ENDBRANCH   3  21
TORSDOF 7
ENDMDL
MODEL 7
REMARK VINA RESULT:     -11.6      7.236     13.647
REMARK  Name = 11719003
REMARK  7 active torsions:
REMARK  status: ('A' for Active; 'I' for Inactive)
REMARK    1  A    between atoms: C_2  and  C_10
REMARK    2  A    between atoms: CA_3  and  C_21
REMARK    3  A    between atoms: N_8  and  C_16
REMARK    4  A    between atoms: N_20  and  CA_23
REMARK    5  A    between atoms: CA_23  and  C_25
REMARK    6  A    between atoms: CA_23  and  C_31
REMARK    7  A    between atoms: C_31  and  O_32
REMARK                            x       y       z     vdW  Elec       q    Type
REMARK                         _______ _______ _______ _____ _____    ______ ____
ROOT
ATOM      1  N   UNL     1      31.324 -11.014 -21.505  0.00  0.00    -0.308 N 
ATOM      2  C   UNL     1      32.512 -12.379 -22.784  0.00  0.00    +0.017 C 
ATOM      3  CA  UNL     1      31.907 -10.238 -22.472  0.00  0.00    +0.102 C 
ATOM      4  C   UNL     1      32.653 -11.064 -23.284  0.00  0.00    +0.021 C 
ATOM      5  C   UNL     1      31.687 -12.323 -21.687  0.00  0.00    +0.062 C 
ATOM      6  H   UNL     1      30.735 -10.683 -20.789  0.00  0.00    +0.152 HD
ENDROOT
BRANCH   2  10
ATOM      7 CL   UNL     1      32.408 -12.923 -25.831  0.00  0.00    -0.081 Cl
ATOM      8  N   UNL     1      34.772 -16.539 -21.861  0.00  0.00    -0.320 N 
ATOM      9  N   UNL     1      34.218 -16.016 -24.119  0.00  0.00    -0.229 NA
ATOM     10  C   UNL     1      33.086 -13.608 -23.265  0.00  0.00    +0.016 C 
ATOM     11  C   UNL     1      34.213 -15.681 -22.792  0.00  0.00    +0.129 C 
ATOM     12  C   UNL     1      33.651 -14.480 -22.341  0.00  0.00    +0.035 C 
ATOM     13  C   UNL     1      33.086 -13.939 -24.615  0.00  0.00    +0.077 C 
ATOM     14  C   UNL     1      33.659 -15.145 -24.987  0.00  0.00    +0.112 C 
ATOM     15  H   UNL     1      34.756 -16.272 -20.914  0.00  0.00    +0.148 HD
BRANCH   8  16
ATOM     16  C   UNL     1      35.381 -17.806 -22.204  0.00  0.00    +0.070 C 
ATOM     17  C   UNL     1      36.454 -18.150 -21.180  0.00  0.00    +0.021 C 
ATOM     18  C   UNL     1      34.303 -18.880 -22.260  0.00  0.00    +0.021 C 
ENDBRANCH   8  16
ENDBRANCH   2  10
BRANCH   3  21
ATOM     19  O   UNL     1      30.756  -8.275 -23.132  0.00  0.00    -0.269 OA
ATOM     20  N   UNL     1      32.742  -8.010 -22.008  0.00  0.00    -0.295 N 
ATOM     21  C   UNL     1      31.733  -8.823 -22.566  0.00  0.00    +0.260 C 
ATOM     22  H   UNL     1      33.503  -8.451 -21.565  0.00  0.00    +0.150 HD
BRANCH  20  23
ATOM     23  CA  UNL     1      32.721  -6.565 -22.051  0.00  0.00    +0.124 C 
BRANCH  23  25
ATOM     24 CL   UNL     1      31.512  -3.330 -25.937  0.00  0.00    -0.082 Cl
ATOM     25  C   UNL     1      32.998  -6.067 -23.453  0.00  0.00    -0.001 C 
ATOM     26  C   UNL     1      32.216  -5.052 -23.975  0.00  0.00    +0.009 C 
ATOM     27  C   UNL     1      34.029  -6.635 -24.180  0.00  0.00    -0.003 C 
ATOM     28  C   UNL     1      32.472  -4.591 -25.266  0.00  0.00    +0.057 C 
ATOM     29  C   UNL     1      34.285  -6.174 -25.471  0.00  0.00    +0.001 C 
ATOM     30  C   UNL     1      33.506  -5.152 -26.015  0.00  0.00    +0.011 C 
ENDBRANCH  23  25
BRANCH  23  31
ATOM     31  C   UNL     1      31.404  -6.026 -21.487  0.00  0.00    +0.161 C 
BRANCH  31  32
ATOM     32  O   UNL     1      31.357  -6.274 -20.086  0.00  0.00    -0.380 OA
ATOM     33  H   UNL     1      30.716  -5.675 -19.673  0.00  0.00    +0.211 HD
ENDBRANCH  31  32
ENDBRANCH  23  31
ENDBRANCH  20  23
ENDBRANCH   3  21
TORSDOF 7
ENDMDL
MODEL 8
REMARK VINA RESULT:     -11.3      2.822      9.806
REMARK  Name = 11719003
REMARK  7 active torsions:
REMARK  status: ('A' for Active; 'I' for Inactive)
REMARK    1  A    between atoms: C_2  and  C_10
REMARK    2  A    between atoms: CA_3  and  C_21
REMARK    3  A    between atoms: N_8  and  C_16
REMARK    4  A    between atoms: N_20  and  CA_23
REMARK    5  A    between atoms: CA_23  and  C_25
REMARK    6  A    between atoms: CA_23  and  C_31
REMARK    7  A    between atoms: C_31  and  O_32
REMARK                            x       y       z     vdW  Elec       q    Type
REMARK                         _______ _______ _______ _____ _____    ______ ____
ROOT
ATOM      1  N   UNL     1      32.665 -20.552 -19.710  0.00  0.00    -0.308 N 
ATOM      2  C   UNL     1      33.170 -21.761 -17.923  0.00  0.00    +0.017 C 
ATOM      3  CA  UNL     1      34.027 -20.706 -19.712  0.00  0.00    +0.102 C 
ATOM      4  C   UNL     1      34.369 -21.457 -18.608  0.00  0.00    +0.021 C 
ATOM      5  C   UNL     1      32.133 -21.193 -18.622  0.00  0.00    +0.062 C 
ATOM      6  H   UNL     1      32.149 -20.056 -20.386  0.00  0.00    +0.152 HD
ENDROOT
BRANCH   2  10
ATOM      7 CL   UNL     1      35.652 -22.348 -16.167  0.00  0.00    -0.081 Cl
ATOM      8  N   UNL     1      30.188 -24.089 -14.930  0.00  0.00    -0.320 N 
ATOM      9  N   UNL     1      32.505 -23.988 -14.384  0.00  0.00    -0.229 NA
ATOM     10  C   UNL     1      32.972 -22.516 -16.714  0.00  0.00    +0.016 C 
ATOM     11  C   UNL     1      31.475 -23.675 -15.228  0.00  0.00    +0.129 C 
ATOM     12  C   UNL     1      31.685 -22.939 -16.402  0.00  0.00    +0.035 C 
ATOM     13  C   UNL     1      34.026 -22.828 -15.862  0.00  0.00    +0.077 C 
ATOM     14  C   UNL     1      33.742 -23.560 -14.721  0.00  0.00    +0.112 C 
ATOM     15  H   UNL     1      29.466 -23.849 -15.554  0.00  0.00    +0.148 HD
BRANCH   8  16
ATOM     16  C   UNL     1      29.847 -24.855 -13.751  0.00  0.00    +0.070 C 
ATOM     17  C   UNL     1      29.924 -23.959 -12.522  0.00  0.00    +0.021 C 
ATOM     18  C   UNL     1      28.453 -25.443 -13.921  0.00  0.00    +0.021 C 
ENDBRANCH   8  16
ENDBRANCH   2  10
BRANCH   3  21
ATOM     19  O   UNL     1      35.966 -20.686 -21.073  0.00  0.00    -0.269 OA
ATOM     20  N   UNL     1      34.498 -18.934 -21.296  0.00  0.00    -0.295 N 
ATOM     21  C   UNL     1      34.887 -20.157 -20.711  0.00  0.00    +0.260 C 
ATOM     22  H   UNL     1      33.650 -18.528 -21.005  0.00  0.00    +0.150 HD
BRANCH  20  23
ATOM     23  CA  UNL     1      35.278 -18.241 -22.298  0.00  0.00    +0.124 C 
BRANCH  23  25
ATOM     24 CL   UNL     1      33.812 -13.506 -20.726  0.00  0.00    -0.082 Cl
ATOM     25  C   UNL     1      34.654 -16.903 -22.631  0.00  0.00    -0.001 C 
ATOM     26  C   UNL     1      34.539 -15.946 -21.638  0.00  0.00    +0.009 C 
ATOM     27  C   UNL     1      34.217 -16.664 -23.922  0.00  0.00    -0.003 C 
ATOM     28  C   UNL     1      33.967 -14.712 -21.945  0.00  0.00    +0.057 C 
ATOM     29  C   UNL     1      33.645 -15.429 -24.229  0.00  0.00    +0.001 C 
ATOM     30  C   UNL     1      33.519 -14.453 -23.240  0.00  0.00    +0.011 C 
ENDBRANCH  23  25
BRANCH  23  31
ATOM     31  C   UNL     1      36.737 -18.114 -21.856  0.00  0.00    +0.161 C 
BRANCH  31  32
ATOM     32  O   UNL     1      36.806 -18.192 -20.436  0.00  0.00    -0.380 OA
ATOM     33  H   UNL     1      35.940 -18.453 -20.084  0.00  0.00    +0.211 HD
ENDBRANCH  31  32
ENDBRANCH  23  31
ENDBRANCH  20  23
ENDBRANCH   3  21
TORSDOF 7
ENDMDL
MODEL 9
REMARK VINA RESULT:     -11.3      2.742      9.874
REMARK  Name = 11719003
REMARK  7 active torsions:
REMARK  status: ('A' for Active; 'I' for Inactive)
REMARK    1  A    between atoms: C_2  and  C_10
REMARK    2  A    between atoms: CA_3  and  C_21
REMARK    3  A    between atoms: N_8  and  C_16
REMARK    4  A    between atoms: N_20  and  CA_23
REMARK    5  A    between atoms: CA_23  and  C_25
REMARK    6  A    between atoms: CA_23  and  C_31
REMARK    7  A    between atoms: C_31  and  O_32
REMARK                            x       y       z     vdW  Elec       q    Type
REMARK                         _______ _______ _______ _____ _____    ______ ____
ROOT
ATOM      1  N   UNL     1      35.752 -20.319 -19.401  0.00  0.00    -0.308 N 
ATOM      2  C   UNL     1      34.917 -21.589 -17.789  0.00  0.00    +0.017 C 
ATOM      3  CA  UNL     1      34.426 -20.504 -19.694  0.00  0.00    +0.102 C 
ATOM      4  C   UNL     1      33.881 -21.292 -18.704  0.00  0.00    +0.021 C 
ATOM      5  C   UNL     1      36.062 -20.978 -18.239  0.00  0.00    +0.062 C 
ATOM      6  H   UNL     1      36.386 -19.795 -19.942  0.00  0.00    +0.152 HD
ENDROOT
BRANCH   2  10
ATOM      7 CL   UNL     1      32.168 -22.679 -16.868  0.00  0.00    -0.081 Cl
ATOM      8  N   UNL     1      37.241 -23.583 -14.061  0.00  0.00    -0.320 N 
ATOM      9  N   UNL     1      34.885 -23.893 -14.236  0.00  0.00    -0.229 NA
ATOM     10  C   UNL     1      34.878 -22.376 -16.584  0.00  0.00    +0.016 C 
ATOM     11  C   UNL     1      36.048 -23.366 -14.728  0.00  0.00    +0.129 C 
ATOM     12  C   UNL     1      36.069 -22.602 -15.903  0.00  0.00    +0.035 C 
ATOM     13  C   UNL     1      33.690 -22.907 -16.092  0.00  0.00    +0.077 C 
ATOM     14  C   UNL     1      33.747 -23.651 -14.925  0.00  0.00    +0.112 C 
ATOM     15  H   UNL     1      38.062 -23.194 -14.438  0.00  0.00    +0.148 HD
BRANCH   8  16
ATOM     16  C   UNL     1      37.346 -24.352 -12.840  0.00  0.00    +0.070 C 
ATOM     17  C   UNL     1      38.463 -25.378 -12.979  0.00  0.00    +0.021 C 
ATOM     18  C   UNL     1      37.602 -23.408 -11.673  0.00  0.00    +0.021 C 
ENDBRANCH   8  16
ENDBRANCH   2  10
BRANCH   3  21
ATOM     19  O   UNL     1      32.538 -19.923 -21.000  0.00  0.00    -0.269 OA
ATOM     20  N   UNL     1      34.611 -19.433 -21.859  0.00  0.00    -0.295 N 
ATOM     21  C   UNL     1      33.782 -19.950 -20.842  0.00  0.00    +0.260 C 
ATOM     22  H   UNL     1      35.586 -19.459 -21.724  0.00  0.00    +0.150 HD
BRANCH  20  23
ATOM     23  CA  UNL     1      34.108 -18.867 -23.092  0.00  0.00    +0.124 C 
BRANCH  23  25
ATOM     24 CL   UNL     1      33.164 -14.317 -25.424  0.00  0.00    -0.082 Cl
ATOM     25  C   UNL     1      34.090 -17.355 -23.020  0.00  0.00    -0.001 C 
ATOM     26  C   UNL     1      33.684 -16.631 -24.126  0.00  0.00    +0.009 C 
ATOM     27  C   UNL     1      34.478 -16.731 -21.847  0.00  0.00    -0.003 C 
ATOM     28  C   UNL     1      33.665 -15.238 -24.060  0.00  0.00    +0.057 C 
ATOM     29  C   UNL     1      34.460 -15.338 -21.780  0.00  0.00    +0.001 C 
ATOM     30  C   UNL     1      34.054 -14.591 -22.887  0.00  0.00    +0.011 C 
ENDBRANCH  23  25
BRANCH  23  31
ATOM     31  C   UNL     1      34.905 -19.387 -24.290  0.00  0.00    +0.161 C 
BRANCH  31  32
ATOM     32  O   UNL     1      34.296 -20.577 -24.779  0.00  0.00    -0.380 OA
ATOM     33  H   UNL     1      34.942 -21.300 -24.766  0.00  0.00    +0.211 HD
ENDBRANCH  31  32
ENDBRANCH  23  31
ENDBRANCH  20  23
ENDBRANCH   3  21
TORSDOF 7
ENDMDL
