MODEL 1
REMARK VINA RESULT:     -12.6      0.000      0.000
REMARK  Name = 6914657
REMARK  8 active torsions:
REMARK  status: ('A' for Active; 'I' for Inactive)
REMARK    1  A    between atoms: C_1  and  C_4
REMARK    2  A    between atoms: C_1  and  C_16
REMARK    3  A    between atoms: C_9  and  C_10
REMARK    4  A    between atoms: C_16  and  C_17
REMARK    5  A    between atoms: C_17  and  C_18
REMARK    6  A    between atoms: C_18  and  N_20
REMARK    7  A    between atoms: C_21  and  C_23
REMARK    8  A    between atoms: C_24  and  C_26
REMARK                            x       y       z     vdW  Elec       q    Type
REMARK                         _______ _______ _______ _____ _____    ______ ____
ROOT
ATOM      1  C   UNL     1      31.696 -12.493 -21.020  0.00  0.00    +0.000 C 
ENDROOT
BRANCH   1   4
ATOM      2  O   UNL     1      32.546  -6.535 -19.424  0.00  0.00    -0.270 OA
ATOM      3  N   UNL     1      31.494  -8.218 -20.661  0.00  0.00    -0.276 N 
ATOM      4  C   UNL     1      31.128 -11.081 -20.898  0.00  0.00    +0.003 C 
ATOM      5  C   UNL     1      31.550 -10.216 -22.096  0.00  0.00    +0.022 C 
ATOM      6  C   UNL     1      31.575 -10.425 -19.581  0.00  0.00    +0.022 C 
ATOM      7  C   UNL     1      31.051  -8.781 -21.943  0.00  0.00    +0.094 C 
ATOM      8  C   UNL     1      31.083  -8.982 -19.484  0.00  0.00    +0.094 C 
ATOM      9  C   UNL     1      32.211  -7.029 -20.499  0.00  0.00    +0.249 C 
BRANCH   9  10
ATOM     10  C   UNL     1      32.618  -6.296 -21.704  0.00  0.00    +0.054 C 
ATOM     11  C   UNL     1      31.844  -5.232 -22.167  0.00  0.00    +0.005 C 
ATOM     12  C   UNL     1      33.778  -6.662 -22.385  0.00  0.00    +0.005 C 
ATOM     13  C   UNL     1      32.230  -4.535 -23.311  0.00  0.00    +0.000 C 
ATOM     14  C   UNL     1      34.165  -5.964 -23.529  0.00  0.00    +0.000 C 
ATOM     15  C   UNL     1      33.390  -4.900 -23.993  0.00  0.00    +0.000 C 
ENDBRANCH   9  10
ENDBRANCH   1   4
BRANCH   1  16
ATOM     16  C   UNL     1      32.548 -12.639 -22.278  0.00  0.00    +0.002 C 
BRANCH  16  17
ATOM     17  C   UNL     1      33.814 -13.447 -21.994  0.00  0.00    +0.021 C 
BRANCH  17  18
ATOM     18  C   UNL     1      34.136 -14.396 -23.142  0.00  0.00    +0.090 C 
BRANCH  18  20
ATOM     19  O   UNL     1      33.945 -16.804 -24.742  0.00  0.00    -0.270 OA
ATOM     20  N   UNL     1      34.251 -15.755 -22.689  0.00  0.00    -0.301 N 
ATOM     21  C   UNL     1      34.145 -16.853 -23.533  0.00  0.00    +0.246 C 
ATOM     22  H   UNL     1      34.413 -15.915 -21.731  0.00  0.00    +0.150 HD
BRANCH  21  23
ATOM     23  C   UNL     1      34.304 -18.141 -22.799  0.00  0.00    +0.058 C 
ATOM     24  C   UNL     1      34.259 -18.159 -21.460  0.00  0.00    +0.006 C 
BRANCH  24  26
ATOM     25  N   UNL     1      33.334 -21.205 -19.468  0.00  0.00    -0.242 NA
ATOM     26  C   UNL     1      34.395 -19.371 -20.634  0.00  0.00    +0.019 C 
ATOM     27  C   UNL     1      35.645 -19.834 -20.238  0.00  0.00    +0.003 C 
ATOM     28  C   UNL     1      33.280 -20.087 -20.226  0.00  0.00    +0.099 C 
ATOM     29  C   UNL     1      35.741 -20.981 -19.459  0.00  0.00    +0.021 C 
ATOM     30  C   UNL     1      34.567 -21.624 -19.103  0.00  0.00    +0.099 C 
ENDBRANCH  24  26
ENDBRANCH  21  23
ENDBRANCH  18  20
ENDBRANCH  17  18
ENDBRANCH  16  17
ENDBRANCH   1  16
TORSDOF 8
ENDMDL
MODEL 2
REMARK VINA RESULT:     -12.3      0.851      1.494
REMARK  Name = 6914657
REMARK  8 active torsions:
REMARK  status: ('A' for Active; 'I' for Inactive)
REMARK    1  A    between atoms: C_1  and  C_4
REMARK    2  A    between atoms: C_1  and  C_16
REMARK    3  A    between atoms: C_9  and  C_10
REMARK    4  A    between atoms: C_16  and  C_17
REMARK    5  A    between atoms: C_17  and  C_18
REMARK    6  A    between atoms: C_18  and  N_20
REMARK    7  A    between atoms: C_21  and  C_23
REMARK    8  A    between atoms: C_24  and  C_26
REMARK                            x       y       z     vdW  Elec       q    Type
REMARK                         _______ _______ _______ _____ _____    ______ ____
ROOT
ATOM      1  C   UNL     1      32.454 -12.945 -21.787  0.00  0.00    +0.000 C 
ENDROOT
BRANCH   1   4
ATOM      2  O   UNL     1      31.826  -7.202 -19.466  0.00  0.00    -0.270 OA
ATOM      3  N   UNL     1      31.367  -8.855 -21.055  0.00  0.00    -0.276 N 
ATOM      4  C   UNL     1      31.612 -11.680 -21.645  0.00  0.00    +0.003 C 
ATOM      5  C   UNL     1      32.072 -10.601 -22.639  0.00  0.00    +0.022 C 
ATOM      6  C   UNL     1      31.672 -11.142 -20.206  0.00  0.00    +0.022 C 
ATOM      7  C   UNL     1      31.285  -9.306 -22.450  0.00  0.00    +0.094 C 
ATOM      8  C   UNL     1      30.901  -9.830 -20.070  0.00  0.00    +0.094 C 
ATOM      9  C   UNL     1      31.797  -7.595 -20.631  0.00  0.00    +0.249 C 
BRANCH   9  10
ATOM     10  C   UNL     1      32.270  -6.646 -21.646  0.00  0.00    +0.054 C 
ATOM     11  C   UNL     1      33.505  -6.845 -22.265  0.00  0.00    +0.005 C 
ATOM     12  C   UNL     1      31.486  -5.547 -21.993  0.00  0.00    +0.005 C 
ATOM     13  C   UNL     1      33.954  -5.944 -23.230  0.00  0.00    +0.000 C 
ATOM     14  C   UNL     1      31.935  -4.645 -22.959  0.00  0.00    +0.000 C 
ATOM     15  C   UNL     1      33.170  -4.844 -23.576  0.00  0.00    +0.000 C 
ENDBRANCH   9  10
ENDBRANCH   1   4
BRANCH   1  16
ATOM     16  C   UNL     1      33.217 -12.955 -23.109  0.00  0.00    +0.002 C 
BRANCH  16  17
ATOM     17  C   UNL     1      33.163 -14.335 -23.765  0.00  0.00    +0.021 C 
BRANCH  17  18
ATOM     18  C   UNL     1      34.510 -15.042 -23.681  0.00  0.00    +0.090 C 
BRANCH  18  20
ATOM     19  O   UNL     1      33.692 -17.527 -24.927  0.00  0.00    -0.270 OA
ATOM     20  N   UNL     1      34.392 -16.332 -23.058  0.00  0.00    -0.301 N 
ATOM     21  C   UNL     1      33.990 -17.475 -23.738  0.00  0.00    +0.246 C 
ATOM     22  H   UNL     1      34.609 -16.409 -22.101  0.00  0.00    +0.150 HD
BRANCH  21  23
ATOM     23  C   UNL     1      33.957 -18.673 -22.851  0.00  0.00    +0.058 C 
ATOM     24  C   UNL     1      34.264 -18.552 -21.551  0.00  0.00    +0.006 C 
BRANCH  24  26
ATOM     25  N   UNL     1      35.502 -21.221 -19.217  0.00  0.00    -0.242 NA
ATOM     26  C   UNL     1      34.255 -19.662 -20.583  0.00  0.00    +0.019 C 
ATOM     27  C   UNL     1      33.060 -20.201 -20.119  0.00  0.00    +0.003 C 
ATOM     28  C   UNL     1      35.438 -20.203 -20.105  0.00  0.00    +0.099 C 
ATOM     29  C   UNL     1      33.084 -21.249 -19.206  0.00  0.00    +0.021 C 
ATOM     30  C   UNL     1      34.319 -21.719 -18.790  0.00  0.00    +0.099 C 
ENDBRANCH  24  26
ENDBRANCH  21  23
ENDBRANCH  18  20
ENDBRANCH  17  18
ENDBRANCH  16  17
ENDBRANCH   1  16
TORSDOF 8
ENDMDL
MODEL 3
REMARK VINA RESULT:     -12.0      4.096     12.975
REMARK  Name = 6914657
REMARK  8 active torsions:
REMARK  status: ('A' for Active; 'I' for Inactive)
REMARK    1  A    between atoms: C_1  and  C_4
REMARK    2  A    between atoms: C_1  and  C_16
REMARK    3  A    between atoms: C_9  and  C_10
REMARK    4  A    between atoms: C_16  and  C_17
REMARK    5  A    between atoms: C_17  and  C_18
REMARK    6  A    between atoms: C_18  and  N_20
REMARK    7  A    between atoms: C_21  and  C_23
REMARK    8  A    between atoms: C_24  and  C_26
REMARK                            x       y       z     vdW  Elec       q    Type
REMARK                         _______ _______ _______ _____ _____    ______ ____
ROOT
ATOM      1  C   UNL     1      33.706 -20.234 -20.040  0.00  0.00    +0.000 C 
ENDROOT
BRANCH   1   4
ATOM      2  O   UNL     1      34.840 -22.430 -14.325  0.00  0.00    -0.270 OA
ATOM      3  N   UNL     1      34.021 -22.652 -16.504  0.00  0.00    -0.276 N 
ATOM      4  C   UNL     1      33.968 -21.432 -19.130  0.00  0.00    +0.003 C 
ATOM      5  C   UNL     1      32.680 -21.865 -18.411  0.00  0.00    +0.022 C 
ATOM      6  C   UNL     1      35.070 -21.111 -18.107  0.00  0.00    +0.022 C 
ATOM      7  C   UNL     1      32.950 -23.013 -17.442  0.00  0.00    +0.094 C 
ATOM      8  C   UNL     1      35.283 -22.272 -17.137  0.00  0.00    +0.094 C 
ATOM      9  C   UNL     1      33.931 -22.692 -15.111  0.00  0.00    +0.249 C 
BRANCH   9  10
ATOM     10  C   UNL     1      32.644 -23.066 -14.510  0.00  0.00    +0.054 C 
ATOM     11  C   UNL     1      32.528 -24.259 -13.796  0.00  0.00    +0.005 C 
ATOM     12  C   UNL     1      31.538 -22.229 -14.653  0.00  0.00    +0.005 C 
ATOM     13  C   UNL     1      31.307 -24.614 -13.225  0.00  0.00    +0.000 C 
ATOM     14  C   UNL     1      30.316 -22.584 -14.082  0.00  0.00    +0.000 C 
ATOM     15  C   UNL     1      30.200 -23.777 -13.368  0.00  0.00    +0.000 C 
ENDBRANCH   9  10
ENDBRANCH   1   4
BRANCH   1  16
ATOM     16  C   UNL     1      34.989 -19.772 -20.727  0.00  0.00    +0.002 C 
BRANCH  16  17
ATOM     17  C   UNL     1      34.690 -19.164 -22.098  0.00  0.00    +0.021 C 
BRANCH  17  18
ATOM     18  C   UNL     1      35.685 -18.064 -22.445  0.00  0.00    +0.090 C 
BRANCH  18  20
ATOM     19  O   UNL     1      34.624 -16.276 -20.427  0.00  0.00    -0.270 OA
ATOM     20  N   UNL     1      35.027 -16.803 -22.656  0.00  0.00    -0.301 N 
ATOM     21  C   UNL     1      34.549 -16.009 -21.622  0.00  0.00    +0.246 C 
ATOM     22  H   UNL     1      34.912 -16.486 -23.581  0.00  0.00    +0.150 HD
BRANCH  21  23
ATOM     23  C   UNL     1      33.914 -14.757 -22.124  0.00  0.00    +0.058 C 
ATOM     24  C   UNL     1      33.346 -13.902 -21.262  0.00  0.00    +0.006 C 
BRANCH  24  26
ATOM     25  N   UNL     1      32.509 -10.804 -23.213  0.00  0.00    -0.242 NA
ATOM     26  C   UNL     1      32.699 -12.635 -21.644  0.00  0.00    +0.019 C 
ATOM     27  C   UNL     1      31.706 -12.068 -20.852  0.00  0.00    +0.003 C 
ATOM     28  C   UNL     1      33.061 -11.969 -22.805  0.00  0.00    +0.099 C 
ATOM     29  C   UNL     1      31.115 -10.871 -21.238  0.00  0.00    +0.021 C 
ATOM     30  C   UNL     1      31.548 -10.284 -22.416  0.00  0.00    +0.099 C 
ENDBRANCH  24  26
ENDBRANCH  21  23
ENDBRANCH  18  20
ENDBRANCH  17  18
ENDBRANCH  16  17
ENDBRANCH   1  16
TORSDOF 8
ENDMDL
MODEL 4
REMARK VINA RESULT:     -11.7      8.129     11.869
REMARK  Name = 6914657
REMARK  8 active torsions:
REMARK  status: ('A' for Active; 'I' for Inactive)
REMARK    1  A    between atoms: C_1  and  C_4
REMARK    2  A    between atoms: C_1  and  C_16
REMARK    3  A    between atoms: C_9  and  C_10
REMARK    4  A    between atoms: C_16  and  C_17
REMARK    5  A    between atoms: C_17  and  C_18
REMARK    6  A    between atoms: C_18  and  N_20
REMARK    7  A    between atoms: C_21  and  C_23
REMARK    8  A    between atoms: C_24  and  C_26
REMARK                            x       y       z     vdW  Elec       q    Type
REMARK                         _______ _______ _______ _____ _____    ______ ____
ROOT
ATOM      1  C   UNL     1      36.108 -21.728 -15.731  0.00  0.00    +0.000 C 
ENDROOT
BRANCH   1   4
ATOM      2  O   UNL     1      32.054 -20.385 -20.262  0.00  0.00    -0.270 OA
ATOM      3  N   UNL     1      34.126 -21.155 -19.498  0.00  0.00    -0.276 N 
ATOM      4  C   UNL     1      35.604 -21.984 -17.149  0.00  0.00    +0.003 C 
ATOM      5  C   UNL     1      36.154 -20.930 -18.124  0.00  0.00    +0.022 C 
ATOM      6  C   UNL     1      34.067 -21.998 -17.189  0.00  0.00    +0.022 C 
ATOM      7  C   UNL     1      35.593 -21.134 -19.529  0.00  0.00    +0.094 C 
ATOM      8  C   UNL     1      33.550 -22.169 -18.616  0.00  0.00    +0.094 C 
ATOM      9  C   UNL     1      33.283 -20.339 -20.257  0.00  0.00    +0.249 C 
BRANCH   9  10
ATOM     10  C   UNL     1      33.896 -19.324 -21.121  0.00  0.00    +0.054 C 
ATOM     11  C   UNL     1      33.536 -19.243 -22.467  0.00  0.00    +0.005 C 
ATOM     12  C   UNL     1      34.839 -18.439 -20.598  0.00  0.00    +0.005 C 
ATOM     13  C   UNL     1      34.118 -18.278 -23.288  0.00  0.00    +0.000 C 
ATOM     14  C   UNL     1      35.422 -17.474 -21.420  0.00  0.00    +0.000 C 
ATOM     15  C   UNL     1      35.061 -17.394 -22.765  0.00  0.00    +0.000 C 
ENDBRANCH   9  10
ENDBRANCH   1   4
BRANCH   1  16
ATOM     16  C   UNL     1      37.049 -22.838 -15.270  0.00  0.00    +0.002 C 
BRANCH  16  17
ATOM     17  C   UNL     1      36.700 -23.305 -13.857  0.00  0.00    +0.021 C 
BRANCH  17  18
ATOM     18  C   UNL     1      35.939 -24.625 -13.882  0.00  0.00    +0.090 C 
BRANCH  18  20
ATOM     19  O   UNL     1      34.082 -23.588 -11.914  0.00  0.00    -0.270 OA
ATOM     20  N   UNL     1      34.525 -24.418 -14.041  0.00  0.00    -0.301 N 
ATOM     21  C   UNL     1      33.709 -23.913 -13.037  0.00  0.00    +0.246 C 
ATOM     22  H   UNL     1      34.115 -24.645 -14.907  0.00  0.00    +0.150 HD
BRANCH  21  23
ATOM     23  C   UNL     1      32.288 -23.800 -13.473  0.00  0.00    +0.058 C 
ATOM     24  C   UNL     1      32.000 -23.427 -14.728  0.00  0.00    +0.006 C 
BRANCH  24  26
ATOM     25  N   UNL     1      29.118 -22.180 -16.787  0.00  0.00    -0.242 NA
ATOM     26  C   UNL     1      30.636 -23.292 -15.269  0.00  0.00    +0.019 C 
ATOM     27  C   UNL     1      29.600 -24.099 -14.813  0.00  0.00    +0.003 C 
ATOM     28  C   UNL     1      30.346 -22.356 -16.249  0.00  0.00    +0.099 C 
ATOM     29  C   UNL     1      28.324 -23.948 -15.342  0.00  0.00    +0.021 C 
ATOM     30  C   UNL     1      28.136 -22.982 -16.318  0.00  0.00    +0.099 C 
ENDBRANCH  24  26
ENDBRANCH  21  23
ENDBRANCH  18  20
ENDBRANCH  17  18
ENDBRANCH  16  17
ENDBRANCH   1  16
TORSDOF 8
ENDMDL
MODEL 5
REMARK VINA RESULT:     -11.6      4.407     13.696
REMARK  Name = 6914657
REMARK  8 active torsions:
REMARK  status: ('A' for Active; 'I' for Inactive)
REMARK    1  A    between atoms: C_1  and  C_4
REMARK    2  A    between atoms: C_1  and  C_16
REMARK    3  A    between atoms: C_9  and  C_10
REMARK    4  A    between atoms: C_16  and  C_17
REMARK    5  A    between atoms: C_17  and  C_18
REMARK    6  A    between atoms: C_18  and  N_20
REMARK    7  A    between atoms: C_21  and  C_23
REMARK    8  A    between atoms: C_24  and  C_26
REMARK                            x       y       z     vdW  Elec       q    Type
REMARK                         _______ _______ _______ _____ _____    ______ ____
ROOT
ATOM      1  C   UNL     1      35.539 -21.205 -19.648  0.00  0.00    +0.000 C 
ENDROOT
BRANCH   1   4
ATOM      2  O   UNL     1      34.096 -24.672 -14.681  0.00  0.00    -0.270 OA
ATOM      3  N   UNL     1      34.971 -22.747 -15.679  0.00  0.00    -0.276 N 
ATOM      4  C   UNL     1      35.179 -21.276 -18.165  0.00  0.00    +0.003 C 
ATOM      5  C   UNL     1      36.416 -21.615 -17.318  0.00  0.00    +0.022 C 
ATOM      6  C   UNL     1      34.065 -22.308 -17.922  0.00  0.00    +0.022 C 
ATOM      7  C   UNL     1      36.050 -21.764 -15.843  0.00  0.00    +0.094 C 
ATOM      8  C   UNL     1      33.755 -22.449 -16.433  0.00  0.00    +0.094 C 
ATOM      9  C   UNL     1      35.014 -23.871 -14.851  0.00  0.00    +0.249 C 
BRANCH   9  10
ATOM     10  C   UNL     1      36.256 -24.146 -14.119  0.00  0.00    +0.054 C 
ATOM     11  C   UNL     1      37.275 -24.883 -14.725  0.00  0.00    +0.005 C 
ATOM     12  C   UNL     1      36.420 -23.671 -12.818  0.00  0.00    +0.005 C 
ATOM     13  C   UNL     1      38.455 -25.144 -14.031  0.00  0.00    +0.000 C 
ATOM     14  C   UNL     1      37.601 -23.932 -12.123  0.00  0.00    +0.000 C 
ATOM     15  C   UNL     1      38.619 -24.670 -12.730  0.00  0.00    +0.000 C 
ENDBRANCH   9  10
ENDBRANCH   1   4
BRANCH   1  16
ATOM     16  C   UNL     1      34.982 -19.938 -20.291  0.00  0.00    +0.002 C 
BRANCH  16  17
ATOM     17  C   UNL     1      36.098 -18.937 -20.590  0.00  0.00    +0.021 C 
BRANCH  17  18
ATOM     18  C   UNL     1      35.812 -18.153 -21.866  0.00  0.00    +0.090 C 
BRANCH  18  20
ATOM     19  O   UNL     1      34.596 -16.349 -23.779  0.00  0.00    -0.270 OA
ATOM     20  N   UNL     1      35.119 -16.925 -21.587  0.00  0.00    -0.301 N 
ATOM     21  C   UNL     1      34.565 -16.120 -22.575  0.00  0.00    +0.246 C 
ATOM     22  H   UNL     1      35.033 -16.640 -20.649  0.00  0.00    +0.150 HD
BRANCH  21  23
ATOM     23  C   UNL     1      33.906 -14.909 -22.006  0.00  0.00    +0.058 C 
ATOM     24  C   UNL     1      33.406 -13.973 -22.825  0.00  0.00    +0.006 C 
BRANCH  24  26
ATOM     25  N   UNL     1      32.121 -10.445 -22.810  0.00  0.00    -0.242 NA
ATOM     26  C   UNL     1      32.728 -12.745 -22.376  0.00  0.00    +0.019 C 
ATOM     27  C   UNL     1      32.072 -12.694 -21.151  0.00  0.00    +0.003 C 
ATOM     28  C   UNL     1      32.722 -11.603 -23.162  0.00  0.00    +0.099 C 
ATOM     29  C   UNL     1      31.442 -11.520 -20.754  0.00  0.00    +0.021 C 
ATOM     30  C   UNL     1      31.495 -10.433 -21.612  0.00  0.00    +0.099 C 
ENDBRANCH  24  26
ENDBRANCH  21  23
ENDBRANCH  18  20
ENDBRANCH  17  18
ENDBRANCH  16  17
ENDBRANCH   1  16
TORSDOF 8
ENDMDL
MODEL 6
REMARK VINA RESULT:     -11.6      4.651      8.706
REMARK  Name = 6914657
REMARK  8 active torsions:
REMARK  status: ('A' for Active; 'I' for Inactive)
REMARK    1  A    between atoms: C_1  and  C_4
REMARK    2  A    between atoms: C_1  and  C_16
REMARK    3  A    between atoms: C_9  and  C_10
REMARK    4  A    between atoms: C_16  and  C_17
REMARK    5  A    between atoms: C_17  and  C_18
REMARK    6  A    between atoms: C_18  and  N_20
REMARK    7  A    between atoms: C_21  and  C_23
REMARK    8  A    between atoms: C_24  and  C_26
REMARK                            x       y       z     vdW  Elec       q    Type
REMARK                         _______ _______ _______ _____ _____    ______ ____
ROOT
ATOM      1  C   UNL     1      34.519 -19.755 -20.230  0.00  0.00    +0.000 C 
ENDROOT
BRANCH   1   4
ATOM      2  O   UNL     1      32.708 -16.457 -25.191  0.00  0.00    -0.270 OA
ATOM      3  N   UNL     1      34.246 -17.003 -23.517  0.00  0.00    -0.276 N 
ATOM      4  C   UNL     1      34.897 -18.942 -21.466  0.00  0.00    +0.003 C 
ATOM      5  C   UNL     1      34.838 -17.435 -21.168  0.00  0.00    +0.022 C 
ATOM      6  C   UNL     1      33.980 -19.289 -22.651  0.00  0.00    +0.022 C 
ATOM      7  C   UNL     1      35.141 -16.614 -22.420  0.00  0.00    +0.094 C 
ATOM      8  C   UNL     1      34.295 -18.422 -23.869  0.00  0.00    +0.094 C 
ATOM      9  C   UNL     1      33.426 -16.138 -24.245  0.00  0.00    +0.249 C 
BRANCH   9  10
ATOM     10  C   UNL     1      33.393 -14.723 -23.855  0.00  0.00    +0.054 C 
ATOM     11  C   UNL     1      33.016 -13.753 -24.784  0.00  0.00    +0.005 C 
ATOM     12  C   UNL     1      33.739 -14.348 -22.557  0.00  0.00    +0.005 C 
ATOM     13  C   UNL     1      32.984 -12.409 -24.414  0.00  0.00    +0.000 C 
ATOM     14  C   UNL     1      33.707 -13.004 -22.187  0.00  0.00    +0.000 C 
ATOM     15  C   UNL     1      33.330 -12.034 -23.117  0.00  0.00    +0.000 C 
ENDBRANCH   9  10
ENDBRANCH   1   4
BRANCH   1  16
ATOM     16  C   UNL     1      33.049 -20.164 -20.268  0.00  0.00    +0.002 C 
BRANCH  16  17
ATOM     17  C   UNL     1      32.720 -21.139 -19.137  0.00  0.00    +0.021 C 
BRANCH  17  18
ATOM     18  C   UNL     1      33.873 -22.103 -18.884  0.00  0.00    +0.090 C 
BRANCH  18  20
ATOM     19  O   UNL     1      36.363 -21.414 -17.572  0.00  0.00    -0.270 OA
ATOM     20  N   UNL     1      34.178 -22.206 -17.483  0.00  0.00    -0.301 N 
ATOM     21  C   UNL     1      35.406 -21.850 -16.940  0.00  0.00    +0.246 C 
ATOM     22  H   UNL     1      33.480 -22.545 -16.877  0.00  0.00    +0.150 HD
BRANCH  21  23
ATOM     23  C   UNL     1      35.448 -22.057 -15.464  0.00  0.00    +0.058 C 
ATOM     24  C   UNL     1      35.565 -23.295 -14.964  0.00  0.00    +0.006 C 
BRANCH  24  26
ATOM     25  N   UNL     1      34.463 -24.236 -11.500  0.00  0.00    -0.242 NA
ATOM     26  C   UNL     1      35.625 -23.615 -13.528  0.00  0.00    +0.019 C 
ATOM     27  C   UNL     1      36.835 -23.609 -12.841  0.00  0.00    +0.003 C 
ATOM     28  C   UNL     1      34.478 -23.933 -12.818  0.00  0.00    +0.099 C 
ATOM     29  C   UNL     1      36.860 -23.915 -11.486  0.00  0.00    +0.021 C 
ATOM     30  C   UNL     1      35.658 -24.218 -10.867  0.00  0.00    +0.099 C 
ENDBRANCH  24  26
ENDBRANCH  21  23
ENDBRANCH  18  20
ENDBRANCH  17  18
ENDBRANCH  16  17
ENDBRANCH   1  16
TORSDOF 8
ENDMDL
MODEL 7
REMARK VINA RESULT:     -11.5      4.835     13.236
REMARK  Name = 6914657
REMARK  8 active torsions:
REMARK  status: ('A' for Active; 'I' for Inactive)
REMARK    1  A    between atoms: C_1  and  C_4
REMARK    2  A    between atoms: C_1  and  C_16
REMARK    3  A    between atoms: C_9  and  C_10
REMARK    4  A    between atoms: C_16  and  C_17
REMARK    5  A    between atoms: C_17  and  C_18
REMARK    6  A    between atoms: C_18  and  N_20
REMARK    7  A    between atoms: C_21  and  C_23
REMARK    8  A    between atoms: C_24  and  C_26
REMARK                            x       y       z     vdW  Elec       q    Type
REMARK                         _______ _______ _______ _____ _____    ______ ____
ROOT
ATOM      1  C   UNL     1      35.911 -21.278 -17.350  0.00  0.00    +0.000 C 
ENDROOT
BRANCH   1   4
ATOM      2  O   UNL     1      32.263 -23.060 -12.630  0.00  0.00    -0.270 OA
ATOM      3  N   UNL     1      33.203 -23.364 -14.749  0.00  0.00    -0.276 N 
ATOM      4  C   UNL     1      35.237 -22.409 -16.576  0.00  0.00    +0.003 C 
ATOM      5  C   UNL     1      33.771 -22.569 -17.008  0.00  0.00    +0.022 C 
ATOM      6  C   UNL     1      35.325 -22.161 -15.061  0.00  0.00    +0.022 C 
ATOM      7  C   UNL     1      33.069 -23.646 -16.184  0.00  0.00    +0.094 C 
ATOM      8  C   UNL     1      34.582 -23.242 -14.278  0.00  0.00    +0.094 C 
ATOM      9  C   UNL     1      32.149 -23.255 -13.839  0.00  0.00    +0.249 C 
BRANCH   9  10
ATOM     10  C   UNL     1      30.778 -23.370 -14.350  0.00  0.00    +0.054 C 
ATOM     11  C   UNL     1      30.161 -22.269 -14.946  0.00  0.00    +0.005 C 
ATOM     12  C   UNL     1      30.090 -24.578 -14.240  0.00  0.00    +0.005 C 
ATOM     13  C   UNL     1      28.859 -22.377 -15.431  0.00  0.00    +0.000 C 
ATOM     14  C   UNL     1      28.787 -24.687 -14.726  0.00  0.00    +0.000 C 
ATOM     15  C   UNL     1      28.171 -23.586 -15.321  0.00  0.00    +0.000 C 
ENDBRANCH   9  10
ENDBRANCH   1   4
BRANCH   1  16
ATOM     16  C   UNL     1      35.665 -21.412 -18.851  0.00  0.00    +0.002 C 
BRANCH  16  17
ATOM     17  C   UNL     1      35.757 -20.055 -19.547  0.00  0.00    +0.021 C 
BRANCH  17  18
ATOM     18  C   UNL     1      34.675 -19.901 -20.609  0.00  0.00    +0.090 C 
BRANCH  18  20
ATOM     19  O   UNL     1      36.279 -18.262 -22.379  0.00  0.00    -0.270 OA
ATOM     20  N   UNL     1      34.462 -18.522 -20.952  0.00  0.00    -0.301 N 
ATOM     21  C   UNL     1      35.287 -17.812 -21.815  0.00  0.00    +0.246 C 
ATOM     22  H   UNL     1      33.690 -18.057 -20.555  0.00  0.00    +0.150 HD
BRANCH  21  23
ATOM     23  C   UNL     1      34.834 -16.403 -21.993  0.00  0.00    +0.058 C 
ATOM     24  C   UNL     1      34.276 -16.021 -23.151  0.00  0.00    +0.006 C 
BRANCH  24  26
ATOM     25  N   UNL     1      32.745 -13.123 -24.982  0.00  0.00    -0.242 NA
ATOM     26  C   UNL     1      33.785 -14.661 -23.434  0.00  0.00    +0.019 C 
ATOM     27  C   UNL     1      33.878 -13.652 -22.482  0.00  0.00    +0.003 C 
ATOM     28  C   UNL     1      33.215 -14.348 -24.657  0.00  0.00    +0.099 C 
ATOM     29  C   UNL     1      33.406 -12.378 -22.779  0.00  0.00    +0.021 C 
ATOM     30  C   UNL     1      32.854 -12.167 -24.032  0.00  0.00    +0.099 C 
ENDBRANCH  24  26
ENDBRANCH  21  23
ENDBRANCH  18  20
ENDBRANCH  17  18
ENDBRANCH  16  17
ENDBRANCH   1  16
TORSDOF 8
ENDMDL
MODEL 8
REMARK VINA RESULT:     -11.5      5.528     13.833
REMARK  Name = 6914657
REMARK  8 active torsions:
REMARK  status: ('A' for Active; 'I' for Inactive)
REMARK    1  A    between atoms: C_1  and  C_4
REMARK    2  A    between atoms: C_1  and  C_16
REMARK    3  A    between atoms: C_9  and  C_10
REMARK    4  A    between atoms: C_16  and  C_17
REMARK    5  A    between atoms: C_17  and  C_18
REMARK    6  A    between atoms: C_18  and  N_20
REMARK    7  A    between atoms: C_21  and  C_23
REMARK    8  A    between atoms: C_24  and  C_26
REMARK                            x       y       z     vdW  Elec       q    Type
REMARK                         _______ _______ _______ _____ _____    ______ ____
ROOT
ATOM      1  C   UNL     1      32.716 -22.437 -18.285  0.00  0.00    +0.000 C 
ENDROOT
BRANCH   1   4
ATOM      2  O   UNL     1      33.027 -24.408 -12.387  0.00  0.00    -0.270 OA
ATOM      3  N   UNL     1      33.631 -22.961 -14.121  0.00  0.00    -0.276 N 
ATOM      4  C   UNL     1      32.979 -22.119 -16.815  0.00  0.00    +0.003 C 
ATOM      5  C   UNL     1      34.407 -22.524 -16.415  0.00  0.00    +0.022 C 
ATOM      6  C   UNL     1      31.952 -22.822 -15.912  0.00  0.00    +0.022 C 
ATOM      7  C   UNL     1      34.652 -22.280 -14.927  0.00  0.00    +0.094 C 
ATOM      8  C   UNL     1      32.254 -22.580 -14.434  0.00  0.00    +0.094 C 
ATOM      9  C   UNL     1      33.880 -23.870 -13.091  0.00  0.00    +0.249 C 
BRANCH   9  10
ATOM     10  C   UNL     1      35.273 -24.239 -12.813  0.00  0.00    +0.054 C 
ATOM     11  C   UNL     1      35.907 -23.758 -11.667  0.00  0.00    +0.005 C 
ATOM     12  C   UNL     1      35.965 -25.069 -13.695  0.00  0.00    +0.005 C 
ATOM     13  C   UNL     1      37.231 -24.108 -11.403  0.00  0.00    +0.000 C 
ATOM     14  C   UNL     1      37.289 -25.419 -13.431  0.00  0.00    +0.000 C 
ATOM     15  C   UNL     1      37.922 -24.938 -12.285  0.00  0.00    +0.000 C 
ENDBRANCH   9  10
ENDBRANCH   1   4
BRANCH   1  16
ATOM     16  C   UNL     1      33.251 -21.332 -19.193  0.00  0.00    +0.002 C 
BRANCH  16  17
ATOM     17  C   UNL     1      34.627 -21.696 -19.749  0.00  0.00    +0.021 C 
BRANCH  17  18
ATOM     18  C   UNL     1      35.581 -20.508 -19.690  0.00  0.00    +0.090 C 
BRANCH  18  20
ATOM     19  O   UNL     1      37.006 -18.289 -20.891  0.00  0.00    -0.270 OA
ATOM     20  N   UNL     1      35.014 -19.343 -20.314  0.00  0.00    -0.301 N 
ATOM     21  C   UNL     1      35.779 -18.324 -20.866  0.00  0.00    +0.246 C 
ATOM     22  H   UNL     1      34.034 -19.265 -20.352  0.00  0.00    +0.150 HD
BRANCH  21  23
ATOM     23  C   UNL     1      34.935 -17.241 -21.446  0.00  0.00    +0.058 C 
ATOM     24  C   UNL     1      35.148 -16.827 -22.703  0.00  0.00    +0.006 C 
BRANCH  24  26
ATOM     25  N   UNL     1      33.234 -15.001 -25.368  0.00  0.00    -0.242 NA
ATOM     26  C   UNL     1      34.371 -15.773 -23.379  0.00  0.00    +0.019 C 
ATOM     27  C   UNL     1      34.040 -14.592 -22.723  0.00  0.00    +0.003 C 
ATOM     28  C   UNL     1      33.948 -15.928 -24.689  0.00  0.00    +0.099 C 
ATOM     29  C   UNL     1      33.307 -13.616 -23.388  0.00  0.00    +0.021 C 
ATOM     30  C   UNL     1      32.932 -13.866 -24.698  0.00  0.00    +0.099 C 
ENDBRANCH  24  26
ENDBRANCH  21  23
ENDBRANCH  18  20
ENDBRANCH  17  18
ENDBRANCH  16  17
ENDBRANCH   1  16
TORSDOF 8
ENDMDL
MODEL 9
REMARK VINA RESULT:     -11.4      3.220     12.521
REMARK  Name = 6914657
REMARK  8 active torsions:
REMARK  status: ('A' for Active; 'I' for Inactive)
REMARK    1  A    between atoms: C_1  and  C_4
REMARK    2  A    between atoms: C_1  and  C_16
REMARK    3  A    between atoms: C_9  and  C_10
REMARK    4  A    between atoms: C_16  and  C_17
REMARK    5  A    between atoms: C_17  and  C_18
REMARK    6  A    between atoms: C_18  and  N_20
REMARK    7  A    between atoms: C_21  and  C_23
REMARK    8  A    between atoms: C_24  and  C_26
REMARK                            x       y       z     vdW  Elec       q    Type
REMARK                         _______ _______ _______ _____ _____    ______ ____
ROOT
ATOM      1  C   UNL     1      34.061 -19.112 -20.999  0.00  0.00    +0.000 C 
ENDROOT
BRANCH   1   4
ATOM      2  O   UNL     1      35.665 -22.090 -15.771  0.00  0.00    -0.270 OA
ATOM      3  N   UNL     1      34.641 -21.999 -17.871  0.00  0.00    -0.276 N 
ATOM      4  C   UNL     1      34.375 -20.428 -20.290  0.00  0.00    +0.003 C 
ATOM      5  C   UNL     1      33.149 -20.939 -19.516  0.00  0.00    +0.022 C 
ATOM      6  C   UNL     1      35.575 -20.265 -19.342  0.00  0.00    +0.022 C 
ATOM      7  C   UNL     1      33.478 -22.213 -18.743  0.00  0.00    +0.094 C 
ATOM      8  C   UNL     1      35.848 -21.551 -18.565  0.00  0.00    +0.094 C 
ATOM      9  C   UNL     1      34.680 -22.229 -16.494  0.00  0.00    +0.249 C 
BRANCH   9  10
ATOM     10  C   UNL     1      33.446 -22.666 -15.830  0.00  0.00    +0.054 C 
ATOM     11  C   UNL     1      32.227 -22.599 -16.507  0.00  0.00    +0.005 C 
ATOM     12  C   UNL     1      33.490 -23.147 -14.522  0.00  0.00    +0.005 C 
ATOM     13  C   UNL     1      31.055 -23.013 -15.876  0.00  0.00    +0.000 C 
ATOM     14  C   UNL     1      32.317 -23.563 -13.890  0.00  0.00    +0.000 C 
ATOM     15  C   UNL     1      31.100 -23.495 -14.568  0.00  0.00    +0.000 C 
ENDBRANCH   9  10
ENDBRANCH   1   4
BRANCH   1  16
ATOM     16  C   UNL     1      35.295 -18.557 -21.706  0.00  0.00    +0.002 C 
BRANCH  16  17
ATOM     17  C   UNL     1      35.172 -17.049 -21.923  0.00  0.00    +0.021 C 
BRANCH  17  18
ATOM     18  C   UNL     1      34.438 -16.733 -23.220  0.00  0.00    +0.090 C 
BRANCH  18  20
ATOM     19  O   UNL     1      33.327 -15.263 -25.457  0.00  0.00    -0.270 OA
ATOM     20  N   UNL     1      33.876 -15.410 -23.201  0.00  0.00    -0.301 N 
ATOM     21  C   UNL     1      33.364 -14.781 -24.329  0.00  0.00    +0.246 C 
ATOM     22  H   UNL     1      33.853 -14.925 -22.345  0.00  0.00    +0.150 HD
BRANCH  21  23
ATOM     23  C   UNL     1      32.846 -13.417 -24.024  0.00  0.00    +0.058 C 
ATOM     24  C   UNL     1      32.598 -13.063 -22.755  0.00  0.00    +0.006 C 
BRANCH  24  26
ATOM     25  N   UNL     1      31.895  -9.375 -22.781  0.00  0.00    -0.242 NA
ATOM     26  C   UNL     1      32.095 -11.743 -22.337  0.00  0.00    +0.019 C 
ATOM     27  C   UNL     1      31.371 -11.591 -21.159  0.00  0.00    +0.003 C 
ATOM     28  C   UNL     1      32.327 -10.614 -23.106  0.00  0.00    +0.099 C 
ATOM     29  C   UNL     1      30.910 -10.332 -20.791  0.00  0.00    +0.021 C 
ATOM     30  C   UNL     1      31.195  -9.266 -21.628  0.00  0.00    +0.099 C 
ENDBRANCH  24  26
ENDBRANCH  21  23
ENDBRANCH  18  20
ENDBRANCH  17  18
ENDBRANCH  16  17
ENDBRANCH   1  16
TORSDOF 8
ENDMDL
