MODEL 1
REMARK VINA RESULT:     -12.3      0.000      0.000
REMARK  Name = 9863827
REMARK  4 active torsions:
REMARK  status: ('A' for Active; 'I' for Inactive)
REMARK    1  A    between atoms: N_2  and  C_23
REMARK    2  A    between atoms: C_7  and  C_27
REMARK    3  A    between atoms: C_9  and  C_15
REMARK    4  A    between atoms: C_27  and  O_28
REMARK                            x       y       z     vdW  Elec       q    Type
REMARK                         _______ _______ _______ _____ _____    ______ ____
ROOT
ATOM      1  O   UNL     1      38.314 -23.578 -13.392  0.00  0.00    -0.286 OA
ATOM      2  N   UNL     1      34.322 -23.701 -14.213  0.00  0.00    -0.287 N 
ATOM      3  C   UNL     1      35.178 -23.022 -15.126  0.00  0.00    +0.051 C 
ATOM      4  C   UNL     1      34.858 -24.293 -13.087  0.00  0.00    +0.075 C 
ATOM      5  C   UNL     1      36.565 -22.965 -14.867  0.00  0.00    +0.053 C 
ATOM      6  C   UNL     1      34.702 -22.398 -16.290  0.00  0.00    -0.008 C 
ATOM      7  C   UNL     1      36.153 -24.298 -12.748  0.00  0.00    +0.129 C 
ATOM      8  C   UNL     1      37.115 -23.611 -13.647  0.00  0.00    +0.204 C 
ATOM      9  C   UNL     1      35.575 -21.741 -17.162  0.00  0.00    -0.001 C 
ATOM     10  C   UNL     1      37.438 -22.307 -15.742  0.00  0.00    +0.004 C 
ATOM     11  C   UNL     1      33.255 -22.382 -16.687  0.00  0.00    +0.032 C 
ATOM     12  C   UNL     1      36.939 -21.697 -16.889  0.00  0.00    -0.000 C 
ENDROOT
BRANCH   9  15
ATOM     13  N   UNL     1      35.601 -19.803 -20.346  0.00  0.00    -0.230 NA
ATOM     14  N   UNL     1      33.856 -19.206 -21.838  0.00  0.00    -0.317 N 
ATOM     15  C   UNL     1      35.099 -21.091 -18.370  0.00  0.00    +0.019 C 
ATOM     16  C   UNL     1      33.757 -21.121 -18.712  0.00  0.00    +0.000 C 
ATOM     17  C   UNL     1      35.977 -20.429 -19.208  0.00  0.00    +0.100 C 
ATOM     18  C   UNL     1      33.331 -20.490 -19.875  0.00  0.00    +0.010 C 
ATOM     19  C   UNL     1      34.285 -19.850 -20.651  0.00  0.00    +0.124 C 
ATOM     20  C   UNL     1      31.888 -20.521 -20.245  0.00  0.00    +0.034 C 
ATOM     21  C   UNL     1      34.693 -19.070 -22.986  0.00  0.00    +0.110 C 
ATOM     22  H   UNL     1      32.945 -18.836 -21.873  0.00  0.00    +0.148 HD
ENDBRANCH   9  15
BRANCH   2  23
ATOM     23  C   UNL     1      32.855 -23.829 -14.375  0.00  0.00    +0.077 C 
ATOM     24  C   UNL     1      32.040 -24.581 -13.376  0.00  0.00    +0.022 C 
ATOM     25  C   UNL     1      31.921 -23.089 -13.478  0.00  0.00    +0.022 C 
ENDBRANCH   2  23
BRANCH   7  27
ATOM     26  O   UNL     1      36.604 -26.187 -11.377  0.00  0.00    -0.245 OA
ATOM     27  C   UNL     1      36.548 -24.978 -11.513  0.00  0.00    +0.342 C 
BRANCH  27  28
ATOM     28  O   UNL     1      36.833 -24.063 -10.563  0.00  0.00    -0.477 OA
ATOM     29  H   UNL     1      36.143 -23.673 -10.065  0.00  0.00    +0.295 HD
ENDBRANCH  27  28
ENDBRANCH   7  27
TORSDOF 4
ENDMDL
MODEL 2
REMARK VINA RESULT:     -11.4      1.476      2.272
REMARK  Name = 9863827
REMARK  4 active torsions:
REMARK  status: ('A' for Active; 'I' for Inactive)
REMARK    1  A    between atoms: N_2  and  C_23
REMARK    2  A    between atoms: C_7  and  C_27
REMARK    3  A    between atoms: C_9  and  C_15
REMARK    4  A    between atoms: C_27  and  O_28
REMARK                            x       y       z     vdW  Elec       q    Type
REMARK                         _______ _______ _______ _____ _____    ______ ____
ROOT
ATOM      1  O   UNL     1      37.049 -23.002 -13.915  0.00  0.00    -0.286 OA
ATOM      2  N   UNL     1      33.360 -23.059 -15.650  0.00  0.00    -0.287 N 
ATOM      3  C   UNL     1      34.417 -22.396 -16.335  0.00  0.00    +0.051 C 
ATOM      4  C   UNL     1      33.607 -23.659 -14.431  0.00  0.00    +0.075 C 
ATOM      5  C   UNL     1      35.706 -22.361 -15.757  0.00  0.00    +0.053 C 
ATOM      6  C   UNL     1      34.238 -21.765 -17.576  0.00  0.00    -0.008 C 
ATOM      7  C   UNL     1      34.786 -23.685 -13.797  0.00  0.00    +0.129 C 
ATOM      8  C   UNL     1      35.944 -23.015 -14.444  0.00  0.00    +0.204 C 
ATOM      9  C   UNL     1      35.302 -21.124 -18.217  0.00  0.00    -0.001 C 
ATOM     10  C   UNL     1      36.771 -21.718 -16.401  0.00  0.00    +0.004 C 
ATOM     11  C   UNL     1      32.925 -21.725 -18.301  0.00  0.00    +0.032 C 
ATOM     12  C   UNL     1      36.564 -21.102 -17.632  0.00  0.00    -0.000 C 
ENDROOT
BRANCH   9  15
ATOM     13  N   UNL     1      33.756 -20.061 -21.439  0.00  0.00    -0.230 NA
ATOM     14  N   UNL     1      34.546 -18.645 -23.170  0.00  0.00    -0.317 N 
ATOM     15  C   UNL     1      35.134 -20.467 -19.501  0.00  0.00    +0.019 C 
ATOM     16  C   UNL     1      36.127 -19.650 -20.017  0.00  0.00    +0.000 C 
ATOM     17  C   UNL     1      33.977 -20.642 -20.237  0.00  0.00    +0.100 C 
ATOM     18  C   UNL     1      35.937 -19.035 -21.249  0.00  0.00    +0.010 C 
ATOM     19  C   UNL     1      34.744 -19.271 -21.915  0.00  0.00    +0.124 C 
ATOM     20  C   UNL     1      37.004 -18.156 -21.806  0.00  0.00    +0.034 C 
ATOM     21  C   UNL     1      33.254 -18.279 -23.653  0.00  0.00    +0.110 C 
ATOM     22  H   UNL     1      35.331 -18.456 -23.733  0.00  0.00    +0.148 HD
ENDBRANCH   9  15
BRANCH   2  23
ATOM     23  C   UNL     1      31.970 -23.163 -16.151  0.00  0.00    +0.077 C 
ATOM     24  C   UNL     1      30.936 -23.915 -15.383  0.00  0.00    +0.022 C 
ATOM     25  C   UNL     1      30.861 -22.420 -15.485  0.00  0.00    +0.022 C 
ENDBRANCH   2  23
BRANCH   7  27
ATOM     26  O   UNL     1      34.210 -24.077 -11.525  0.00  0.00    -0.245 OA
ATOM     27  C   UNL     1      34.869 -24.370 -12.506  0.00  0.00    +0.342 C 
BRANCH  27  28
ATOM     28  O   UNL     1      35.782 -25.362 -12.578  0.00  0.00    -0.477 OA
ATOM     29  H   UNL     1      36.239 -25.635 -11.807  0.00  0.00    +0.295 HD
ENDBRANCH  27  28
ENDBRANCH   7  27
TORSDOF 4
ENDMDL
MODEL 3
REMARK VINA RESULT:     -10.5      2.304      4.230
REMARK  Name = 9863827
REMARK  4 active torsions:
REMARK  status: ('A' for Active; 'I' for Inactive)
REMARK    1  A    between atoms: N_2  and  C_23
REMARK    2  A    between atoms: C_7  and  C_27
REMARK    3  A    between atoms: C_9  and  C_15
REMARK    4  A    between atoms: C_27  and  O_28
REMARK                            x       y       z     vdW  Elec       q    Type
REMARK                         _______ _______ _______ _____ _____    ______ ____
ROOT
ATOM      1  O   UNL     1      31.131 -23.310 -15.480  0.00  0.00    -0.286 OA
ATOM      2  N   UNL     1      35.066 -22.532 -16.211  0.00  0.00    -0.287 N 
ATOM      3  C   UNL     1      34.098 -22.034 -17.128  0.00  0.00    +0.051 C 
ATOM      4  C   UNL     1      34.653 -23.257 -15.110  0.00  0.00    +0.075 C 
ATOM      5  C   UNL     1      32.728 -22.288 -16.899  0.00  0.00    +0.053 C 
ATOM      6  C   UNL     1      34.446 -21.290 -18.268  0.00  0.00    -0.008 C 
ATOM      7  C   UNL     1      33.385 -23.553 -14.800  0.00  0.00    +0.129 C 
ATOM      8  C   UNL     1      32.312 -23.071 -15.706  0.00  0.00    +0.204 C 
ATOM      9  C   UNL     1      33.466 -20.818 -19.145  0.00  0.00    -0.001 C 
ATOM     10  C   UNL     1      31.747 -21.814 -17.780  0.00  0.00    +0.004 C 
ATOM     11  C   UNL     1      35.861 -20.948 -18.631  0.00  0.00    +0.032 C 
ATOM     12  C   UNL     1      32.121 -21.078 -18.901  0.00  0.00    -0.000 C 
ENDROOT
BRANCH   9  15
ATOM     13  N   UNL     1      33.119 -19.099 -22.434  0.00  0.00    -0.230 NA
ATOM     14  N   UNL     1      34.671 -17.864 -23.734  0.00  0.00    -0.317 N 
ATOM     15  C   UNL     1      33.808 -20.047 -20.327  0.00  0.00    +0.019 C 
ATOM     16  C   UNL     1      35.084 -19.533 -20.495  0.00  0.00    +0.000 C 
ATOM     17  C   UNL     1      32.867 -19.808 -21.310  0.00  0.00    +0.100 C 
ATOM     18  C   UNL     1      35.382 -18.799 -21.637  0.00  0.00    +0.010 C 
ATOM     19  C   UNL     1      34.373 -18.612 -22.569  0.00  0.00    +0.124 C 
ATOM     20  C   UNL     1      36.753 -18.245 -21.820  0.00  0.00    +0.034 C 
ATOM     21  C   UNL     1      33.692 -17.089 -24.424  0.00  0.00    +0.110 C 
ATOM     22  H   UNL     1      35.592 -17.879 -24.083  0.00  0.00    +0.148 HD
ENDBRANCH   9  15
BRANCH   2  23
ATOM     23  C   UNL     1      36.529 -22.332 -16.342  0.00  0.00    +0.077 C 
ATOM     24  C   UNL     1      37.242 -21.338 -15.488  0.00  0.00    +0.022 C 
ATOM     25  C   UNL     1      37.461 -22.808 -15.280  0.00  0.00    +0.022 C 
ENDBRANCH   2  23
BRANCH   7  27
ATOM     26  O   UNL     1      33.721 -24.190 -12.535  0.00  0.00    -0.245 OA
ATOM     27  C   UNL     1      33.128 -24.334 -13.589  0.00  0.00    +0.342 C 
BRANCH  27  28
ATOM     28  O   UNL     1      32.144 -25.227 -13.827  0.00  0.00    -0.477 OA
ATOM     29  H   UNL     1      31.687 -25.214 -14.644  0.00  0.00    +0.295 HD
ENDBRANCH  27  28
ENDBRANCH   7  27
TORSDOF 4
ENDMDL
MODEL 4
REMARK VINA RESULT:     -10.1      6.924     11.359
REMARK  Name = 9863827
REMARK  4 active torsions:
REMARK  status: ('A' for Active; 'I' for Inactive)
REMARK    1  A    between atoms: N_2  and  C_23
REMARK    2  A    between atoms: C_7  and  C_27
REMARK    3  A    between atoms: C_9  and  C_15
REMARK    4  A    between atoms: C_27  and  O_28
REMARK                            x       y       z     vdW  Elec       q    Type
REMARK                         _______ _______ _______ _____ _____    ______ ____
ROOT
ATOM      1  O   UNL     1      33.289 -15.190 -26.162  0.00  0.00    -0.286 OA
ATOM      2  N   UNL     1      33.425 -14.114 -22.232  0.00  0.00    -0.287 N 
ATOM      3  C   UNL     1      33.727 -15.463 -22.573  0.00  0.00    +0.051 C 
ATOM      4  C   UNL     1      33.098 -13.216 -23.228  0.00  0.00    +0.075 C 
ATOM      5  C   UNL     1      33.689 -15.863 -23.927  0.00  0.00    +0.053 C 
ATOM      6  C   UNL     1      34.068 -16.430 -21.613  0.00  0.00    -0.008 C 
ATOM      7  C   UNL     1      33.032 -13.489 -24.537  0.00  0.00    +0.129 C 
ATOM      8  C   UNL     1      33.333 -14.875 -24.979  0.00  0.00    +0.204 C 
ATOM      9  C   UNL     1      34.358 -17.744 -21.988  0.00  0.00    -0.001 C 
ATOM     10  C   UNL     1      33.981 -17.181 -24.301  0.00  0.00    +0.004 C 
ATOM     11  C   UNL     1      34.146 -16.142 -20.143  0.00  0.00    +0.032 C 
ATOM     12  C   UNL     1      34.315 -18.118 -23.328  0.00  0.00    -0.000 C 
ENDROOT
BRANCH   9  15
ATOM     13  N   UNL     1      36.380 -19.716 -19.554  0.00  0.00    -0.230 NA
ATOM     14  N   UNL     1      35.832 -21.591 -18.210  0.00  0.00    -0.317 N 
ATOM     15  C   UNL     1      34.712 -18.756 -21.008  0.00  0.00    +0.019 C 
ATOM     16  C   UNL     1      33.784 -19.696 -20.590  0.00  0.00    +0.000 C 
ATOM     17  C   UNL     1      35.984 -18.802 -20.469  0.00  0.00    +0.100 C 
ATOM     18  C   UNL     1      34.153 -20.652 -19.650  0.00  0.00    +0.010 C 
ATOM     19  C   UNL     1      35.452 -20.619 -19.168  0.00  0.00    +0.124 C 
ATOM     20  C   UNL     1      33.156 -21.664 -19.200  0.00  0.00    +0.034 C 
ATOM     21  C   UNL     1      36.822 -21.344 -17.213  0.00  0.00    +0.110 C 
ATOM     22  H   UNL     1      35.395 -22.473 -18.232  0.00  0.00    +0.148 HD
ENDBRANCH   9  15
BRANCH   2  23
ATOM     23  C   UNL     1      33.431 -13.575 -20.852  0.00  0.00    +0.077 C 
ATOM     24  C   UNL     1      32.744 -12.291 -20.531  0.00  0.00    +0.022 C 
ATOM     25  C   UNL     1      32.192 -13.589 -20.022  0.00  0.00    +0.022 C 
ENDBRANCH   2  23
BRANCH   7  27
ATOM     26  O   UNL     1      32.452 -12.561 -26.647  0.00  0.00    -0.245 OA
ATOM     27  C   UNL     1      32.668 -12.410 -25.457  0.00  0.00    +0.342 C 
BRANCH  27  28
ATOM     28  O   UNL     1      32.615 -11.241 -24.786  0.00  0.00    -0.477 OA
ATOM     29  H   UNL     1      33.128 -10.512 -25.073  0.00  0.00    +0.295 HD
ENDBRANCH  27  28
ENDBRANCH   7  27
TORSDOF 4
ENDMDL
MODEL 5
REMARK VINA RESULT:      -9.5      2.048      3.354
REMARK  Name = 9863827
REMARK  4 active torsions:
REMARK  status: ('A' for Active; 'I' for Inactive)
REMARK    1  A    between atoms: N_2  and  C_23
REMARK    2  A    between atoms: C_7  and  C_27
REMARK    3  A    between atoms: C_9  and  C_15
REMARK    4  A    between atoms: C_27  and  O_28
REMARK                            x       y       z     vdW  Elec       q    Type
REMARK                         _______ _______ _______ _____ _____    ______ ____
ROOT
ATOM      1  O   UNL     1      37.216 -22.413 -15.741  0.00  0.00    -0.286 OA
ATOM      2  N   UNL     1      33.367 -22.372 -17.085  0.00  0.00    -0.287 N 
ATOM      3  C   UNL     1      34.344 -21.635 -17.814  0.00  0.00    +0.051 C 
ATOM      4  C   UNL     1      33.743 -23.073 -15.957  0.00  0.00    +0.075 C 
ATOM      5  C   UNL     1      35.685 -21.633 -17.371  0.00  0.00    +0.053 C 
ATOM      6  C   UNL     1      34.033 -20.900 -18.969  0.00  0.00    -0.008 C 
ATOM      7  C   UNL     1      34.981 -23.137 -15.453  0.00  0.00    +0.129 C 
ATOM      8  C   UNL     1      36.061 -22.396 -16.153  0.00  0.00    +0.204 C 
ATOM      9  C   UNL     1      35.021 -20.189 -19.656  0.00  0.00    -0.001 C 
ATOM     10  C   UNL     1      36.674 -20.920 -18.062  0.00  0.00    +0.004 C 
ATOM     11  C   UNL     1      32.652 -20.816 -19.548  0.00  0.00    +0.032 C 
ATOM     12  C   UNL     1      36.337 -20.200 -19.204  0.00  0.00    -0.000 C 
ENDROOT
BRANCH   9  15
ATOM     13  N   UNL     1      34.250 -17.285 -21.862  0.00  0.00    -0.230 NA
ATOM     14  N   UNL     1      33.849 -17.146 -24.196  0.00  0.00    -0.317 N 
ATOM     15  C   UNL     1      34.717 -19.425 -20.853  0.00  0.00    +0.019 C 
ATOM     16  C   UNL     1      34.603 -20.049 -22.085  0.00  0.00    +0.000 C 
ATOM     17  C   UNL     1      34.535 -18.056 -20.789  0.00  0.00    +0.100 C 
ATOM     18  C   UNL     1      34.311 -19.289 -23.213  0.00  0.00    +0.010 C 
ATOM     19  C   UNL     1      34.145 -17.923 -23.049  0.00  0.00    +0.124 C 
ATOM     20  C   UNL     1      34.188 -19.958 -24.539  0.00  0.00    +0.034 C 
ATOM     21  C   UNL     1      34.247 -15.782 -24.326  0.00  0.00    +0.110 C 
ATOM     22  H   UNL     1      33.346 -17.562 -24.933  0.00  0.00    +0.148 HD
ENDBRANCH   9  15
BRANCH   2  23
ATOM     23  C   UNL     1      31.932 -22.451 -17.448  0.00  0.00    +0.077 C 
ATOM     24  C   UNL     1      31.028 -23.429 -16.776  0.00  0.00    +0.022 C 
ATOM     25  C   UNL     1      30.881 -21.959 -16.513  0.00  0.00    +0.022 C 
ENDBRANCH   2  23
BRANCH   7  27
ATOM     26  O   UNL     1      34.660 -23.725 -13.172  0.00  0.00    -0.245 OA
ATOM     27  C   UNL     1      35.201 -23.932 -14.243  0.00  0.00    +0.342 C 
BRANCH  27  28
ATOM     28  O   UNL     1      36.089 -24.915 -14.503  0.00  0.00    -0.477 OA
ATOM     29  H   UNL     1      35.806 -25.808 -14.527  0.00  0.00    +0.295 HD
ENDBRANCH  27  28
ENDBRANCH   7  27
TORSDOF 4
ENDMDL
