MODEL 1
REMARK VINA RESULT:     -12.0      0.000      0.000
REMARK  Name = 54755438
REMARK  5 active torsions:
REMARK  status: ('A' for Active; 'I' for Inactive)
REMARK    1  A    between atoms: N_2  and  C_13
REMARK    2  A    between atoms: N_3  and  C_21
REMARK    3  A    between atoms: C_17  and  C_18
REMARK    4  A    between atoms: C_26  and  O_27
REMARK    5  A    between atoms: O_27  and  C_28
REMARK                            x       y       z     vdW  Elec       q    Type
REMARK                         _______ _______ _______ _____ _____    ______ ____
ROOT
ATOM      1  O   UNL     1      34.241 -14.428 -19.990  0.00  0.00    -0.252 OA
ATOM      2  N   UNL     1      34.490 -16.046 -21.687  0.00  0.00    -0.230 N 
ATOM      3  N   UNL     1      33.343 -14.149 -22.198  0.00  0.00    -0.231 N 
ATOM      4  N   UNL     1      34.321 -17.147 -23.875  0.00  0.00    -0.231 NA
ATOM      5  N   UNL     1      33.191 -15.817 -25.557  0.00  0.00    -0.232 NA
ATOM      6  C   UNL     1      34.075 -16.141 -23.024  0.00  0.00    +0.138 C 
ATOM      7  C   UNL     1      34.058 -14.808 -21.139  0.00  0.00    +0.316 C 
ATOM      8  C   UNL     1      33.386 -14.980 -23.338  0.00  0.00    +0.188 C 
ATOM      9  C   UNL     1      32.981 -14.844 -24.640  0.00  0.00    +0.125 C 
ATOM     10  C   UNL     1      33.845 -16.919 -25.115  0.00  0.00    +0.253 C 
ATOM     11  N   UNL     1      32.317 -13.669 -25.049  0.00  0.00    -0.345 N 
ATOM     12  H   UNL     1      32.025 -13.569 -25.985  0.00  0.00    +0.143 HD
ATOM     13  H   UNL     1      32.145 -12.949 -24.401  0.00  0.00    +0.143 HD
ENDROOT
BRANCH   2  16
ATOM     14  O   UNL     1      35.829 -21.590 -20.073  0.00  0.00    -0.260 OA
ATOM     15  N   UNL     1      35.302 -19.390 -20.575  0.00  0.00    -0.268 N 
ATOM     16  C   UNL     1      35.245 -17.075 -21.017  0.00  0.00    +0.104 C 
ATOM     17  C   UNL     1      36.298 -17.729 -21.910  0.00  0.00    +0.044 C 
ATOM     18  C   UNL     1      34.383 -18.255 -20.581  0.00  0.00    +0.115 C 
ATOM     19  C   UNL     1      36.571 -19.044 -21.197  0.00  0.00    +0.096 C 
ATOM     20  C   UNL     1      35.043 -20.648 -20.063  0.00  0.00    +0.292 C 
BRANCH  20  21
ATOM     21  C   UNL     1      33.740 -20.866 -19.474  0.00  0.00    -0.007 C 
ATOM     22  C   UNL     1      32.660 -21.047 -18.985  0.00  0.00    -0.081 C 
ATOM     23  C   UNL     1      31.342 -21.267 -18.389  0.00  0.00    +0.090 C 
ENDBRANCH  20  21
ENDBRANCH   2  16
BRANCH   3  24
ATOM     24  C   UNL     1      32.706 -12.888 -22.114  0.00  0.00    +0.056 C 
ATOM     25  C   UNL     1      31.723 -12.666 -21.149  0.00  0.00    +0.018 C 
ATOM     26  C   UNL     1      33.059 -11.867 -22.996  0.00  0.00    +0.018 C 
ATOM     27  C   UNL     1      31.095 -11.423 -21.065  0.00  0.00    +0.039 C 
ATOM     28  C   UNL     1      32.431 -10.624 -22.912  0.00  0.00    +0.039 C 
ATOM     29  C   UNL     1      31.449 -10.403 -21.947  0.00  0.00    +0.145 C 
BRANCH  29  30
ATOM     30  O   UNL     1      30.836  -9.190 -21.865  0.00  0.00    -0.453 OA
BRANCH  30  31
ATOM     31  C   UNL     1      31.573  -8.070 -22.210  0.00  0.00    +0.145 C 
ATOM     32  C   UNL     1      32.343  -7.418 -21.246  0.00  0.00    +0.037 C 
ATOM     33  C   UNL     1      31.548  -7.595 -23.520  0.00  0.00    +0.037 C 
ATOM     34  C   UNL     1      33.086  -6.290 -21.593  0.00  0.00    +0.003 C 
ATOM     35  C   UNL     1      32.292  -6.467 -23.868  0.00  0.00    +0.003 C 
ATOM     36  C   UNL     1      33.060  -5.814 -22.904  0.00  0.00    +0.000 C 
ENDBRANCH  30  31
ENDBRANCH  29  30
ENDBRANCH   3  24
TORSDOF 5
ENDMDL
MODEL 2
REMARK VINA RESULT:     -11.6      5.820     10.114
REMARK  Name = 54755438
REMARK  5 active torsions:
REMARK  status: ('A' for Active; 'I' for Inactive)
REMARK    1  A    between atoms: N_2  and  C_13
REMARK    2  A    between atoms: N_3  and  C_21
REMARK    3  A    between atoms: C_17  and  C_18
REMARK    4  A    between atoms: C_26  and  O_27
REMARK    5  A    between atoms: O_27  and  C_28
REMARK                            x       y       z     vdW  Elec       q    Type
REMARK                         _______ _______ _______ _____ _____    ______ ____
ROOT
ATOM      1  O   UNL     1      35.986 -22.740 -16.257  0.00  0.00    -0.252 OA
ATOM      2  N   UNL     1      33.924 -23.280 -15.250  0.00  0.00    -0.230 N 
ATOM      3  N   UNL     1      33.871 -22.115 -17.203  0.00  0.00    -0.231 N 
ATOM      4  N   UNL     1      31.501 -23.442 -14.885  0.00  0.00    -0.231 NA
ATOM      5  N   UNL     1      30.174 -22.469 -16.664  0.00  0.00    -0.232 NA
ATOM      6  C   UNL     1      32.579 -23.041 -15.573  0.00  0.00    +0.138 C 
ATOM      7  C   UNL     1      34.763 -22.722 -16.252  0.00  0.00    +0.316 C 
ATOM      8  C   UNL     1      32.547 -22.342 -16.770  0.00  0.00    +0.188 C 
ATOM      9  C   UNL     1      31.308 -22.098 -17.302  0.00  0.00    +0.125 C 
ATOM     10  C   UNL     1      30.339 -23.114 -15.484  0.00  0.00    +0.253 C 
ATOM     11  N   UNL     1      31.195 -21.434 -18.541  0.00  0.00    -0.345 N 
ATOM     12  H   UNL     1      30.306 -21.258 -18.925  0.00  0.00    +0.143 HD
ATOM     13  H   UNL     1      32.005 -21.147 -19.022  0.00  0.00    +0.143 HD
ENDROOT
BRANCH   2  16
ATOM     14  O   UNL     1      37.570 -24.719 -10.805  0.00  0.00    -0.260 OA
ATOM     15  N   UNL     1      36.141 -24.285 -12.576  0.00  0.00    -0.268 N 
ATOM     16  C   UNL     1      34.340 -23.993 -14.069  0.00  0.00    +0.104 C 
ATOM     17  C   UNL     1      34.044 -23.239 -12.773  0.00  0.00    +0.044 C 
ATOM     18  C   UNL     1      35.849 -24.207 -14.005  0.00  0.00    +0.115 C 
ATOM     19  C   UNL     1      34.987 -23.899 -11.779  0.00  0.00    +0.096 C 
ATOM     20  C   UNL     1      37.344 -24.666 -12.009  0.00  0.00    +0.292 C 
BRANCH  20  21
ATOM     21  C   UNL     1      38.416 -25.023 -12.911  0.00  0.00    -0.007 C 
ATOM     22  C   UNL     1      39.305 -25.319 -13.661  0.00  0.00    -0.081 C 
ATOM     23  C   UNL     1      40.389 -25.680 -14.574  0.00  0.00    +0.090 C 
ENDBRANCH  20  21
ENDBRANCH   2  16
BRANCH   3  24
ATOM     24  C   UNL     1      34.252 -21.412 -18.371  0.00  0.00    +0.056 C 
ATOM     25  C   UNL     1      35.604 -21.224 -18.663  0.00  0.00    +0.018 C 
ATOM     26  C   UNL     1      33.278 -20.906 -19.232  0.00  0.00    +0.018 C 
ATOM     27  C   UNL     1      35.981 -20.531 -19.813  0.00  0.00    +0.039 C 
ATOM     28  C   UNL     1      33.655 -20.214 -20.382  0.00  0.00    +0.039 C 
ATOM     29  C   UNL     1      35.006 -20.026 -20.673  0.00  0.00    +0.145 C 
BRANCH  29  30
ATOM     30  O   UNL     1      35.374 -19.350 -21.796  0.00  0.00    -0.453 OA
BRANCH  30  31
ATOM     31  C   UNL     1      34.953 -18.038 -21.925  0.00  0.00    +0.145 C 
ATOM     32  C   UNL     1      34.875 -17.216 -20.800  0.00  0.00    +0.037 C 
ATOM     33  C   UNL     1      34.607 -17.537 -23.179  0.00  0.00    +0.037 C 
ATOM     34  C   UNL     1      34.451 -15.894 -20.930  0.00  0.00    +0.003 C 
ATOM     35  C   UNL     1      34.184 -16.214 -23.310  0.00  0.00    +0.003 C 
ATOM     36  C   UNL     1      34.105 -15.393 -22.185  0.00  0.00    +0.000 C 
ENDBRANCH  30  31
ENDBRANCH  29  30
ENDBRANCH   3  24
TORSDOF 5
ENDMDL
MODEL 3
REMARK VINA RESULT:     -11.3      1.723     10.002
REMARK  Name = 54755438
REMARK  5 active torsions:
REMARK  status: ('A' for Active; 'I' for Inactive)
REMARK    1  A    between atoms: N_2  and  C_13
REMARK    2  A    between atoms: N_3  and  C_21
REMARK    3  A    between atoms: C_17  and  C_18
REMARK    4  A    between atoms: C_26  and  O_27
REMARK    5  A    between atoms: O_27  and  C_28
REMARK                            x       y       z     vdW  Elec       q    Type
REMARK                         _______ _______ _______ _____ _____    ______ ____
ROOT
ATOM      1  O   UNL     1      33.657 -14.778 -19.654  0.00  0.00    -0.252 OA
ATOM      2  N   UNL     1      33.192 -13.751 -21.725  0.00  0.00    -0.230 N 
ATOM      3  N   UNL     1      33.964 -15.890 -21.759  0.00  0.00    -0.231 N 
ATOM      4  N   UNL     1      32.954 -13.436 -24.149  0.00  0.00    -0.231 NA
ATOM      5  N   UNL     1      33.494 -15.407 -25.451  0.00  0.00    -0.232 NA
ATOM      6  C   UNL     1      33.283 -14.154 -23.066  0.00  0.00    +0.138 C 
ATOM      7  C   UNL     1      33.601 -14.815 -20.877  0.00  0.00    +0.316 C 
ATOM      8  C   UNL     1      33.742 -15.462 -23.086  0.00  0.00    +0.188 C 
ATOM      9  C   UNL     1      33.807 -16.068 -24.313  0.00  0.00    +0.125 C 
ATOM     10  C   UNL     1      33.092 -14.122 -25.301  0.00  0.00    +0.253 C 
ATOM     11  N   UNL     1      34.218 -17.413 -24.410  0.00  0.00    -0.345 N 
ATOM     12  H   UNL     1      34.265 -17.851 -25.291  0.00  0.00    +0.143 HD
ATOM     13  H   UNL     1      34.459 -17.916 -23.598  0.00  0.00    +0.143 HD
ENDROOT
BRANCH   2  16
ATOM     14  O   UNL     1      31.254  -8.208 -22.532  0.00  0.00    -0.260 OA
ATOM     15  N   UNL     1      32.110 -10.326 -22.142  0.00  0.00    -0.268 N 
ATOM     16  C   UNL     1      32.739 -12.444 -21.321  0.00  0.00    +0.104 C 
ATOM     17  C   UNL     1      31.217 -12.321 -21.273  0.00  0.00    +0.044 C 
ATOM     18  C   UNL     1      33.143 -11.346 -22.300  0.00  0.00    +0.115 C 
ATOM     19  C   UNL     1      31.001 -10.817 -21.338  0.00  0.00    +0.096 C 
ATOM     20  C   UNL     1      32.136  -9.048 -22.673  0.00  0.00    +0.292 C 
BRANCH  20  21
ATOM     21  C   UNL     1      33.294  -8.683 -23.457  0.00  0.00    -0.007 C 
ATOM     22  C   UNL     1      34.255  -8.380 -24.110  0.00  0.00    -0.081 C 
ATOM     23  C   UNL     1      35.425  -8.010 -24.904  0.00  0.00    +0.090 C 
ENDBRANCH  20  21
ENDBRANCH   2  16
BRANCH   3  24
ATOM     24  C   UNL     1      34.458 -17.158 -21.368  0.00  0.00    +0.056 C 
ATOM     25  C   UNL     1      33.569 -18.179 -21.031  0.00  0.00    +0.018 C 
ATOM     26  C   UNL     1      35.833 -17.388 -21.321  0.00  0.00    +0.018 C 
ATOM     27  C   UNL     1      34.054 -19.429 -20.645  0.00  0.00    +0.039 C 
ATOM     28  C   UNL     1      36.318 -18.638 -20.936  0.00  0.00    +0.039 C 
ATOM     29  C   UNL     1      35.430 -19.657 -20.598  0.00  0.00    +0.145 C 
BRANCH  29  30
ATOM     30  O   UNL     1      35.903 -20.877 -20.222  0.00  0.00    -0.453 OA
BRANCH  30  31
ATOM     31  C   UNL     1      35.500 -21.374 -18.994  0.00  0.00    +0.145 C 
ATOM     32  C   UNL     1      36.351 -21.286 -17.892  0.00  0.00    +0.037 C 
ATOM     33  C   UNL     1      34.243 -21.962 -18.858  0.00  0.00    +0.037 C 
ATOM     34  C   UNL     1      35.946 -21.787 -16.655  0.00  0.00    +0.003 C 
ATOM     35  C   UNL     1      33.837 -22.462 -17.621  0.00  0.00    +0.003 C 
ATOM     36  C   UNL     1      34.688 -22.375 -16.520  0.00  0.00    +0.000 C 
ENDBRANCH  30  31
ENDBRANCH  29  30
ENDBRANCH   3  24
TORSDOF 5
ENDMDL
MODEL 4
REMARK VINA RESULT:     -11.1      1.722      9.983
REMARK  Name = 54755438
REMARK  5 active torsions:
REMARK  status: ('A' for Active; 'I' for Inactive)
REMARK    1  A    between atoms: N_2  and  C_13
REMARK    2  A    between atoms: N_3  and  C_21
REMARK    3  A    between atoms: C_17  and  C_18
REMARK    4  A    between atoms: C_26  and  O_27
REMARK    5  A    between atoms: O_27  and  C_28
REMARK                            x       y       z     vdW  Elec       q    Type
REMARK                         _______ _______ _______ _____ _____    ______ ____
ROOT
ATOM      1  O   UNL     1      33.246 -13.310 -20.341  0.00  0.00    -0.252 OA
ATOM      2  N   UNL     1      32.677 -12.231 -22.359  0.00  0.00    -0.230 N 
ATOM      3  N   UNL     1      33.514 -14.343 -22.491  0.00  0.00    -0.231 N 
ATOM      4  N   UNL     1      32.346 -11.846 -24.762  0.00  0.00    -0.231 NA
ATOM      5  N   UNL     1      32.901 -13.756 -26.147  0.00  0.00    -0.232 NA
ATOM      6  C   UNL     1      32.734 -12.588 -23.715  0.00  0.00    +0.138 C 
ATOM      7  C   UNL     1      33.149 -13.308 -21.561  0.00  0.00    +0.316 C 
ATOM      8  C   UNL     1      33.233 -13.879 -23.794  0.00  0.00    +0.188 C 
ATOM      9  C   UNL     1      33.274 -14.443 -25.042  0.00  0.00    +0.125 C 
ATOM     10  C   UNL     1      32.464 -12.490 -25.940  0.00  0.00    +0.253 C 
ATOM     11  N   UNL     1      33.723 -15.771 -25.198  0.00  0.00    -0.345 N 
ATOM     12  H   UNL     1      33.753 -16.178 -26.095  0.00  0.00    +0.143 HD
ATOM     13  H   UNL     1      34.007 -16.291 -24.412  0.00  0.00    +0.143 HD
ENDROOT
BRANCH   2  16
ATOM     14  O   UNL     1      30.513  -6.742 -22.914  0.00  0.00    -0.260 OA
ATOM     15  N   UNL     1      31.459  -8.837 -22.625  0.00  0.00    -0.268 N 
ATOM     16  C   UNL     1      32.198 -10.954 -21.896  0.00  0.00    +0.104 C 
ATOM     17  C   UNL     1      30.677 -10.887 -21.778  0.00  0.00    +0.044 C 
ATOM     18  C   UNL     1      32.519  -9.815 -22.859  0.00  0.00    +0.115 C 
ATOM     19  C   UNL     1      30.405  -9.391 -21.788  0.00  0.00    +0.096 C 
ATOM     20  C   UNL     1      31.417  -7.545 -23.118  0.00  0.00    +0.292 C 
BRANCH  20  21
ATOM     21  C   UNL     1      32.525  -7.117 -23.942  0.00  0.00    -0.007 C 
ATOM     22  C   UNL     1      33.444  -6.760 -24.626  0.00  0.00    -0.081 C 
ATOM     23  C   UNL     1      34.565  -6.326 -25.459  0.00  0.00    +0.090 C 
ENDBRANCH  20  21
ENDBRANCH   2  16
BRANCH   3  24
ATOM     24  C   UNL     1      34.061 -15.606 -22.159  0.00  0.00    +0.056 C 
ATOM     25  C   UNL     1      34.358 -15.911 -20.830  0.00  0.00    +0.018 C 
ATOM     26  C   UNL     1      34.302 -16.547 -23.160  0.00  0.00    +0.018 C 
ATOM     27  C   UNL     1      34.896 -17.155 -20.503  0.00  0.00    +0.039 C 
ATOM     28  C   UNL     1      34.840 -17.791 -22.832  0.00  0.00    +0.039 C 
ATOM     29  C   UNL     1      35.137 -18.095 -21.504  0.00  0.00    +0.145 C 
BRANCH  29  30
ATOM     30  O   UNL     1      35.663 -19.310 -21.184  0.00  0.00    -0.453 OA
BRANCH  30  31
ATOM     31  C   UNL     1      34.950 -20.108 -20.305  0.00  0.00    +0.145 C 
ATOM     32  C   UNL     1      35.625 -20.874 -19.354  0.00  0.00    +0.037 C 
ATOM     33  C   UNL     1      33.558 -20.145 -20.370  0.00  0.00    +0.037 C 
ATOM     34  C   UNL     1      34.907 -21.678 -18.470  0.00  0.00    +0.003 C 
ATOM     35  C   UNL     1      32.840 -20.949 -19.484  0.00  0.00    +0.003 C 
ATOM     36  C   UNL     1      33.515 -21.716 -18.534  0.00  0.00    +0.000 C 
ENDBRANCH  30  31
ENDBRANCH  29  30
ENDBRANCH   3  24
TORSDOF 5
ENDMDL
MODEL 5
REMARK VINA RESULT:     -10.6      7.469     11.193
REMARK  Name = 54755438
REMARK  5 active torsions:
REMARK  status: ('A' for Active; 'I' for Inactive)
REMARK    1  A    between atoms: N_2  and  C_13
REMARK    2  A    between atoms: N_3  and  C_21
REMARK    3  A    between atoms: C_17  and  C_18
REMARK    4  A    between atoms: C_26  and  O_27
REMARK    5  A    between atoms: O_27  and  C_28
REMARK                            x       y       z     vdW  Elec       q    Type
REMARK                         _______ _______ _______ _____ _____    ______ ____
ROOT
ATOM      1  O   UNL     1      35.153 -23.165 -15.780  0.00  0.00    -0.252 OA
ATOM      2  N   UNL     1      33.433 -23.850 -14.320  0.00  0.00    -0.230 N 
ATOM      3  N   UNL     1      32.826 -22.804 -16.247  0.00  0.00    -0.231 N 
ATOM      4  N   UNL     1      31.182 -24.231 -13.416  0.00  0.00    -0.231 NA
ATOM      5  N   UNL     1      29.399 -23.492 -14.882  0.00  0.00    -0.232 NA
ATOM      6  C   UNL     1      32.032 -23.764 -14.341  0.00  0.00    +0.138 C 
ATOM      7  C   UNL     1      33.965 -23.268 -15.502  0.00  0.00    +0.316 C 
ATOM      8  C   UNL     1      31.663 -23.138 -15.521  0.00  0.00    +0.188 C 
ATOM      9  C   UNL     1      30.318 -23.046 -15.769  0.00  0.00    +0.125 C 
ATOM     10  C   UNL     1      29.888 -24.053 -13.750  0.00  0.00    +0.253 C 
ATOM     11  N   UNL     1      29.864 -22.466 -16.971  0.00  0.00    -0.345 N 
ATOM     12  H   UNL     1      28.898 -22.400 -17.151  0.00  0.00    +0.143 HD
ATOM     13  H   UNL     1      30.512 -22.127 -17.630  0.00  0.00    +0.143 HD
ENDROOT
BRANCH   2  16
ATOM     14  O   UNL     1      38.078 -24.635 -10.724  0.00  0.00    -0.260 OA
ATOM     15  N   UNL     1      36.268 -24.458 -12.160  0.00  0.00    -0.268 N 
ATOM     16  C   UNL     1      34.173 -24.453 -13.241  0.00  0.00    +0.104 C 
ATOM     17  C   UNL     1      34.060 -23.682 -11.927  0.00  0.00    +0.044 C 
ATOM     18  C   UNL     1      35.677 -24.481 -13.495  0.00  0.00    +0.115 C 
ATOM     19  C   UNL     1      35.266 -24.177 -11.143  0.00  0.00    +0.096 C 
ATOM     20  C   UNL     1      37.601 -24.665 -11.854  0.00  0.00    +0.292 C 
BRANCH  20  21
ATOM     21  C   UNL     1      38.498 -24.930 -12.956  0.00  0.00    -0.007 C 
ATOM     22  C   UNL     1      39.242 -25.151 -13.871  0.00  0.00    -0.081 C 
ATOM     23  C   UNL     1      40.149 -25.419 -14.987  0.00  0.00    +0.090 C 
ENDBRANCH  20  21
ENDBRANCH   2  16
BRANCH   3  24
ATOM     24  C   UNL     1      32.863 -22.132 -17.492  0.00  0.00    +0.056 C 
ATOM     25  C   UNL     1      33.961 -22.290 -18.339  0.00  0.00    +0.018 C 
ATOM     26  C   UNL     1      31.802 -21.311 -17.875  0.00  0.00    +0.018 C 
ATOM     27  C   UNL     1      33.998 -21.627 -19.565  0.00  0.00    +0.039 C 
ATOM     28  C   UNL     1      31.839 -20.649 -19.101  0.00  0.00    +0.039 C 
ATOM     29  C   UNL     1      32.936 -20.807 -19.946  0.00  0.00    +0.145 C 
BRANCH  29  30
ATOM     30  O   UNL     1      32.973 -20.160 -21.144  0.00  0.00    -0.453 OA
BRANCH  30  31
ATOM     31  C   UNL     1      34.087 -19.387 -21.425  0.00  0.00    +0.145 C 
ATOM     32  C   UNL     1      35.199 -19.434 -20.585  0.00  0.00    +0.037 C 
ATOM     33  C   UNL     1      34.096 -18.562 -22.549  0.00  0.00    +0.037 C 
ATOM     34  C   UNL     1      36.321 -18.655 -20.868  0.00  0.00    +0.003 C 
ATOM     35  C   UNL     1      35.219 -17.784 -22.833  0.00  0.00    +0.003 C 
ATOM     36  C   UNL     1      36.330 -17.830 -21.992  0.00  0.00    +0.000 C 
ENDBRANCH  30  31
ENDBRANCH  29  30
ENDBRANCH   3  24
TORSDOF 5
ENDMDL
MODEL 6
REMARK VINA RESULT:     -10.2      5.908      9.825
REMARK  Name = 54755438
REMARK  5 active torsions:
REMARK  status: ('A' for Active; 'I' for Inactive)
REMARK    1  A    between atoms: N_2  and  C_13
REMARK    2  A    between atoms: N_3  and  C_21
REMARK    3  A    between atoms: C_17  and  C_18
REMARK    4  A    between atoms: C_26  and  O_27
REMARK    5  A    between atoms: O_27  and  C_28
REMARK                            x       y       z     vdW  Elec       q    Type
REMARK                         _______ _______ _______ _____ _____    ______ ____
ROOT
ATOM      1  O   UNL     1      31.530 -22.006 -17.570  0.00  0.00    -0.252 OA
ATOM      2  N   UNL     1      32.863 -22.640 -15.731  0.00  0.00    -0.230 N 
ATOM      3  N   UNL     1      33.908 -21.684 -17.512  0.00  0.00    -0.231 N 
ATOM      4  N   UNL     1      34.841 -22.974 -14.315  0.00  0.00    -0.231 NA
ATOM      5  N   UNL     1      36.893 -22.119 -15.279  0.00  0.00    -0.232 NA
ATOM      6  C   UNL     1      34.234 -22.575 -15.442  0.00  0.00    +0.138 C 
ATOM      7  C   UNL     1      32.618 -22.083 -17.015  0.00  0.00    +0.316 C 
ATOM      8  C   UNL     1      34.869 -21.982 -16.522  0.00  0.00    +0.188 C 
ATOM      9  C   UNL     1      36.211 -21.743 -16.386  0.00  0.00    +0.125 C 
ATOM     10  C   UNL     1      36.165 -22.722 -14.308  0.00  0.00    +0.253 C 
ATOM     11  N   UNL     1      36.917 -21.098 -17.422  0.00  0.00    -0.345 N 
ATOM     12  H   UNL     1      37.882 -20.925 -17.326  0.00  0.00    +0.143 HD
ATOM     13  H   UNL     1      36.447 -20.821 -18.241  0.00  0.00    +0.143 HD
ENDROOT
BRANCH   2  16
ATOM     14  O   UNL     1      27.774 -25.272 -14.211  0.00  0.00    -0.260 OA
ATOM     15  N   UNL     1      29.732 -24.144 -14.723  0.00  0.00    -0.268 N 
ATOM     16  C   UNL     1      31.888 -23.193 -14.826  0.00  0.00    +0.104 C 
ATOM     17  C   UNL     1      32.015 -24.706 -14.653  0.00  0.00    +0.044 C 
ATOM     18  C   UNL     1      30.455 -23.024 -15.320  0.00  0.00    +0.115 C 
ATOM     19  C   UNL     1      30.647 -25.098 -14.116  0.00  0.00    +0.096 C 
ATOM     20  C   UNL     1      28.360 -24.319 -14.715  0.00  0.00    +0.292 C 
BRANCH  20  21
ATOM     21  C   UNL     1      27.561 -23.300 -15.356  0.00  0.00    -0.007 C 
ATOM     22  C   UNL     1      26.897 -22.454 -15.890  0.00  0.00    -0.081 C 
ATOM     23  C   UNL     1      26.089 -21.423 -16.539  0.00  0.00    +0.090 C 
ENDBRANCH  20  21
ENDBRANCH   2  16
BRANCH   3  24
ATOM     24  C   UNL     1      34.169 -21.095 -18.772  0.00  0.00    +0.056 C 
ATOM     25  C   UNL     1      33.134 -20.495 -19.490  0.00  0.00    +0.018 C 
ATOM     26  C   UNL     1      35.461 -21.114 -19.297  0.00  0.00    +0.018 C 
ATOM     27  C   UNL     1      33.391 -19.915 -20.732  0.00  0.00    +0.039 C 
ATOM     28  C   UNL     1      35.718 -20.534 -20.539  0.00  0.00    +0.039 C 
ATOM     29  C   UNL     1      34.684 -19.935 -21.256  0.00  0.00    +0.145 C 
BRANCH  29  30
ATOM     30  O   UNL     1      34.934 -19.368 -22.469  0.00  0.00    -0.453 OA
BRANCH  30  31
ATOM     31  C   UNL     1      34.658 -18.019 -22.619  0.00  0.00    +0.145 C 
ATOM     32  C   UNL     1      34.886 -17.138 -21.562  0.00  0.00    +0.037 C 
ATOM     33  C   UNL     1      34.152 -17.542 -23.827  0.00  0.00    +0.037 C 
ATOM     34  C   UNL     1      34.608 -15.780 -21.713  0.00  0.00    +0.003 C 
ATOM     35  C   UNL     1      33.875 -16.183 -23.979  0.00  0.00    +0.003 C 
ATOM     36  C   UNL     1      34.102 -15.303 -22.922  0.00  0.00    +0.000 C 
ENDBRANCH  30  31
ENDBRANCH  29  30
ENDBRANCH   3  24
TORSDOF 5
ENDMDL
MODEL 7
REMARK VINA RESULT:     -10.2      6.202     12.534
REMARK  Name = 54755438
REMARK  5 active torsions:
REMARK  status: ('A' for Active; 'I' for Inactive)
REMARK    1  A    between atoms: N_2  and  C_13
REMARK    2  A    between atoms: N_3  and  C_21
REMARK    3  A    between atoms: C_17  and  C_18
REMARK    4  A    between atoms: C_26  and  O_27
REMARK    5  A    between atoms: O_27  and  C_28
REMARK                            x       y       z     vdW  Elec       q    Type
REMARK                         _______ _______ _______ _____ _____    ______ ____
ROOT
ATOM      1  O   UNL     1      33.371  -6.115 -25.502  0.00  0.00    -0.252 OA
ATOM      2  N   UNL     1      32.542  -3.933 -25.168  0.00  0.00    -0.230 N 
ATOM      3  N   UNL     1      31.822  -5.564 -23.754  0.00  0.00    -0.231 N 
ATOM      4  N   UNL     1      31.292  -2.059 -24.190  0.00  0.00    -0.231 NA
ATOM      5  N   UNL     1      30.005  -2.657 -22.226  0.00  0.00    -0.232 NA
ATOM      6  C   UNL     1      31.650  -3.349 -24.255  0.00  0.00    +0.138 C 
ATOM      7  C   UNL     1      32.682  -5.318 -24.880  0.00  0.00    +0.316 C 
ATOM      8  C   UNL     1      31.221  -4.341 -23.386  0.00  0.00    +0.188 C 
ATOM      9  C   UNL     1      30.411  -3.941 -22.356  0.00  0.00    +0.125 C 
ATOM     10  C   UNL     1      30.466  -1.790 -23.160  0.00  0.00    +0.253 C 
ATOM     11  N   UNL     1      29.973  -4.883 -21.403  0.00  0.00    -0.345 N 
ATOM     12  H   UNL     1      29.391  -4.598 -20.661  0.00  0.00    +0.143 HD
ATOM     13  H   UNL     1      30.248  -5.825 -21.478  0.00  0.00    +0.143 HD
ENDROOT
BRANCH   2  16
ATOM     14  O   UNL     1      36.650  -2.925 -29.318  0.00  0.00    -0.260 OA
ATOM     15  N   UNL     1      35.076  -3.202 -27.641  0.00  0.00    -0.268 N 
ATOM     16  C   UNL     1      33.196  -3.195 -26.218  0.00  0.00    +0.104 C 
ATOM     17  C   UNL     1      32.763  -3.626 -27.618  0.00  0.00    +0.044 C 
ATOM     18  C   UNL     1      34.706  -3.411 -26.244  0.00  0.00    +0.115 C 
ATOM     19  C   UNL     1      33.898  -3.118 -28.492  0.00  0.00    +0.096 C 
ATOM     20  C   UNL     1      36.362  -3.096 -28.138  0.00  0.00    +0.292 C 
BRANCH  20  21
ATOM     21  C   UNL     1      37.447  -3.200 -27.189  0.00  0.00    -0.007 C 
ATOM     22  C   UNL     1      38.348  -3.288 -26.401  0.00  0.00    -0.081 C 
ATOM     23  C   UNL     1      39.446  -3.395 -25.440  0.00  0.00    +0.090 C 
ENDBRANCH  20  21
ENDBRANCH   2  16
BRANCH   3  24
ATOM     24  C   UNL     1      31.613  -6.814 -23.122  0.00  0.00    +0.056 C 
ATOM     25  C   UNL     1      30.579  -7.647 -23.551  0.00  0.00    +0.018 C 
ATOM     26  C   UNL     1      32.440  -7.213 -22.073  0.00  0.00    +0.018 C 
ATOM     27  C   UNL     1      30.372  -8.879 -22.930  0.00  0.00    +0.039 C 
ATOM     28  C   UNL     1      32.233  -8.444 -21.452  0.00  0.00    +0.039 C 
ATOM     29  C   UNL     1      31.200  -9.277 -21.880  0.00  0.00    +0.145 C 
BRANCH  29  30
ATOM     30  O   UNL     1      30.998 -10.479 -21.274  0.00  0.00    -0.453 OA
BRANCH  30  31
ATOM     31  C   UNL     1      31.872 -11.509 -21.578  0.00  0.00    +0.145 C 
ATOM     32  C   UNL     1      32.095 -12.531 -20.655  0.00  0.00    +0.037 C 
ATOM     33  C   UNL     1      32.530 -11.524 -22.808  0.00  0.00    +0.037 C 
ATOM     34  C   UNL     1      32.976 -13.567 -20.962  0.00  0.00    +0.003 C 
ATOM     35  C   UNL     1      33.411 -12.561 -23.115  0.00  0.00    +0.003 C 
ATOM     36  C   UNL     1      33.634 -13.583 -22.191  0.00  0.00    +0.000 C 
ENDBRANCH  30  31
ENDBRANCH  29  30
ENDBRANCH   3  24
TORSDOF 5
ENDMDL
MODEL 8
REMARK VINA RESULT:     -10.0      4.780      8.489
REMARK  Name = 54755438
REMARK  5 active torsions:
REMARK  status: ('A' for Active; 'I' for Inactive)
REMARK    1  A    between atoms: N_2  and  C_13
REMARK    2  A    between atoms: N_3  and  C_21
REMARK    3  A    between atoms: C_17  and  C_18
REMARK    4  A    between atoms: C_26  and  O_27
REMARK    5  A    between atoms: O_27  and  C_28
REMARK                            x       y       z     vdW  Elec       q    Type
REMARK                         _______ _______ _______ _____ _____    ______ ____
ROOT
ATOM      1  O   UNL     1      32.091 -21.718 -19.360  0.00  0.00    -0.252 OA
ATOM      2  N   UNL     1      33.518 -22.260 -17.563  0.00  0.00    -0.230 N 
ATOM      3  N   UNL     1      34.300 -20.807 -19.130  0.00  0.00    -0.231 N 
ATOM      4  N   UNL     1      35.494 -22.285 -16.106  0.00  0.00    -0.231 NA
ATOM      5  N   UNL     1      37.264 -20.795 -16.827  0.00  0.00    -0.232 NA
ATOM      6  C   UNL     1      34.820 -21.889 -17.195  0.00  0.00    +0.138 C 
ATOM      7  C   UNL     1      33.154 -21.595 -18.765  0.00  0.00    +0.316 C 
ATOM      8  C   UNL     1      35.292 -20.995 -18.143  0.00  0.00    +0.188 C 
ATOM      9  C   UNL     1      36.523 -20.443 -17.903  0.00  0.00    +0.125 C 
ATOM     10  C   UNL     1      36.706 -21.705 -15.993  0.00  0.00    +0.253 C 
ATOM     11  N   UNL     1      37.050 -19.488 -18.797  0.00  0.00    -0.345 N 
ATOM     12  H   UNL     1      37.934 -19.089 -18.626  0.00  0.00    +0.143 HD
ATOM     13  H   UNL     1      36.534 -19.219 -19.592  0.00  0.00    +0.143 HD
ENDROOT
BRANCH   2  16
ATOM     14  O   UNL     1      30.830 -24.352 -12.713  0.00  0.00    -0.260 OA
ATOM     15  N   UNL     1      31.940 -23.653 -14.623  0.00  0.00    -0.268 N 
ATOM     16  C   UNL     1      32.710 -23.176 -16.799  0.00  0.00    +0.104 C 
ATOM     17  C   UNL     1      31.252 -22.736 -16.676  0.00  0.00    +0.044 C 
ATOM     18  C   UNL     1      33.157 -23.294 -15.346  0.00  0.00    +0.115 C 
ATOM     19  C   UNL     1      30.764 -23.524 -15.470  0.00  0.00    +0.096 C 
ATOM     20  C   UNL     1      31.865 -24.061 -13.303  0.00  0.00    +0.292 C 
BRANCH  20  21
ATOM     21  C   UNL     1      33.105 -24.143 -12.566  0.00  0.00    -0.007 C 
ATOM     22  C   UNL     1      34.136 -24.211 -11.954  0.00  0.00    -0.081 C 
ATOM     23  C   UNL     1      35.391 -24.295 -11.209  0.00  0.00    +0.090 C 
ENDBRANCH  20  21
ENDBRANCH   2  16
BRANCH   3  24
ATOM     24  C   UNL     1      34.416 -19.986 -20.277  0.00  0.00    +0.056 C 
ATOM     25  C   UNL     1      33.297 -19.737 -21.072  0.00  0.00    +0.018 C 
ATOM     26  C   UNL     1      35.648 -19.425 -20.613  0.00  0.00    +0.018 C 
ATOM     27  C   UNL     1      33.409 -18.928 -22.203  0.00  0.00    +0.039 C 
ATOM     28  C   UNL     1      35.760 -18.617 -21.744  0.00  0.00    +0.039 C 
ATOM     29  C   UNL     1      34.642 -18.368 -22.538  0.00  0.00    +0.145 C 
BRANCH  29  30
ATOM     30  O   UNL     1      34.752 -17.579 -23.642  0.00  0.00    -0.453 OA
BRANCH  30  31
ATOM     31  C   UNL     1      34.256 -16.288 -23.562  0.00  0.00    +0.145 C 
ATOM     32  C   UNL     1      34.435 -15.542 -22.397  0.00  0.00    +0.037 C 
ATOM     33  C   UNL     1      33.579 -15.734 -24.648  0.00  0.00    +0.037 C 
ATOM     34  C   UNL     1      33.935 -14.243 -22.318  0.00  0.00    +0.003 C 
ATOM     35  C   UNL     1      33.080 -14.434 -24.569  0.00  0.00    +0.003 C 
ATOM     36  C   UNL     1      33.257 -13.688 -23.403  0.00  0.00    +0.000 C 
ENDBRANCH  30  31
ENDBRANCH  29  30
ENDBRANCH   3  24
TORSDOF 5
ENDMDL
MODEL 9
REMARK VINA RESULT:     -10.0      3.545     10.839
REMARK  Name = 54755438
REMARK  5 active torsions:
REMARK  status: ('A' for Active; 'I' for Inactive)
REMARK    1  A    between atoms: N_2  and  C_13
REMARK    2  A    between atoms: N_3  and  C_21
REMARK    3  A    between atoms: C_17  and  C_18
REMARK    4  A    between atoms: C_26  and  O_27
REMARK    5  A    between atoms: O_27  and  C_28
REMARK                            x       y       z     vdW  Elec       q    Type
REMARK                         _______ _______ _______ _____ _____    ______ ____
ROOT
ATOM      1  O   UNL     1      34.445  -9.221 -24.265  0.00  0.00    -0.252 OA
ATOM      2  N   UNL     1      32.992  -8.288 -22.659  0.00  0.00    -0.230 N 
ATOM      3  N   UNL     1      32.895 -10.537 -22.989  0.00  0.00    -0.231 N 
ATOM      4  N   UNL     1      31.271  -8.126 -20.916  0.00  0.00    -0.231 NA
ATOM      5  N   UNL     1      30.341 -10.263 -20.253  0.00  0.00    -0.232 NA
ATOM      6  C   UNL     1      32.011  -8.808 -21.800  0.00  0.00    +0.138 C 
ATOM      7  C   UNL     1      33.575  -9.343 -23.413  0.00  0.00    +0.316 C 
ATOM      8  C   UNL     1      31.962 -10.180 -21.993  0.00  0.00    +0.188 C 
ATOM      9  C   UNL     1      31.123 -10.882 -21.168  0.00  0.00    +0.125 C 
ATOM     10  C   UNL     1      30.457  -8.915 -20.187  0.00  0.00    +0.253 C 
ATOM     11  N   UNL     1      31.053 -12.287 -21.270  0.00  0.00    -0.345 N 
ATOM     12  H   UNL     1      30.451 -12.794 -20.678  0.00  0.00    +0.143 HD
ATOM     13  H   UNL     1      31.605 -12.761 -21.933  0.00  0.00    +0.143 HD
ENDROOT
BRANCH   2  16
ATOM     14  O   UNL     1      33.491  -2.962 -25.210  0.00  0.00    -0.260 OA
ATOM     15  N   UNL     1      33.425  -5.038 -24.183  0.00  0.00    -0.268 N 
ATOM     16  C   UNL     1      33.325  -6.888 -22.726  0.00  0.00    +0.104 C 
ATOM     17  C   UNL     1      32.135  -5.971 -22.453  0.00  0.00    +0.044 C 
ATOM     18  C   UNL     1      33.784  -6.452 -24.113  0.00  0.00    +0.115 C 
ATOM     19  C   UNL     1      32.581  -4.651 -23.063  0.00  0.00    +0.096 C 
ATOM     20  C   UNL     1      33.809  -4.146 -25.168  0.00  0.00    +0.292 C 
BRANCH  20  21
ATOM     21  C   UNL     1      34.646  -4.656 -26.231  0.00  0.00    -0.007 C 
ATOM     22  C   UNL     1      35.341  -5.078 -27.114  0.00  0.00    -0.081 C 
ATOM     23  C   UNL     1      36.188  -5.594 -28.189  0.00  0.00    +0.090 C 
ENDBRANCH  20  21
ENDBRANCH   2  16
BRANCH   3  24
ATOM     24  C   UNL     1      33.123 -11.845 -23.483  0.00  0.00    +0.056 C 
ATOM     25  C   UNL     1      32.681 -12.195 -24.759  0.00  0.00    +0.018 C 
ATOM     26  C   UNL     1      33.789 -12.783 -22.695  0.00  0.00    +0.018 C 
ATOM     27  C   UNL     1      32.904 -13.482 -25.246  0.00  0.00    +0.039 C 
ATOM     28  C   UNL     1      34.012 -14.070 -23.182  0.00  0.00    +0.039 C 
ATOM     29  C   UNL     1      33.570 -14.420 -24.457  0.00  0.00    +0.145 C 
BRANCH  29  30
ATOM     30  O   UNL     1      33.788 -15.677 -24.933  0.00  0.00    -0.453 OA
BRANCH  30  31
ATOM     31  C   UNL     1      34.065 -16.675 -24.015  0.00  0.00    +0.145 C 
ATOM     32  C   UNL     1      34.829 -16.389 -22.883  0.00  0.00    +0.037 C 
ATOM     33  C   UNL     1      33.580 -17.966 -24.221  0.00  0.00    +0.037 C 
ATOM     34  C   UNL     1      35.108 -17.395 -21.958  0.00  0.00    +0.003 C 
ATOM     35  C   UNL     1      33.858 -18.971 -23.295  0.00  0.00    +0.003 C 
ATOM     36  C   UNL     1      34.623 -18.686 -22.164  0.00  0.00    +0.000 C 
ENDBRANCH  30  31
ENDBRANCH  29  30
ENDBRANCH   3  24
TORSDOF 5
ENDMDL
