MODEL 1
REMARK VINA RESULT:     -12.3      0.000      0.000
REMARK  Name = 2391
REMARK  7 active torsions:
REMARK  status: ('A' for Active; 'I' for Inactive)
REMARK    1  A    between atoms: C_1  and  C_3
REMARK    2  A    between atoms: C_1  and  C_8
REMARK    3  A    between atoms: C_1  and  C_18
REMARK    4  A    between atoms: C_13  and  O_14
REMARK    5  A    between atoms: O_14  and  C_16
REMARK    6  A    between atoms: C_23  and  O_24
REMARK    7  A    between atoms: O_24  and  C_26
REMARK                            x       y       z     vdW  Elec       q    Type
REMARK                         _______ _______ _______ _____ _____    ______ ____
ROOT
ATOM      1  C   UNL     1      33.665 -22.778 -17.072  0.00  0.00    +0.085 C 
ENDROOT
BRANCH   1   3
ATOM      2  N   UNL     1      31.250 -22.614 -17.150  0.00  0.00    -0.248 NA
ATOM      3  C   UNL     1      32.310 -22.589 -16.350  0.00  0.00    +0.067 C 
ATOM      4  C   UNL     1      32.340 -22.420 -15.001  0.00  0.00    +0.015 C 
ATOM      5  C   UNL     1      31.106 -22.253 -14.382  0.00  0.00    +0.003 C 
ATOM      6  C   UNL     1      30.068 -22.448 -16.514  0.00  0.00    +0.098 C 
ATOM      7  C   UNL     1      29.944 -22.266 -15.146  0.00  0.00    +0.021 C 
ENDBRANCH   1   3
BRANCH   1   8
ATOM      8  C   UNL     1      34.850 -22.947 -16.183  0.00  0.00    -0.013 C 
ATOM      9  C   UNL     1      35.842 -21.967 -16.149  0.00  0.00    -0.000 C 
ATOM     10  C   UNL     1      34.967 -24.087 -15.388  0.00  0.00    -0.000 C 
ATOM     11  C   UNL     1      36.951 -22.127 -15.317  0.00  0.00    +0.037 C 
ATOM     12  C   UNL     1      36.076 -24.247 -14.556  0.00  0.00    +0.037 C 
ATOM     13  C   UNL     1      37.068 -23.266 -14.522  0.00  0.00    +0.148 C 
BRANCH  13  14
ATOM     14  O   UNL     1      38.150 -23.421 -13.711  0.00  0.00    -0.424 OA
BRANCH  14  16
ATOM     15  O   UNL     1      38.526 -25.608 -12.968  0.00  0.00    -0.250 OA
ATOM     16  C   UNL     1      38.728 -24.700 -13.763  0.00  0.00    +0.322 C 
ATOM     17  C   UNL     1      39.646 -24.803 -14.945  0.00  0.00    +0.122 C 
ENDBRANCH  14  16
ENDBRANCH  13  14
ENDBRANCH   1   8
BRANCH   1  18
ATOM     18  C   UNL     1      33.849 -21.792 -18.248  0.00  0.00    -0.013 C 
ATOM     19  C   UNL     1      32.728 -21.240 -18.806  0.00  0.00    -0.000 C 
ATOM     20  C   UNL     1      35.123 -21.527 -18.669  0.00  0.00    -0.000 C 
ATOM     21  C   UNL     1      32.896 -20.350 -19.868  0.00  0.00    +0.037 C 
ATOM     22  C   UNL     1      35.291 -20.637 -19.731  0.00  0.00    +0.037 C 
ATOM     23  C   UNL     1      34.177 -20.050 -20.330  0.00  0.00    +0.148 C 
BRANCH  23  24
ATOM     24  O   UNL     1      34.338 -19.181 -21.366  0.00  0.00    -0.424 OA
BRANCH  24  26
ATOM     25  O   UNL     1      35.023 -17.163 -20.398  0.00  0.00    -0.250 OA
ATOM     26  C   UNL     1      35.241 -18.138 -21.104  0.00  0.00    +0.322 C 
ATOM     27  C   UNL     1      36.534 -18.384 -21.824  0.00  0.00    +0.122 C 
ENDBRANCH  24  26
ENDBRANCH  23  24
ENDBRANCH   1  18
TORSDOF 7
ENDMDL
MODEL 2
REMARK VINA RESULT:     -12.0      3.138      5.986
REMARK  Name = 2391
REMARK  7 active torsions:
REMARK  status: ('A' for Active; 'I' for Inactive)
REMARK    1  A    between atoms: C_1  and  C_3
REMARK    2  A    between atoms: C_1  and  C_8
REMARK    3  A    between atoms: C_1  and  C_18
REMARK    4  A    between atoms: C_13  and  O_14
REMARK    5  A    between atoms: O_14  and  C_16
REMARK    6  A    between atoms: C_23  and  O_24
REMARK    7  A    between atoms: O_24  and  C_26
REMARK                            x       y       z     vdW  Elec       q    Type
REMARK                         _______ _______ _______ _____ _____    ______ ____
ROOT
ATOM      1  C   UNL     1      33.977 -22.808 -15.179  0.00  0.00    +0.085 C 
ENDROOT
BRANCH   1   3
ATOM      2  N   UNL     1      35.166 -24.911 -15.346  0.00  0.00    -0.248 NA
ATOM      3  C   UNL     1      34.929 -23.861 -14.567  0.00  0.00    +0.067 C 
ATOM      4  C   UNL     1      35.415 -23.614 -13.321  0.00  0.00    +0.015 C 
ATOM      5  C   UNL     1      36.268 -24.580 -12.799  0.00  0.00    +0.003 C 
ATOM      6  C   UNL     1      35.999 -25.829 -14.805  0.00  0.00    +0.098 C 
ATOM      7  C   UNL     1      36.571 -25.712 -13.549  0.00  0.00    +0.021 C 
ENDBRANCH   1   3
BRANCH   1   8
ATOM      8  C   UNL     1      32.524 -23.137 -15.113  0.00  0.00    -0.013 C 
ATOM      9  C   UNL     1      32.047 -23.990 -14.118  0.00  0.00    -0.000 C 
ATOM     10  C   UNL     1      31.644 -22.593 -16.048  0.00  0.00    -0.000 C 
ATOM     11  C   UNL     1      30.687 -24.298 -14.058  0.00  0.00    +0.037 C 
ATOM     12  C   UNL     1      30.284 -22.902 -15.987  0.00  0.00    +0.037 C 
ATOM     13  C   UNL     1      29.806 -23.755 -14.992  0.00  0.00    +0.148 C 
BRANCH  13  14
ATOM     14  O   UNL     1      28.481 -24.056 -14.932  0.00  0.00    -0.424 OA
BRANCH  14  16
ATOM     15  O   UNL     1      27.435 -23.914 -17.021  0.00  0.00    -0.250 OA
ATOM     16  C   UNL     1      27.706 -23.437 -15.927  0.00  0.00    +0.322 C 
ATOM     17  C   UNL     1      27.250 -22.088 -15.460  0.00  0.00    +0.122 C 
ENDBRANCH  14  16
ENDBRANCH  13  14
ENDBRANCH   1   8
BRANCH   1  18
ATOM     18  C   UNL     1      34.480 -22.280 -16.542  0.00  0.00    -0.013 C 
ATOM     19  C   UNL     1      35.737 -21.743 -16.600  0.00  0.00    -0.000 C 
ATOM     20  C   UNL     1      33.639 -22.376 -17.618  0.00  0.00    -0.000 C 
ATOM     21  C   UNL     1      36.190 -21.266 -17.831  0.00  0.00    +0.037 C 
ATOM     22  C   UNL     1      34.092 -21.900 -18.848  0.00  0.00    +0.037 C 
ATOM     23  C   UNL     1      35.367 -21.345 -18.954  0.00  0.00    +0.148 C 
BRANCH  23  24
ATOM     24  O   UNL     1      35.811 -20.880 -20.155  0.00  0.00    -0.424 OA
BRANCH  24  26
ATOM     25  O   UNL     1      36.442 -18.629 -20.034  0.00  0.00    -0.250 OA
ATOM     26  C   UNL     1      35.635 -19.498 -20.335  0.00  0.00    +0.322 C 
ATOM     27  C   UNL     1      34.298 -19.228 -20.957  0.00  0.00    +0.122 C 
ENDBRANCH  24  26
ENDBRANCH  23  24
ENDBRANCH   1  18
TORSDOF 7
ENDMDL
MODEL 3
REMARK VINA RESULT:     -12.0      2.887      7.302
REMARK  Name = 2391
REMARK  7 active torsions:
REMARK  status: ('A' for Active; 'I' for Inactive)
REMARK    1  A    between atoms: C_1  and  C_3
REMARK    2  A    between atoms: C_1  and  C_8
REMARK    3  A    between atoms: C_1  and  C_18
REMARK    4  A    between atoms: C_13  and  O_14
REMARK    5  A    between atoms: O_14  and  C_16
REMARK    6  A    between atoms: C_23  and  O_24
REMARK    7  A    between atoms: O_24  and  C_26
REMARK                            x       y       z     vdW  Elec       q    Type
REMARK                         _______ _______ _______ _____ _____    ______ ____
ROOT
ATOM      1  C   UNL     1      33.973 -22.686 -17.199  0.00  0.00    +0.085 C 
ENDROOT
BRANCH   1   3
ATOM      2  N   UNL     1      35.307 -23.965 -15.634  0.00  0.00    -0.248 NA
ATOM      3  C   UNL     1      35.189 -22.794 -16.250  0.00  0.00    +0.067 C 
ATOM      4  C   UNL     1      35.995 -21.704 -16.142  0.00  0.00    +0.015 C 
ATOM      5  C   UNL     1      37.079 -21.833 -15.280  0.00  0.00    +0.003 C 
ATOM      6  C   UNL     1      36.371 -24.054 -14.805  0.00  0.00    +0.098 C 
ATOM      7  C   UNL     1      37.278 -23.028 -14.596  0.00  0.00    +0.021 C 
ENDBRANCH   1   3
BRANCH   1   8
ATOM      8  C   UNL     1      34.124 -21.728 -18.331  0.00  0.00    -0.013 C 
ATOM      9  C   UNL     1      32.992 -21.189 -18.944  0.00  0.00    -0.000 C 
ATOM     10  C   UNL     1      35.395 -21.372 -18.779  0.00  0.00    -0.000 C 
ATOM     11  C   UNL     1      33.134 -20.292 -20.005  0.00  0.00    +0.037 C 
ATOM     12  C   UNL     1      35.537 -20.476 -19.839  0.00  0.00    +0.037 C 
ATOM     13  C   UNL     1      34.405 -19.937 -20.452  0.00  0.00    +0.148 C 
BRANCH  13  14
ATOM     14  O   UNL     1      34.542 -19.063 -21.486  0.00  0.00    -0.424 OA
BRANCH  14  16
ATOM     15  O   UNL     1      35.071 -17.005 -20.503  0.00  0.00    -0.250 OA
ATOM     16  C   UNL     1      35.370 -17.963 -21.202  0.00  0.00    +0.322 C 
ATOM     17  C   UNL     1      36.693 -18.125 -21.889  0.00  0.00    +0.122 C 
ENDBRANCH  14  16
ENDBRANCH  13  14
ENDBRANCH   1   8
BRANCH   1  18
ATOM     18  C   UNL     1      32.632 -22.609 -16.434  0.00  0.00    -0.013 C 
ATOM     19  C   UNL     1      31.482 -22.477 -17.163  0.00  0.00    -0.000 C 
ATOM     20  C   UNL     1      32.668 -22.676 -15.067  0.00  0.00    -0.000 C 
ATOM     21  C   UNL     1      30.272 -22.407 -16.471  0.00  0.00    +0.037 C 
ATOM     22  C   UNL     1      31.458 -22.606 -14.376  0.00  0.00    +0.037 C 
ATOM     23  C   UNL     1      30.261 -22.472 -15.078  0.00  0.00    +0.148 C 
BRANCH  23  24
ATOM     24  O   UNL     1      29.079 -22.405 -14.404  0.00  0.00    -0.424 OA
BRANCH  24  26
ATOM     25  O   UNL     1      27.086 -22.979 -15.489  0.00  0.00    -0.250 OA
ATOM     26  C   UNL     1      28.098 -23.291 -14.877  0.00  0.00    +0.322 C 
ATOM     27  C   UNL     1      28.466 -24.701 -14.521  0.00  0.00    +0.122 C 
ENDBRANCH  24  26
ENDBRANCH  23  24
ENDBRANCH   1  18
TORSDOF 7
ENDMDL
MODEL 4
REMARK VINA RESULT:     -11.8      0.857      1.718
REMARK  Name = 2391
REMARK  7 active torsions:
REMARK  status: ('A' for Active; 'I' for Inactive)
REMARK    1  A    between atoms: C_1  and  C_3
REMARK    2  A    between atoms: C_1  and  C_8
REMARK    3  A    between atoms: C_1  and  C_18
REMARK    4  A    between atoms: C_13  and  O_14
REMARK    5  A    between atoms: O_14  and  C_16
REMARK    6  A    between atoms: C_23  and  O_24
REMARK    7  A    between atoms: O_24  and  C_26
REMARK                            x       y       z     vdW  Elec       q    Type
REMARK                         _______ _______ _______ _____ _____    ______ ____
ROOT
ATOM      1  C   UNL     1      33.459 -22.838 -16.983  0.00  0.00    +0.085 C 
ENDROOT
BRANCH   1   3
ATOM      2  N   UNL     1      31.045 -22.672 -17.102  0.00  0.00    -0.248 NA
ATOM      3  C   UNL     1      32.094 -22.628 -16.287  0.00  0.00    +0.067 C 
ATOM      4  C   UNL     1      32.104 -22.422 -14.943  0.00  0.00    +0.015 C 
ATOM      5  C   UNL     1      30.861 -22.236 -14.347  0.00  0.00    +0.003 C 
ATOM      6  C   UNL     1      29.855 -22.487 -16.488  0.00  0.00    +0.098 C 
ATOM      7  C   UNL     1      29.710 -22.268 -15.128  0.00  0.00    +0.021 C 
ENDBRANCH   1   3
BRANCH   1   8
ATOM      8  C   UNL     1      34.626 -23.014 -16.072  0.00  0.00    -0.013 C 
ATOM      9  C   UNL     1      34.807 -24.220 -15.395  0.00  0.00    -0.000 C 
ATOM     10  C   UNL     1      35.535 -21.971 -15.896  0.00  0.00    -0.000 C 
ATOM     11  C   UNL     1      35.899 -24.383 -14.542  0.00  0.00    +0.037 C 
ATOM     12  C   UNL     1      36.627 -22.135 -15.043  0.00  0.00    +0.037 C 
ATOM     13  C   UNL     1      36.808 -23.341 -14.366  0.00  0.00    +0.148 C 
BRANCH  13  14
ATOM     14  O   UNL     1      37.873 -23.501 -13.534  0.00  0.00    -0.424 OA
BRANCH  14  16
ATOM     15  O   UNL     1      37.700 -24.857 -11.633  0.00  0.00    -0.250 OA
ATOM     16  C   UNL     1      37.524 -23.788 -12.203  0.00  0.00    +0.322 C 
ATOM     17  C   UNL     1      36.893 -22.587 -11.566  0.00  0.00    +0.122 C 
ENDBRANCH  14  16
ENDBRANCH  13  14
ENDBRANCH   1   8
BRANCH   1  18
ATOM     18  C   UNL     1      33.675 -21.864 -18.164  0.00  0.00    -0.013 C 
ATOM     19  C   UNL     1      34.957 -21.635 -18.582  0.00  0.00    -0.000 C 
ATOM     20  C   UNL     1      32.571 -21.283 -18.727  0.00  0.00    -0.000 C 
ATOM     21  C   UNL     1      35.151 -20.756 -19.648  0.00  0.00    +0.037 C 
ATOM     22  C   UNL     1      32.765 -20.404 -19.793  0.00  0.00    +0.037 C 
ATOM     23  C   UNL     1      34.055 -20.141 -20.253  0.00  0.00    +0.148 C 
BRANCH  23  24
ATOM     24  O   UNL     1      34.246 -19.284 -21.294  0.00  0.00    -0.424 OA
BRANCH  24  26
ATOM     25  O   UNL     1      34.759 -17.172 -20.424  0.00  0.00    -0.250 OA
ATOM     26  C   UNL     1      35.090 -18.201 -20.998  0.00  0.00    +0.322 C 
ATOM     27  C   UNL     1      36.478 -18.482 -21.492  0.00  0.00    +0.122 C 
ENDBRANCH  24  26
ENDBRANCH  23  24
ENDBRANCH   1  18
TORSDOF 7
ENDMDL
MODEL 5
REMARK VINA RESULT:     -11.5      1.572      7.086
REMARK  Name = 2391
REMARK  7 active torsions:
REMARK  status: ('A' for Active; 'I' for Inactive)
REMARK    1  A    between atoms: C_1  and  C_3
REMARK    2  A    between atoms: C_1  and  C_8
REMARK    3  A    between atoms: C_1  and  C_18
REMARK    4  A    between atoms: C_13  and  O_14
REMARK    5  A    between atoms: O_14  and  C_16
REMARK    6  A    between atoms: C_23  and  O_24
REMARK    7  A    between atoms: O_24  and  C_26
REMARK                            x       y       z     vdW  Elec       q    Type
REMARK                         _______ _______ _______ _____ _____    ______ ____
ROOT
ATOM      1  C   UNL     1      34.572 -22.627 -14.907  0.00  0.00    +0.085 C 
ENDROOT
BRANCH   1   3
ATOM      2  N   UNL     1      33.187 -24.259 -13.774  0.00  0.00    -0.248 NA
ATOM      3  C   UNL     1      33.177 -23.118 -14.454  0.00  0.00    +0.067 C 
ATOM      4  C   UNL     1      32.106 -22.349 -14.789  0.00  0.00    +0.015 C 
ATOM      5  C   UNL     1      30.867 -22.818 -14.368  0.00  0.00    +0.003 C 
ATOM      6  C   UNL     1      31.965 -24.683 -13.382  0.00  0.00    +0.098 C 
ATOM      7  C   UNL     1      30.786 -24.006 -13.649  0.00  0.00    +0.021 C 
ENDBRANCH   1   3
BRANCH   1   8
ATOM      8  C   UNL     1      34.681 -22.228 -16.339  0.00  0.00    -0.013 C 
ATOM      9  C   UNL     1      33.617 -22.463 -17.211  0.00  0.00    -0.000 C 
ATOM     10  C   UNL     1      35.846 -21.622 -16.807  0.00  0.00    -0.000 C 
ATOM     11  C   UNL     1      33.720 -22.090 -18.552  0.00  0.00    +0.037 C 
ATOM     12  C   UNL     1      35.948 -21.248 -18.148  0.00  0.00    +0.037 C 
ATOM     13  C   UNL     1      34.885 -21.483 -19.020  0.00  0.00    +0.148 C 
BRANCH  13  14
ATOM     14  O   UNL     1      34.984 -21.120 -20.327  0.00  0.00    -0.424 OA
BRANCH  14  16
ATOM     15  O   UNL     1      35.652 -18.881 -20.482  0.00  0.00    -0.250 OA
ATOM     16  C   UNL     1      34.790 -19.747 -20.558  0.00  0.00    +0.322 C 
ATOM     17  C   UNL     1      33.357 -19.483 -20.912  0.00  0.00    +0.122 C 
ENDBRANCH  14  16
ENDBRANCH  13  14
ENDBRANCH   1   8
BRANCH   1  18
ATOM     18  C   UNL     1      35.714 -23.524 -14.376  0.00  0.00    -0.013 C 
ATOM     19  C   UNL     1      36.506 -23.033 -13.375  0.00  0.00    -0.000 C 
ATOM     20  C   UNL     1      35.872 -24.762 -14.938  0.00  0.00    -0.000 C 
ATOM     21  C   UNL     1      37.536 -23.844 -12.897  0.00  0.00    +0.037 C 
ATOM     22  C   UNL     1      36.902 -25.573 -14.460  0.00  0.00    +0.037 C 
ATOM     23  C   UNL     1      37.734 -25.113 -13.439  0.00  0.00    +0.148 C 
BRANCH  23  24
ATOM     24  O   UNL     1      38.739 -25.903 -12.971  0.00  0.00    -0.424 OA
BRANCH  24  26
ATOM     25  O   UNL     1      40.908 -26.540 -13.580  0.00  0.00    -0.250 OA
ATOM     26  C   UNL     1      39.926 -25.824 -13.718  0.00  0.00    +0.322 C 
ATOM     27  C   UNL     1      39.824 -24.718 -14.727  0.00  0.00    +0.122 C 
ENDBRANCH  24  26
ENDBRANCH  23  24
ENDBRANCH   1  18
TORSDOF 7
ENDMDL
MODEL 6
REMARK VINA RESULT:     -10.7      3.232      5.627
REMARK  Name = 2391
REMARK  7 active torsions:
REMARK  status: ('A' for Active; 'I' for Inactive)
REMARK    1  A    between atoms: C_1  and  C_3
REMARK    2  A    between atoms: C_1  and  C_8
REMARK    3  A    between atoms: C_1  and  C_18
REMARK    4  A    between atoms: C_13  and  O_14
REMARK    5  A    between atoms: O_14  and  C_16
REMARK    6  A    between atoms: C_23  and  O_24
REMARK    7  A    between atoms: O_24  and  C_26
REMARK                            x       y       z     vdW  Elec       q    Type
REMARK                         _______ _______ _______ _____ _____    ______ ____
ROOT
ATOM      1  C   UNL     1      34.477 -22.482 -15.510  0.00  0.00    +0.085 C 
ENDROOT
BRANCH   1   3
ATOM      2  N   UNL     1      33.794 -22.475 -17.833  0.00  0.00    -0.248 NA
ATOM      3  C   UNL     1      34.731 -22.076 -16.980  0.00  0.00    +0.067 C 
ATOM      4  C   UNL     1      35.862 -21.370 -17.246  0.00  0.00    +0.015 C 
ATOM      5  C   UNL     1      36.061 -21.020 -18.578  0.00  0.00    +0.003 C 
ATOM      6  C   UNL     1      34.021 -22.118 -19.117  0.00  0.00    +0.098 C 
ATOM      7  C   UNL     1      35.127 -21.398 -19.537  0.00  0.00    +0.021 C 
ENDBRANCH   1   3
BRANCH   1   8
ATOM      8  C   UNL     1      35.517 -23.355 -14.894  0.00  0.00    -0.013 C 
ATOM      9  C   UNL     1      35.595 -24.703 -15.247  0.00  0.00    -0.000 C 
ATOM     10  C   UNL     1      36.410 -22.825 -13.964  0.00  0.00    -0.000 C 
ATOM     11  C   UNL     1      36.568 -25.520 -14.670  0.00  0.00    +0.037 C 
ATOM     12  C   UNL     1      37.383 -23.642 -13.387  0.00  0.00    +0.037 C 
ATOM     13  C   UNL     1      37.461 -24.990 -13.740  0.00  0.00    +0.148 C 
BRANCH  13  14
ATOM     14  O   UNL     1      38.410 -25.787 -13.178  0.00  0.00    -0.424 OA
BRANCH  14  16
ATOM     15  O   UNL     1      40.652 -26.374 -13.504  0.00  0.00    -0.250 OA
ATOM     16  C   UNL     1      39.664 -25.719 -13.807  0.00  0.00    +0.322 C 
ATOM     17  C   UNL     1      39.627 -24.714 -14.919  0.00  0.00    +0.122 C 
ENDBRANCH  14  16
ENDBRANCH  13  14
ENDBRANCH   1   8
BRANCH   1  18
ATOM     18  C   UNL     1      33.013 -22.911 -15.260  0.00  0.00    -0.013 C 
ATOM     19  C   UNL     1      32.680 -23.369 -14.015  0.00  0.00    -0.000 C 
ATOM     20  C   UNL     1      32.129 -22.810 -16.300  0.00  0.00    -0.000 C 
ATOM     21  C   UNL     1      31.358 -23.756 -13.792  0.00  0.00    +0.037 C 
ATOM     22  C   UNL     1      30.807 -23.197 -16.076  0.00  0.00    +0.037 C 
ATOM     23  C   UNL     1      30.423 -23.670 -14.822  0.00  0.00    +0.148 C 
BRANCH  23  24
ATOM     24  O   UNL     1      29.133 -24.047 -14.602  0.00  0.00    -0.424 OA
BRANCH  24  26
ATOM     25  O   UNL     1      27.663 -24.051 -16.424  0.00  0.00    -0.250 OA
ATOM     26  C   UNL     1      28.208 -23.476 -15.492  0.00  0.00    +0.322 C 
ATOM     27  C   UNL     1      27.977 -22.037 -15.138  0.00  0.00    +0.122 C 
ENDBRANCH  24  26
ENDBRANCH  23  24
ENDBRANCH   1  18
TORSDOF 7
ENDMDL
MODEL 7
REMARK VINA RESULT:     -10.6      3.039      6.839
REMARK  Name = 2391
REMARK  7 active torsions:
REMARK  status: ('A' for Active; 'I' for Inactive)
REMARK    1  A    between atoms: C_1  and  C_3
REMARK    2  A    between atoms: C_1  and  C_8
REMARK    3  A    between atoms: C_1  and  C_18
REMARK    4  A    between atoms: C_13  and  O_14
REMARK    5  A    between atoms: O_14  and  C_16
REMARK    6  A    between atoms: C_23  and  O_24
REMARK    7  A    between atoms: O_24  and  C_26
REMARK                            x       y       z     vdW  Elec       q    Type
REMARK                         _______ _______ _______ _____ _____    ______ ____
ROOT
ATOM      1  C   UNL     1      33.848 -23.339 -16.227  0.00  0.00    +0.085 C 
ENDROOT
BRANCH   1   3
ATOM      2  N   UNL     1      34.819 -22.598 -14.137  0.00  0.00    -0.248 NA
ATOM      3  C   UNL     1      34.708 -23.623 -14.974  0.00  0.00    +0.067 C 
ATOM      4  C   UNL     1      35.251 -24.864 -14.858  0.00  0.00    +0.015 C 
ATOM      5  C   UNL     1      36.019 -25.088 -13.720  0.00  0.00    +0.003 C 
ATOM      6  C   UNL     1      35.573 -22.852 -13.043  0.00  0.00    +0.098 C 
ATOM      7  C   UNL     1      36.187 -24.067 -12.790  0.00  0.00    +0.021 C 
ENDBRANCH   1   3
BRANCH   1   8
ATOM      8  C   UNL     1      34.466 -22.438 -17.242  0.00  0.00    -0.013 C 
ATOM      9  C   UNL     1      33.858 -22.268 -18.486  0.00  0.00    -0.000 C 
ATOM     10  C   UNL     1      35.652 -21.768 -16.947  0.00  0.00    -0.000 C 
ATOM     11  C   UNL     1      34.438 -21.425 -19.435  0.00  0.00    +0.037 C 
ATOM     12  C   UNL     1      36.232 -20.925 -17.897  0.00  0.00    +0.037 C 
ATOM     13  C   UNL     1      35.624 -20.755 -19.141  0.00  0.00    +0.148 C 
BRANCH  13  14
ATOM     14  O   UNL     1      36.188 -19.933 -20.067  0.00  0.00    -0.424 OA
BRANCH  14  16
ATOM     15  O   UNL     1      34.076 -19.023 -20.502  0.00  0.00    -0.250 OA
ATOM     16  C   UNL     1      35.291 -19.021 -20.649  0.00  0.00    +0.322 C 
ATOM     17  C   UNL     1      36.038 -18.030 -21.491  0.00  0.00    +0.122 C 
ENDBRANCH  14  16
ENDBRANCH  13  14
ENDBRANCH   1   8
BRANCH   1  18
ATOM     18  C   UNL     1      32.374 -23.035 -15.875  0.00  0.00    -0.013 C 
ATOM     19  C   UNL     1      31.600 -22.418 -16.820  0.00  0.00    -0.000 C 
ATOM     20  C   UNL     1      31.922 -23.397 -14.635  0.00  0.00    -0.000 C 
ATOM     21  C   UNL     1      30.270 -22.143 -16.500  0.00  0.00    +0.037 C 
ATOM     22  C   UNL     1      30.592 -23.123 -14.315  0.00  0.00    +0.037 C 
ATOM     23  C   UNL     1      29.767 -22.496 -15.248  0.00  0.00    +0.148 C 
BRANCH  23  24
ATOM     24  O   UNL     1      28.468 -22.228 -14.938  0.00  0.00    -0.424 OA
BRANCH  24  26
ATOM     25  O   UNL     1      27.529 -23.883 -16.301  0.00  0.00    -0.250 OA
ATOM     26  C   UNL     1      27.541 -22.743 -15.858  0.00  0.00    +0.322 C 
ATOM     27  C   UNL     1      26.547 -21.683 -16.233  0.00  0.00    +0.122 C 
ENDBRANCH  24  26
ENDBRANCH  23  24
ENDBRANCH   1  18
TORSDOF 7
ENDMDL
MODEL 8
REMARK VINA RESULT:      -9.7     11.668     15.883
REMARK  Name = 2391
REMARK  7 active torsions:
REMARK  status: ('A' for Active; 'I' for Inactive)
REMARK    1  A    between atoms: C_1  and  C_3
REMARK    2  A    between atoms: C_1  and  C_8
REMARK    3  A    between atoms: C_1  and  C_18
REMARK    4  A    between atoms: C_13  and  O_14
REMARK    5  A    between atoms: O_14  and  C_16
REMARK    6  A    between atoms: C_23  and  O_24
REMARK    7  A    between atoms: O_24  and  C_26
REMARK                            x       y       z     vdW  Elec       q    Type
REMARK                         _______ _______ _______ _____ _____    ______ ____
ROOT
ATOM      1  C   UNL     1      31.371  -7.566 -22.973  0.00  0.00    +0.085 C 
ENDROOT
BRANCH   1   3
ATOM      2  N   UNL     1      30.664  -5.661 -21.655  0.00  0.00    -0.248 NA
ATOM      3  C   UNL     1      31.470  -6.716 -21.685  0.00  0.00    +0.067 C 
ATOM      4  C   UNL     1      32.353  -7.125 -20.734  0.00  0.00    +0.015 C 
ATOM      5  C   UNL     1      32.418  -6.340 -19.587  0.00  0.00    +0.003 C 
ATOM      6  C   UNL     1      30.755  -4.922 -20.527  0.00  0.00    +0.098 C 
ATOM      7  C   UNL     1      31.606  -5.216 -19.474  0.00  0.00    +0.021 C 
ENDBRANCH   1   3
BRANCH   1   8
ATOM      8  C   UNL     1      31.569  -9.033 -22.794  0.00  0.00    -0.013 C 
ATOM      9  C   UNL     1      30.729  -9.751 -21.943  0.00  0.00    -0.000 C 
ATOM     10  C   UNL     1      32.594  -9.686 -23.477  0.00  0.00    -0.000 C 
ATOM     11  C   UNL     1      30.915 -11.124 -21.775  0.00  0.00    +0.037 C 
ATOM     12  C   UNL     1      32.780 -11.059 -23.309  0.00  0.00    +0.037 C 
ATOM     13  C   UNL     1      31.940 -11.777 -22.458  0.00  0.00    +0.148 C 
BRANCH  13  14
ATOM     14  O   UNL     1      32.120 -13.116 -22.294  0.00  0.00    -0.424 OA
BRANCH  14  16
ATOM     15  O   UNL     1      34.245 -13.800 -22.998  0.00  0.00    -0.250 OA
ATOM     16  C   UNL     1      33.460 -13.497 -22.109  0.00  0.00    +0.322 C 
ATOM     17  C   UNL     1      33.802 -13.483 -20.650  0.00  0.00    +0.122 C 
ENDBRANCH  14  16
ENDBRANCH  13  14
ENDBRANCH   1   8
BRANCH   1  18
ATOM     18  C   UNL     1      32.133  -6.930 -24.159  0.00  0.00    -0.013 C 
ATOM     19  C   UNL     1      33.476  -6.709 -24.017  0.00  0.00    -0.000 C 
ATOM     20  C   UNL     1      31.422  -6.620 -25.286  0.00  0.00    -0.000 C 
ATOM     21  C   UNL     1      34.161  -6.135 -25.088  0.00  0.00    +0.037 C 
ATOM     22  C   UNL     1      32.108  -6.046 -26.357  0.00  0.00    +0.037 C 
ATOM     23  C   UNL     1      33.477  -5.804 -26.257  0.00  0.00    +0.148 C 
BRANCH  23  24
ATOM     24  O   UNL     1      34.148  -5.244 -27.301  0.00  0.00    -0.424 OA
BRANCH  24  26
ATOM     25  O   UNL     1      34.054  -2.981 -26.710  0.00  0.00    -0.250 OA
ATOM     26  C   UNL     1      34.690  -3.978 -27.023  0.00  0.00    +0.322 C 
ATOM     27  C   UNL     1      36.183  -4.016 -27.166  0.00  0.00    +0.122 C 
ENDBRANCH  24  26
ENDBRANCH  23  24
ENDBRANCH   1  18
TORSDOF 7
ENDMDL
MODEL 9
REMARK VINA RESULT:      -9.6      1.611      2.340
REMARK  Name = 2391
REMARK  7 active torsions:
REMARK  status: ('A' for Active; 'I' for Inactive)
REMARK    1  A    between atoms: C_1  and  C_3
REMARK    2  A    between atoms: C_1  and  C_8
REMARK    3  A    between atoms: C_1  and  C_18
REMARK    4  A    between atoms: C_13  and  O_14
REMARK    5  A    between atoms: O_14  and  C_16
REMARK    6  A    between atoms: C_23  and  O_24
REMARK    7  A    between atoms: O_24  and  C_26
REMARK                            x       y       z     vdW  Elec       q    Type
REMARK                         _______ _______ _______ _____ _____    ______ ____
ROOT
ATOM      1  C   UNL     1      33.644 -24.064 -15.415  0.00  0.00    +0.085 C 
ENDROOT
BRANCH   1   3
ATOM      2  N   UNL     1      32.127 -22.496 -14.364  0.00  0.00    -0.248 NA
ATOM      3  C   UNL     1      32.464 -23.778 -14.459  0.00  0.00    +0.067 C 
ATOM      4  C   UNL     1      31.901 -24.842 -13.825  0.00  0.00    +0.015 C 
ATOM      5  C   UNL     1      30.842 -24.551 -12.972  0.00  0.00    +0.003 C 
ATOM      6  C   UNL     1      31.095 -22.252 -13.527  0.00  0.00    +0.098 C 
ATOM      7  C   UNL     1      30.425 -23.234 -12.815  0.00  0.00    +0.021 C 
ENDBRANCH   1   3
BRANCH   1   8
ATOM      8  C   UNL     1      34.934 -24.419 -14.758  0.00  0.00    -0.013 C 
ATOM      9  C   UNL     1      35.433 -23.624 -13.725  0.00  0.00    -0.000 C 
ATOM     10  C   UNL     1      35.642 -25.545 -15.176  0.00  0.00    -0.000 C 
ATOM     11  C   UNL     1      36.641 -23.958 -13.111  0.00  0.00    +0.037 C 
ATOM     12  C   UNL     1      36.850 -25.879 -14.561  0.00  0.00    +0.037 C 
ATOM     13  C   UNL     1      37.349 -25.084 -13.529  0.00  0.00    +0.148 C 
BRANCH  13  14
ATOM     14  O   UNL     1      38.526 -25.407 -12.928  0.00  0.00    -0.424 OA
BRANCH  14  16
ATOM     15  O   UNL     1      40.552 -26.236 -13.760  0.00  0.00    -0.250 OA
ATOM     16  C   UNL     1      39.627 -25.435 -13.801  0.00  0.00    +0.322 C 
ATOM     17  C   UNL     1      39.516 -24.327 -14.805  0.00  0.00    +0.122 C 
ENDBRANCH  14  16
ENDBRANCH  13  14
ENDBRANCH   1   8
BRANCH   1  18
ATOM     18  C   UNL     1      33.742 -23.028 -16.559  0.00  0.00    -0.013 C 
ATOM     19  C   UNL     1      32.659 -22.872 -17.380  0.00  0.00    -0.000 C 
ATOM     20  C   UNL     1      34.908 -22.324 -16.689  0.00  0.00    -0.000 C 
ATOM     21  C   UNL     1      32.748 -21.937 -18.412  0.00  0.00    +0.037 C 
ATOM     22  C   UNL     1      34.998 -21.389 -17.720  0.00  0.00    +0.037 C 
ATOM     23  C   UNL     1      33.917 -21.196 -18.581  0.00  0.00    +0.148 C 
BRANCH  23  24
ATOM     24  O   UNL     1      34.003 -20.283 -19.588  0.00  0.00    -0.424 OA
BRANCH  24  26
ATOM     25  O   UNL     1      36.228 -20.926 -19.929  0.00  0.00    -0.250 OA
ATOM     26  C   UNL     1      35.266 -20.219 -20.198  0.00  0.00    +0.322 C 
ATOM     27  C   UNL     1      35.277 -19.144 -21.244  0.00  0.00    +0.122 C 
ENDBRANCH  24  26
ENDBRANCH  23  24
ENDBRANCH   1  18
TORSDOF 7
ENDMDL
