MODEL 1
REMARK VINA RESULT:     -12.2      0.000      0.000
REMARK  Name = 10617
REMARK  5 active torsions:
REMARK  status: ('A' for Active; 'I' for Inactive)
REMARK    1  A    between atoms: C_10  and  C_18
REMARK    2  A    between atoms: C_18  and  C_19
REMARK    3  A    between atoms: C_19  and  C_20
REMARK    4  A    between atoms: C_20  and  C_22
REMARK    5  A    between atoms: C_22  and  O_23
REMARK                            x       y       z     vdW  Elec       q    Type
REMARK                         _______ _______ _______ _____ _____    ______ ____
ROOT
ATOM      1  C   UNL     1      33.482 -14.205 -22.986  0.00  0.00    +0.000 C 
ATOM      2  C   UNL     1      34.316 -16.020 -21.850  0.00  0.00    +0.000 C 
ATOM      3  C   UNL     1      33.854 -14.645 -21.722  0.00  0.00    +0.000 C 
ATOM      4  C   UNL     1      33.674 -15.210 -23.923  0.00  0.00    +0.000 C 
ATOM      5  C   UNL     1      34.203 -16.374 -23.225  0.00  0.00    +0.000 C 
ATOM      6  C   UNL     1      32.987 -12.934 -23.272  0.00  0.00    +0.000 C 
ATOM      7  C   UNL     1      34.794 -16.921 -20.918  0.00  0.00    +0.003 C 
ATOM      8  C   UNL     1      34.567 -17.629 -23.674  0.00  0.00    +0.000 C 
ATOM      9  C   UNL     1      33.738 -13.784 -20.648  0.00  0.00    +0.000 C 
ATOM     10  C   UNL     1      35.162 -18.192 -21.370  0.00  0.00    +0.035 C 
ATOM     11  C   UNL     1      33.359 -14.964 -25.247  0.00  0.00    +0.000 C 
ATOM     12  C   UNL     1      35.049 -18.541 -22.730  0.00  0.00    +0.003 C 
ATOM     13  C   UNL     1      32.869 -12.060 -22.173  0.00  0.00    +0.000 C 
ATOM     14  C   UNL     1      32.668 -12.689 -24.621  0.00  0.00    +0.000 C 
ATOM     15  C   UNL     1      33.242 -12.488 -20.880  0.00  0.00    +0.000 C 
ATOM     16  C   UNL     1      32.855 -13.698 -25.590  0.00  0.00    +0.000 C 
ENDROOT
BRANCH  10  18
ATOM     17  O   UNL     1      36.669 -18.921 -19.720  0.00  0.00    -0.291 OA
ATOM     18  C   UNL     1      35.670 -19.171 -20.422  0.00  0.00    +0.174 C 
BRANCH  18  19
ATOM     19  C   UNL     1      34.967 -20.533 -20.275  0.00  0.00    +0.081 C 
BRANCH  19  20
ATOM     20  C   UNL     1      33.503 -20.417 -19.864  0.00  0.00    +0.117 C 
BRANCH  20  22
ATOM     21  O   UNL     1      31.996 -21.669 -18.454  0.00  0.00    -0.250 OA
ATOM     22  C   UNL     1      33.114 -21.535 -18.932  0.00  0.00    +0.314 C 
BRANCH  22  23
ATOM     23  O   UNL     1      34.145 -22.375 -18.669  0.00  0.00    -0.480 OA
ATOM     24  H   UNL     1      34.227 -23.181 -19.140  0.00  0.00    +0.295 HD
ENDBRANCH  22  23
ENDBRANCH  20  22
ENDBRANCH  19  20
ENDBRANCH  18  19
ENDBRANCH  10  18
TORSDOF 5
ENDMDL
MODEL 2
REMARK VINA RESULT:     -12.0      3.109      8.622
REMARK  Name = 10617
REMARK  5 active torsions:
REMARK  status: ('A' for Active; 'I' for Inactive)
REMARK    1  A    between atoms: C_10  and  C_18
REMARK    2  A    between atoms: C_18  and  C_19
REMARK    3  A    between atoms: C_19  and  C_20
REMARK    4  A    between atoms: C_20  and  C_22
REMARK    5  A    between atoms: C_22  and  O_23
REMARK                            x       y       z     vdW  Elec       q    Type
REMARK                         _______ _______ _______ _____ _____    ______ ____
ROOT
ATOM      1  C   UNL     1      34.579 -22.169 -16.902  0.00  0.00    +0.000 C 
ATOM      2  C   UNL     1      34.827 -20.916 -18.813  0.00  0.00    +0.000 C 
ATOM      3  C   UNL     1      35.516 -21.479 -17.660  0.00  0.00    +0.000 C 
ATOM      4  C   UNL     1      33.326 -22.088 -17.494  0.00  0.00    +0.000 C 
ATOM      5  C   UNL     1      33.458 -21.297 -18.710  0.00  0.00    +0.000 C 
ATOM      6  C   UNL     1      34.857 -22.846 -15.717  0.00  0.00    +0.000 C 
ATOM      7  C   UNL     1      35.277 -20.150 -19.871  0.00  0.00    +0.003 C 
ATOM      8  C   UNL     1      32.535 -20.914 -19.663  0.00  0.00    +0.000 C 
ATOM      9  C   UNL     1      36.830 -21.441 -17.235  0.00  0.00    +0.000 C 
ATOM     10  C   UNL     1      34.344 -19.762 -20.837  0.00  0.00    +0.035 C 
ATOM     11  C   UNL     1      32.254 -22.716 -16.887  0.00  0.00    +0.000 C 
ATOM     12  C   UNL     1      32.991 -20.139 -20.734  0.00  0.00    +0.003 C 
ATOM     13  C   UNL     1      36.199 -22.805 -15.288  0.00  0.00    +0.000 C 
ATOM     14  C   UNL     1      33.762 -23.483 -15.103  0.00  0.00    +0.000 C 
ATOM     15  C   UNL     1      37.167 -22.109 -16.043  0.00  0.00    +0.000 C 
ATOM     16  C   UNL     1      32.480 -23.414 -15.688  0.00  0.00    +0.000 C 
ENDROOT
BRANCH  10  18
ATOM     17  O   UNL     1      34.512 -19.302 -23.137  0.00  0.00    -0.291 OA
ATOM     18  C   UNL     1      34.776 -18.955 -21.968  0.00  0.00    +0.174 C 
BRANCH  18  19
ATOM     19  C   UNL     1      35.564 -17.655 -21.727  0.00  0.00    +0.081 C 
BRANCH  19  20
ATOM     20  C   UNL     1      34.673 -16.452 -21.438  0.00  0.00    +0.117 C 
BRANCH  20  22
ATOM     21  O   UNL     1      34.336 -14.362 -22.599  0.00  0.00    -0.250 OA
ATOM     22  C   UNL     1      34.552 -15.566 -22.650  0.00  0.00    +0.314 C 
BRANCH  22  23
ATOM     23  O   UNL     1      34.695 -16.251 -23.811  0.00  0.00    -0.480 OA
ATOM     24  H   UNL     1      34.370 -17.127 -23.882  0.00  0.00    +0.295 HD
ENDBRANCH  22  23
ENDBRANCH  20  22
ENDBRANCH  19  20
ENDBRANCH  18  19
ENDBRANCH  10  18
TORSDOF 5
ENDMDL
MODEL 3
REMARK VINA RESULT:     -11.6      7.081     10.001
REMARK  Name = 10617
REMARK  5 active torsions:
REMARK  status: ('A' for Active; 'I' for Inactive)
REMARK    1  A    between atoms: C_10  and  C_18
REMARK    2  A    between atoms: C_18  and  C_19
REMARK    3  A    between atoms: C_19  and  C_20
REMARK    4  A    between atoms: C_20  and  C_22
REMARK    5  A    between atoms: C_22  and  O_23
REMARK                            x       y       z     vdW  Elec       q    Type
REMARK                         _______ _______ _______ _____ _____    ______ ____
ROOT
ATOM      1  C   UNL     1      34.589 -22.135 -16.792  0.00  0.00    +0.000 C 
ATOM      2  C   UNL     1      32.499 -22.884 -16.198  0.00  0.00    +0.000 C 
ATOM      3  C   UNL     1      33.293 -22.291 -17.266  0.00  0.00    +0.000 C 
ATOM      4  C   UNL     1      34.683 -22.591 -15.485  0.00  0.00    +0.000 C 
ATOM      5  C   UNL     1      33.368 -23.071 -15.085  0.00  0.00    +0.000 C 
ATOM      6  C   UNL     1      35.645 -21.598 -17.526  0.00  0.00    +0.000 C 
ATOM      7  C   UNL     1      31.167 -23.245 -16.135  0.00  0.00    +0.003 C 
ATOM      8  C   UNL     1      32.909 -23.621 -13.904  0.00  0.00    +0.000 C 
ATOM      9  C   UNL     1      32.995 -21.893 -18.555  0.00  0.00    +0.000 C 
ATOM     10  C   UNL     1      30.701 -23.802 -14.940  0.00  0.00    +0.035 C 
ATOM     11  C   UNL     1      35.901 -22.521 -14.834  0.00  0.00    +0.000 C 
ATOM     12  C   UNL     1      31.561 -23.988 -13.840  0.00  0.00    +0.003 C 
ATOM     13  C   UNL     1      35.336 -21.195 -18.840  0.00  0.00    +0.000 C 
ATOM     14  C   UNL     1      36.883 -21.529 -16.858  0.00  0.00    +0.000 C 
ATOM     15  C   UNL     1      34.025 -21.344 -19.341  0.00  0.00    +0.000 C 
ATOM     16  C   UNL     1      37.000 -21.987 -15.529  0.00  0.00    +0.000 C 
ENDROOT
BRANCH  10  18
ATOM     17  O   UNL     1      28.910 -24.880 -13.864  0.00  0.00    -0.291 OA
ATOM     18  C   UNL     1      29.305 -24.197 -14.830  0.00  0.00    +0.174 C 
BRANCH  18  19
ATOM     19  C   UNL     1      28.298 -23.767 -15.912  0.00  0.00    +0.081 C 
BRANCH  19  20
ATOM     20  C   UNL     1      27.636 -22.424 -15.623  0.00  0.00    +0.117 C 
BRANCH  20  22
ATOM     21  O   UNL     1      26.322 -20.840 -16.885  0.00  0.00    -0.250 OA
ATOM     22  C   UNL     1      26.858 -21.939 -16.818  0.00  0.00    +0.314 C 
BRANCH  22  23
ATOM     23  O   UNL     1      26.803 -22.859 -17.812  0.00  0.00    -0.480 OA
ATOM     24  H   UNL     1      26.899 -23.770 -17.614  0.00  0.00    +0.295 HD
ENDBRANCH  22  23
ENDBRANCH  20  22
ENDBRANCH  19  20
ENDBRANCH  18  19
ENDBRANCH  10  18
TORSDOF 5
ENDMDL
MODEL 4
REMARK VINA RESULT:     -11.5      3.144      8.325
REMARK  Name = 10617
REMARK  5 active torsions:
REMARK  status: ('A' for Active; 'I' for Inactive)
REMARK    1  A    between atoms: C_10  and  C_18
REMARK    2  A    between atoms: C_18  and  C_19
REMARK    3  A    between atoms: C_19  and  C_20
REMARK    4  A    between atoms: C_20  and  C_22
REMARK    5  A    between atoms: C_22  and  O_23
REMARK                            x       y       z     vdW  Elec       q    Type
REMARK                         _______ _______ _______ _____ _____    ______ ____
ROOT
ATOM      1  C   UNL     1      34.551 -21.627 -17.784  0.00  0.00    +0.000 C 
ATOM      2  C   UNL     1      34.243 -20.440 -19.728  0.00  0.00    +0.000 C 
ATOM      3  C   UNL     1      33.594 -21.275 -18.727  0.00  0.00    +0.000 C 
ATOM      4  C   UNL     1      35.779 -21.071 -18.113  0.00  0.00    +0.000 C 
ATOM      5  C   UNL     1      35.609 -20.312 -19.344  0.00  0.00    +0.000 C 
ATOM      6  C   UNL     1      34.312 -22.425 -16.667  0.00  0.00    +0.000 C 
ATOM      7  C   UNL     1      33.761 -19.827 -20.868  0.00  0.00    +0.003 C 
ATOM      8  C   UNL     1      36.498 -19.571 -20.099  0.00  0.00    +0.000 C 
ATOM      9  C   UNL     1      32.299 -21.734 -18.576  0.00  0.00    +0.000 C 
ATOM     10  C   UNL     1      34.660 -19.077 -21.633  0.00  0.00    +0.035 C 
ATOM     11  C   UNL     1      36.866 -21.307 -17.291  0.00  0.00    +0.000 C 
ATOM     12  C   UNL     1      36.010 -18.951 -21.253  0.00  0.00    +0.003 C 
ATOM     13  C   UNL     1      32.990 -22.889 -16.517  0.00  0.00    +0.000 C 
ATOM     14  C   UNL     1      35.422 -22.662 -15.834  0.00  0.00    +0.000 C 
ATOM     15  C   UNL     1      32.002 -22.543 -17.464  0.00  0.00    +0.000 C 
ATOM     16  C   UNL     1      36.680 -22.106 -16.150  0.00  0.00    +0.000 C 
ENDROOT
BRANCH  10  18
ATOM     17  O   UNL     1      33.665 -19.067 -23.764  0.00  0.00    -0.291 OA
ATOM     18  C   UNL     1      34.193 -18.415 -22.842  0.00  0.00    +0.174 C 
BRANCH  18  19
ATOM     19  C   UNL     1      34.348 -16.890 -22.989  0.00  0.00    +0.081 C 
BRANCH  19  20
ATOM     20  C   UNL     1      34.149 -16.397 -24.418  0.00  0.00    +0.117 C 
BRANCH  20  22
ATOM     21  O   UNL     1      33.157 -14.421 -23.449  0.00  0.00    -0.250 OA
ATOM     22  C   UNL     1      33.376 -15.104 -24.441  0.00  0.00    +0.314 C 
BRANCH  22  23
ATOM     23  O   UNL     1      32.935 -14.783 -25.682  0.00  0.00    -0.480 OA
ATOM     24  H   UNL     1      33.353 -14.098 -26.166  0.00  0.00    +0.295 HD
ENDBRANCH  22  23
ENDBRANCH  20  22
ENDBRANCH  19  20
ENDBRANCH  18  19
ENDBRANCH  10  18
TORSDOF 5
ENDMDL
MODEL 5
REMARK VINA RESULT:     -11.1      7.004      9.934
REMARK  Name = 10617
REMARK  5 active torsions:
REMARK  status: ('A' for Active; 'I' for Inactive)
REMARK    1  A    between atoms: C_10  and  C_18
REMARK    2  A    between atoms: C_18  and  C_19
REMARK    3  A    between atoms: C_19  and  C_20
REMARK    4  A    between atoms: C_20  and  C_22
REMARK    5  A    between atoms: C_22  and  O_23
REMARK                            x       y       z     vdW  Elec       q    Type
REMARK                         _______ _______ _______ _____ _____    ______ ____
ROOT
ATOM      1  C   UNL     1      34.152 -22.091 -17.073  0.00  0.00    +0.000 C 
ATOM      2  C   UNL     1      35.660 -22.681 -15.442  0.00  0.00    +0.000 C 
ATOM      3  C   UNL     1      35.504 -22.072 -16.756  0.00  0.00    +0.000 C 
ATOM      4  C   UNL     1      33.423 -22.674 -16.045  0.00  0.00    +0.000 C 
ATOM      5  C   UNL     1      34.360 -23.058 -14.998  0.00  0.00    +0.000 C 
ATOM      6  C   UNL     1      33.605 -21.595 -18.254  0.00  0.00    +0.000 C 
ATOM      7  C   UNL     1      36.777 -22.914 -14.663  0.00  0.00    +0.003 C 
ATOM      8  C   UNL     1      34.171 -23.667 -13.773  0.00  0.00    +0.000 C 
ATOM      9  C   UNL     1      36.399 -21.529 -17.657  0.00  0.00    +0.000 C 
ATOM     10  C   UNL     1      36.587 -23.531 -13.422  0.00  0.00    +0.035 C 
ATOM     11  C   UNL     1      32.051 -22.785 -16.173  0.00  0.00    +0.000 C 
ATOM     12  C   UNL     1      35.301 -23.902 -12.983  0.00  0.00    +0.003 C 
ATOM     13  C   UNL     1      34.522 -21.041 -19.169  0.00  0.00    +0.000 C 
ATOM     14  C   UNL     1      32.207 -21.711 -18.379  0.00  0.00    +0.000 C 
ATOM     15  C   UNL     1      35.901 -21.013 -18.867  0.00  0.00    +0.000 C 
ATOM     16  C   UNL     1      31.448 -22.300 -17.346  0.00  0.00    +0.000 C 
ENDROOT
BRANCH  10  18
ATOM     17  O   UNL     1      38.217 -22.894 -11.852  0.00  0.00    -0.291 OA
ATOM     18  C   UNL     1      37.736 -23.794 -12.569  0.00  0.00    +0.174 C 
BRANCH  18  19
ATOM     19  C   UNL     1      38.367 -25.198 -12.543  0.00  0.00    +0.081 C 
BRANCH  19  20
ATOM     20  C   UNL     1      38.612 -25.777 -13.932  0.00  0.00    +0.117 C 
BRANCH  20  22
ATOM     21  O   UNL     1      40.483 -24.256 -14.056  0.00  0.00    -0.250 OA
ATOM     22  C   UNL     1      39.807 -25.129 -14.583  0.00  0.00    +0.314 C 
BRANCH  22  23
ATOM     23  O   UNL     1      40.046 -25.611 -15.827  0.00  0.00    -0.480 OA
ATOM     24  H   UNL     1      40.442 -25.062 -16.475  0.00  0.00    +0.295 HD
ENDBRANCH  22  23
ENDBRANCH  20  22
ENDBRANCH  19  20
ENDBRANCH  18  19
ENDBRANCH  10  18
TORSDOF 5
ENDMDL
MODEL 6
REMARK VINA RESULT:     -11.1      3.317      9.244
REMARK  Name = 10617
REMARK  5 active torsions:
REMARK  status: ('A' for Active; 'I' for Inactive)
REMARK    1  A    between atoms: C_10  and  C_18
REMARK    2  A    between atoms: C_18  and  C_19
REMARK    3  A    between atoms: C_19  and  C_20
REMARK    4  A    between atoms: C_20  and  C_22
REMARK    5  A    between atoms: C_22  and  O_23
REMARK                            x       y       z     vdW  Elec       q    Type
REMARK                         _______ _______ _______ _____ _____    ______ ____
ROOT
ATOM      1  C   UNL     1      33.625 -22.822 -16.045  0.00  0.00    +0.000 C 
ATOM      2  C   UNL     1      33.652 -21.602 -17.993  0.00  0.00    +0.000 C 
ATOM      3  C   UNL     1      32.801 -22.275 -17.020  0.00  0.00    +0.000 C 
ATOM      4  C   UNL     1      34.956 -22.543 -16.325  0.00  0.00    +0.000 C 
ATOM      5  C   UNL     1      34.998 -21.769 -17.558  0.00  0.00    +0.000 C 
ATOM      6  C   UNL     1      33.179 -23.546 -14.942  0.00  0.00    +0.000 C 
ATOM      7  C   UNL     1      33.355 -20.904 -19.147  0.00  0.00    +0.003 C 
ATOM      8  C   UNL     1      36.052 -21.239 -18.275  0.00  0.00    +0.000 C 
ATOM      9  C   UNL     1      31.434 -22.446 -16.920  0.00  0.00    +0.000 C 
ATOM     10  C   UNL     1      34.421 -20.367 -19.875  0.00  0.00    +0.035 C 
ATOM     11  C   UNL     1      35.935 -23.004 -15.465  0.00  0.00    +0.000 C 
ATOM     12  C   UNL     1      35.752 -20.531 -19.444  0.00  0.00    +0.003 C 
ATOM     13  C   UNL     1      31.784 -23.716 -14.843  0.00  0.00    +0.000 C 
ATOM     14  C   UNL     1      34.180 -24.014 -14.069  0.00  0.00    +0.000 C 
ATOM     15  C   UNL     1      30.929 -23.170 -15.824  0.00  0.00    +0.000 C 
ATOM     16  C   UNL     1      35.539 -23.741 -14.335  0.00  0.00    +0.000 C 
ENDROOT
BRANCH  10  18
ATOM     17  O   UNL     1      33.049 -19.715 -21.669  0.00  0.00    -0.291 OA
ATOM     18  C   UNL     1      34.153 -19.623 -21.096  0.00  0.00    +0.174 C 
BRANCH  18  19
ATOM     19  C   UNL     1      35.239 -18.709 -21.692  0.00  0.00    +0.081 C 
BRANCH  19  20
ATOM     20  C   UNL     1      34.693 -17.685 -22.681  0.00  0.00    +0.117 C 
BRANCH  20  22
ATOM     21  O   UNL     1      34.534 -16.046 -20.915  0.00  0.00    -0.250 OA
ATOM     22  C   UNL     1      34.731 -16.297 -22.097  0.00  0.00    +0.314 C 
BRANCH  22  23
ATOM     23  O   UNL     1      34.995 -15.348 -23.028  0.00  0.00    -0.480 OA
ATOM     24  H   UNL     1      35.790 -15.385 -23.524  0.00  0.00    +0.295 HD
ENDBRANCH  22  23
ENDBRANCH  20  22
ENDBRANCH  19  20
ENDBRANCH  18  19
ENDBRANCH  10  18
TORSDOF 5
ENDMDL
MODEL 7
REMARK VINA RESULT:     -10.7      3.678      9.671
REMARK  Name = 10617
REMARK  5 active torsions:
REMARK  status: ('A' for Active; 'I' for Inactive)
REMARK    1  A    between atoms: C_10  and  C_18
REMARK    2  A    between atoms: C_18  and  C_19
REMARK    3  A    between atoms: C_19  and  C_20
REMARK    4  A    between atoms: C_20  and  C_22
REMARK    5  A    between atoms: C_22  and  O_23
REMARK                            x       y       z     vdW  Elec       q    Type
REMARK                         _______ _______ _______ _____ _____    ______ ____
ROOT
ATOM      1  C   UNL     1      32.761 -23.218 -15.198  0.00  0.00    +0.000 C 
ATOM      2  C   UNL     1      33.826 -22.236 -16.982  0.00  0.00    +0.000 C 
ATOM      3  C   UNL     1      34.016 -22.892 -15.696  0.00  0.00    +0.000 C 
ATOM      4  C   UNL     1      31.771 -22.815 -16.084  0.00  0.00    +0.000 C 
ATOM      5  C   UNL     1      32.424 -22.188 -17.225  0.00  0.00    +0.000 C 
ATOM      6  C   UNL     1      32.528 -23.860 -13.984  0.00  0.00    +0.000 C 
ATOM      7  C   UNL     1      34.727 -21.716 -17.891  0.00  0.00    +0.003 C 
ATOM      8  C   UNL     1      31.916 -21.620 -18.377  0.00  0.00    +0.000 C 
ATOM      9  C   UNL     1      35.137 -23.213 -14.955  0.00  0.00    +0.000 C 
ATOM     10  C   UNL     1      34.215 -21.140 -19.058  0.00  0.00    +0.035 C 
ATOM     11  C   UNL     1      30.446 -23.053 -15.766  0.00  0.00    +0.000 C 
ATOM     12  C   UNL     1      32.828 -21.094 -19.298  0.00  0.00    +0.003 C 
ATOM     13  C   UNL     1      33.675 -24.185 -13.233  0.00  0.00    +0.000 C 
ATOM     14  C   UNL     1      31.178 -24.099 -13.664  0.00  0.00    +0.000 C 
ATOM     15  C   UNL     1      34.961 -23.862 -13.720  0.00  0.00    +0.000 C 
ATOM     16  C   UNL     1      30.156 -23.697 -14.551  0.00  0.00    +0.000 C 
ENDROOT
BRANCH  10  18
ATOM     17  O   UNL     1      36.306 -20.985 -20.122  0.00  0.00    -0.291 OA
ATOM     18  C   UNL     1      35.129 -20.581 -20.042  0.00  0.00    +0.174 C 
BRANCH  18  19
ATOM     19  C   UNL     1      34.642 -19.480 -21.002  0.00  0.00    +0.081 C 
BRANCH  19  20
ATOM     20  C   UNL     1      35.704 -18.428 -21.304  0.00  0.00    +0.117 C 
BRANCH  20  22
ATOM     21  O   UNL     1      34.635 -16.422 -20.493  0.00  0.00    -0.250 OA
ATOM     22  C   UNL     1      35.086 -17.060 -21.434  0.00  0.00    +0.314 C 
BRANCH  22  23
ATOM     23  O   UNL     1      35.073 -16.615 -22.714  0.00  0.00    -0.480 OA
ATOM     24  H   UNL     1      34.698 -17.144 -23.391  0.00  0.00    +0.295 HD
ENDBRANCH  22  23
ENDBRANCH  20  22
ENDBRANCH  19  20
ENDBRANCH  18  19
ENDBRANCH  10  18
TORSDOF 5
ENDMDL
MODEL 8
REMARK VINA RESULT:     -10.6      2.474      4.712
REMARK  Name = 10617
REMARK  5 active torsions:
REMARK  status: ('A' for Active; 'I' for Inactive)
REMARK    1  A    between atoms: C_10  and  C_18
REMARK    2  A    between atoms: C_18  and  C_19
REMARK    3  A    between atoms: C_19  and  C_20
REMARK    4  A    between atoms: C_20  and  C_22
REMARK    5  A    between atoms: C_22  and  O_23
REMARK                            x       y       z     vdW  Elec       q    Type
REMARK                         _______ _______ _______ _____ _____    ______ ____
ROOT
ATOM      1  C   UNL     1      31.811 -10.156 -21.532  0.00  0.00    +0.000 C 
ATOM      2  C   UNL     1      32.732 -12.248 -21.290  0.00  0.00    +0.000 C 
ATOM      3  C   UNL     1      32.087 -11.143 -20.594  0.00  0.00    +0.000 C 
ATOM      4  C   UNL     1      32.236 -10.555 -22.792  0.00  0.00    +0.000 C 
ATOM      5  C   UNL     1      32.825 -11.881 -22.663  0.00  0.00    +0.000 C 
ATOM      6  C   UNL     1      31.194  -8.940 -21.249  0.00  0.00    +0.000 C 
ATOM      7  C   UNL     1      33.209 -13.464 -20.841  0.00  0.00    +0.003 C 
ATOM      8  C   UNL     1      33.395 -12.728 -23.593  0.00  0.00    +0.000 C 
ATOM      9  C   UNL     1      31.738 -10.933 -19.274  0.00  0.00    +0.000 C 
ATOM     10  C   UNL     1      33.786 -14.323 -21.781  0.00  0.00    +0.035 C 
ATOM     11  C   UNL     1      32.048  -9.705 -23.866  0.00  0.00    +0.000 C 
ATOM     12  C   UNL     1      33.877 -13.960 -23.139  0.00  0.00    +0.003 C 
ATOM     13  C   UNL     1      30.839  -8.731 -19.901  0.00  0.00    +0.000 C 
ATOM     14  C   UNL     1      31.005  -8.077 -22.346  0.00  0.00    +0.000 C 
ATOM     15  C   UNL     1      31.111  -9.721 -18.932  0.00  0.00    +0.000 C 
ATOM     16  C   UNL     1      31.430  -8.463 -23.635  0.00  0.00    +0.000 C 
ENDROOT
BRANCH  10  18
ATOM     17  O   UNL     1      34.296 -15.934 -20.146  0.00  0.00    -0.291 OA
ATOM     18  C   UNL     1      34.300 -15.615 -21.352  0.00  0.00    +0.174 C 
BRANCH  18  19
ATOM     19  C   UNL     1      34.854 -16.605 -22.393  0.00  0.00    +0.081 C 
BRANCH  19  20
ATOM     20  C   UNL     1      34.976 -18.031 -21.867  0.00  0.00    +0.117 C 
BRANCH  20  22
ATOM     21  O   UNL     1      36.484 -18.621 -20.076  0.00  0.00    -0.250 OA
ATOM     22  C   UNL     1      36.324 -18.259 -21.234  0.00  0.00    +0.314 C 
BRANCH  22  23
ATOM     23  O   UNL     1      37.348 -18.006 -22.086  0.00  0.00    -0.480 OA
ATOM     24  H   UNL     1      37.348 -17.222 -22.599  0.00  0.00    +0.295 HD
ENDBRANCH  22  23
ENDBRANCH  20  22
ENDBRANCH  19  20
ENDBRANCH  18  19
ENDBRANCH  10  18
TORSDOF 5
ENDMDL
MODEL 9
REMARK VINA RESULT:     -10.5      8.459     10.747
REMARK  Name = 10617
REMARK  5 active torsions:
REMARK  status: ('A' for Active; 'I' for Inactive)
REMARK    1  A    between atoms: C_10  and  C_18
REMARK    2  A    between atoms: C_18  and  C_19
REMARK    3  A    between atoms: C_19  and  C_20
REMARK    4  A    between atoms: C_20  and  C_22
REMARK    5  A    between atoms: C_22  and  O_23
REMARK                            x       y       z     vdW  Elec       q    Type
REMARK                         _______ _______ _______ _____ _____    ______ ____
ROOT
ATOM      1  C   UNL     1      35.303 -22.865 -14.976  0.00  0.00    +0.000 C 
ATOM      2  C   UNL     1      33.084 -23.387 -14.684  0.00  0.00    +0.000 C 
ATOM      3  C   UNL     1      34.410 -23.446 -14.085  0.00  0.00    +0.000 C 
ATOM      4  C   UNL     1      34.636 -22.433 -16.114  0.00  0.00    +0.000 C 
ATOM      5  C   UNL     1      33.224 -22.754 -15.952  0.00  0.00    +0.000 C 
ATOM      6  C   UNL     1      36.672 -22.734 -14.759  0.00  0.00    +0.000 C 
ATOM      7  C   UNL     1      31.851 -23.817 -14.232  0.00  0.00    +0.003 C 
ATOM      8  C   UNL     1      32.133 -22.547 -16.773  0.00  0.00    +0.000 C 
ATOM      9  C   UNL     1      34.883 -23.942 -12.885  0.00  0.00    +0.000 C 
ATOM     10  C   UNL     1      30.745 -23.608 -15.063  0.00  0.00    +0.035 C 
ATOM     11  C   UNL     1      35.356 -21.823 -17.125  0.00  0.00    +0.000 C 
ATOM     12  C   UNL     1      30.885 -22.981 -16.316  0.00  0.00    +0.003 C 
ATOM     13  C   UNL     1      37.150 -23.240 -13.534  0.00  0.00    +0.000 C 
ATOM     14  C   UNL     1      37.401 -22.113 -15.791  0.00  0.00    +0.000 C 
ATOM     15  C   UNL     1      36.260 -23.836 -12.614  0.00  0.00    +0.000 C 
ATOM     16  C   UNL     1      36.742 -21.666 -16.956  0.00  0.00    +0.000 C 
ENDROOT
BRANCH  10  18
ATOM     17  O   UNL     1      29.271 -24.583 -13.512  0.00  0.00    -0.291 OA
ATOM     18  C   UNL     1      29.428 -24.044 -14.626  0.00  0.00    +0.174 C 
BRANCH  18  19
ATOM     19  C   UNL     1      28.208 -23.837 -15.542  0.00  0.00    +0.081 C 
BRANCH  19  20
ATOM     20  C   UNL     1      27.621 -22.432 -15.461  0.00  0.00    +0.117 C 
BRANCH  20  22
ATOM     21  O   UNL     1      26.456 -20.952 -16.970  0.00  0.00    -0.250 OA
ATOM     22  C   UNL     1      26.987 -22.036 -16.769  0.00  0.00    +0.314 C 
BRANCH  22  23
ATOM     23  O   UNL     1      27.055 -23.020 -17.699  0.00  0.00    -0.480 OA
ATOM     24  H   UNL     1      26.421 -23.709 -17.701  0.00  0.00    +0.295 HD
ENDBRANCH  22  23
ENDBRANCH  20  22
ENDBRANCH  19  20
ENDBRANCH  18  19
ENDBRANCH  10  18
TORSDOF 5
ENDMDL
