MODEL 1
REMARK VINA RESULT:     -10.7      0.000      0.000
REMARK  Name = 9947999
REMARK  2 active torsions:
REMARK  status: ('A' for Active; 'I' for Inactive)
REMARK    1  A    between atoms: C_1  and  C_13
REMARK    2  A    between atoms: C_4  and  N_19
REMARK                            x       y       z     vdW  Elec       q    Type
REMARK                         _______ _______ _______ _____ _____    ______ ____
ROOT
ATOM      1  C   UNL     1      34.902 -22.526 -15.574  0.00  0.00    +0.044 C 
ATOM      2  C   UNL     1      33.698 -23.384 -15.145  0.00  0.00    +0.007 C 
ATOM      3  C   UNL     1      32.399 -22.738 -15.598  0.00  0.00    -0.017 C 
ATOM      4  C   UNL     1      32.335 -22.698 -17.130  0.00  0.00    -0.043 C 
ATOM      5  C   UNL     1      34.808 -22.045 -17.020  0.00  0.00    -0.024 C 
ATOM      6  C   UNL     1      33.599 -22.120 -17.749  0.00  0.00    -0.046 C 
ATOM      7  C   UNL     1      35.935 -21.452 -17.627  0.00  0.00    -0.004 C 
ATOM      8  C   UNL     1      33.594 -21.704 -19.096  0.00  0.00    -0.007 C 
ATOM      9  C   UNL     1      35.897 -21.015 -18.949  0.00  0.00    -0.000 C 
ATOM     10  C   UNL     1      34.731 -21.154 -19.687  0.00  0.00    -0.000 C 
ENDROOT
BRANCH   1  13
ATOM     11 CL   UNL     1      37.141 -26.865 -13.803  0.00  0.00    -0.081 Cl
ATOM     12 CL   UNL     1      40.014 -25.452 -14.272  0.00  0.00    -0.081 Cl
ATOM     13  C   UNL     1      36.185 -23.280 -15.240  0.00  0.00    -0.018 C 
ATOM     14  C   UNL     1      36.112 -24.572 -14.734  0.00  0.00    +0.008 C 
ATOM     15  C   UNL     1      37.415 -22.664 -15.443  0.00  0.00    -0.003 C 
ATOM     16  C   UNL     1      37.287 -25.260 -14.429  0.00  0.00    +0.068 C 
ATOM     17  C   UNL     1      38.589 -23.353 -15.138  0.00  0.00    +0.012 C 
ATOM     18  C   UNL     1      38.525 -24.651 -14.631  0.00  0.00    +0.068 C 
ENDBRANCH   1  13
BRANCH   4  19
ATOM     19  N   UNL     1      31.110 -21.969 -17.477  0.00  0.00    +0.384 N 
ATOM     20  H   UNL     1      31.243 -20.974 -17.293  0.00  0.00    -0.089 HD
ATOM     21  H   UNL     1      30.335 -22.318 -16.914  0.00  0.00    -0.089 HD
ATOM     22  H   UNL     1      30.901 -22.106 -18.466  0.00  0.00    -0.089 HD
ENDBRANCH   4  19
TORSDOF 2
ENDMDL
MODEL 2
REMARK VINA RESULT:     -10.2      4.010      6.251
REMARK  Name = 9947999
REMARK  2 active torsions:
REMARK  status: ('A' for Active; 'I' for Inactive)
REMARK    1  A    between atoms: C_1  and  C_13
REMARK    2  A    between atoms: C_4  and  N_19
REMARK                            x       y       z     vdW  Elec       q    Type
REMARK                         _______ _______ _______ _____ _____    ______ ____
ROOT
ATOM      1  C   UNL     1      33.871 -22.138 -18.292  0.00  0.00    +0.044 C 
ATOM      2  C   UNL     1      32.420 -22.232 -17.790  0.00  0.00    +0.007 C 
ATOM      3  C   UNL     1      32.320 -23.223 -16.642  0.00  0.00    -0.017 C 
ATOM      4  C   UNL     1      33.127 -22.720 -15.438  0.00  0.00    -0.043 C 
ATOM      5  C   UNL     1      34.890 -22.025 -17.160  0.00  0.00    -0.024 C 
ATOM      6  C   UNL     1      34.541 -22.305 -15.819  0.00  0.00    -0.046 C 
ATOM      7  C   UNL     1      36.228 -21.697 -17.462  0.00  0.00    -0.004 C 
ATOM      8  C   UNL     1      35.516 -22.134 -14.816  0.00  0.00    -0.007 C 
ATOM      9  C   UNL     1      37.184 -21.567 -16.458  0.00  0.00    -0.000 C 
ATOM     10  C   UNL     1      36.825 -21.772 -15.134  0.00  0.00    -0.000 C 
ENDROOT
BRANCH   1  13
ATOM     11 CL   UNL     1      36.838 -18.831 -20.982  0.00  0.00    -0.081 Cl
ATOM     12 CL   UNL     1      34.149 -17.749 -22.422  0.00  0.00    -0.081 Cl
ATOM     13  C   UNL     1      33.959 -21.027 -19.334  0.00  0.00    -0.018 C 
ATOM     14  C   UNL     1      35.196 -20.486 -19.660  0.00  0.00    +0.008 C 
ATOM     15  C   UNL     1      32.798 -20.568 -19.946  0.00  0.00    -0.003 C 
ATOM     16  C   UNL     1      35.275 -19.470 -20.613  0.00  0.00    +0.068 C 
ATOM     17  C   UNL     1      32.878 -19.553 -20.900  0.00  0.00    +0.012 C 
ATOM     18  C   UNL     1      34.116 -19.004 -21.233  0.00  0.00    +0.068 C 
ENDBRANCH   1  13
BRANCH   4  19
ATOM     19  N   UNL     1      33.065 -23.777 -14.423  0.00  0.00    +0.384 N 
ATOM     20  H   UNL     1      33.075 -23.356 -13.493  0.00  0.00    -0.089 HD
ATOM     21  H   UNL     1      33.871 -24.394 -14.525  0.00  0.00    -0.089 HD
ATOM     22  H   UNL     1      32.207 -24.315 -14.543  0.00  0.00    -0.089 HD
ENDBRANCH   4  19
TORSDOF 2
ENDMDL
MODEL 3
REMARK VINA RESULT:      -9.8      1.324      1.677
REMARK  Name = 9947999
REMARK  2 active torsions:
REMARK  status: ('A' for Active; 'I' for Inactive)
REMARK    1  A    between atoms: C_1  and  C_13
REMARK    2  A    between atoms: C_4  and  N_19
REMARK                            x       y       z     vdW  Elec       q    Type
REMARK                         _______ _______ _______ _____ _____    ______ ____
ROOT
ATOM      1  C   UNL     1      34.340 -22.698 -14.964  0.00  0.00    +0.044 C 
ATOM      2  C   UNL     1      33.068 -23.489 -14.612  0.00  0.00    +0.007 C 
ATOM      3  C   UNL     1      31.844 -22.818 -15.212  0.00  0.00    -0.017 C 
ATOM      4  C   UNL     1      31.922 -22.850 -16.743  0.00  0.00    -0.043 C 
ATOM      5  C   UNL     1      34.399 -22.284 -16.433  0.00  0.00    -0.024 C 
ATOM      6  C   UNL     1      33.260 -22.349 -17.268  0.00  0.00    -0.046 C 
ATOM      7  C   UNL     1      35.600 -21.763 -16.958  0.00  0.00    -0.004 C 
ATOM      8  C   UNL     1      33.396 -21.999 -18.626  0.00  0.00    -0.007 C 
ATOM      9  C   UNL     1      35.702 -21.389 -18.296  0.00  0.00    -0.000 C 
ATOM     10  C   UNL     1      34.604 -21.521 -19.132  0.00  0.00    -0.000 C 
ENDROOT
BRANCH   1  13
ATOM     11 CL   UNL     1      38.349 -23.039 -11.680  0.00  0.00    -0.081 Cl
ATOM     12 CL   UNL     1      39.134 -25.844 -13.090  0.00  0.00    -0.081 Cl
ATOM     13  C   UNL     1      35.556 -23.481 -14.479  0.00  0.00    -0.018 C 
ATOM     14  C   UNL     1      36.320 -22.984 -13.430  0.00  0.00    +0.008 C 
ATOM     15  C   UNL     1      35.886 -24.685 -15.091  0.00  0.00    -0.003 C 
ATOM     16  C   UNL     1      37.432 -23.701 -12.986  0.00  0.00    +0.068 C 
ATOM     17  C   UNL     1      36.998 -25.401 -14.647  0.00  0.00    +0.012 C 
ATOM     18  C   UNL     1      37.770 -24.910 -13.595  0.00  0.00    +0.068 C 
ENDBRANCH   1  13
BRANCH   4  19
ATOM     19  N   UNL     1      30.765 -22.093 -17.236  0.00  0.00    +0.384 N 
ATOM     20  H   UNL     1      30.112 -21.933 -16.468  0.00  0.00    -0.089 HD
ATOM     21  H   UNL     1      30.301 -22.624 -17.973  0.00  0.00    -0.089 HD
ATOM     22  H   UNL     1      31.078 -21.197 -17.608  0.00  0.00    -0.089 HD
ENDBRANCH   4  19
TORSDOF 2
ENDMDL
MODEL 4
REMARK VINA RESULT:      -9.7      3.666      5.710
REMARK  Name = 9947999
REMARK  2 active torsions:
REMARK  status: ('A' for Active; 'I' for Inactive)
REMARK    1  A    between atoms: C_1  and  C_13
REMARK    2  A    between atoms: C_4  and  N_19
REMARK                            x       y       z     vdW  Elec       q    Type
REMARK                         _______ _______ _______ _____ _____    ______ ____
ROOT
ATOM      1  C   UNL     1      33.765 -23.290 -15.957  0.00  0.00    +0.044 C 
ATOM      2  C   UNL     1      34.548 -23.233 -14.634  0.00  0.00    +0.007 C 
ATOM      3  C   UNL     1      36.039 -23.376 -14.893  0.00  0.00    -0.017 C 
ATOM      4  C   UNL     1      36.549 -22.183 -15.712  0.00  0.00    -0.043 C 
ATOM      5  C   UNL     1      34.385 -22.431 -17.057  0.00  0.00    -0.024 C 
ATOM      6  C   UNL     1      35.696 -21.916 -16.944  0.00  0.00    -0.046 C 
ATOM      7  C   UNL     1      33.660 -22.197 -18.244  0.00  0.00    -0.004 C 
ATOM      8  C   UNL     1      36.190 -21.090 -17.973  0.00  0.00    -0.007 C 
ATOM      9  C   UNL     1      34.181 -21.405 -19.264  0.00  0.00    -0.000 C 
ATOM     10  C   UNL     1      35.440 -20.840 -19.123  0.00  0.00    -0.000 C 
ENDROOT
BRANCH   1  13
ATOM     11 CL   UNL     1      29.847 -23.253 -12.548  0.00  0.00    -0.081 Cl
ATOM     12 CL   UNL     1      27.951 -22.083 -14.895  0.00  0.00    -0.081 Cl
ATOM     13  C   UNL     1      32.297 -22.990 -15.672  0.00  0.00    -0.018 C 
ATOM     14  C   UNL     1      31.781 -23.222 -14.403  0.00  0.00    +0.008 C 
ATOM     15  C   UNL     1      31.489 -22.489 -16.687  0.00  0.00    -0.003 C 
ATOM     16  C   UNL     1      30.439 -22.947 -14.143  0.00  0.00    +0.068 C 
ATOM     17  C   UNL     1      30.146 -22.215 -16.426  0.00  0.00    +0.012 C 
ATOM     18  C   UNL     1      29.621 -22.444 -15.155  0.00  0.00    +0.068 C 
ENDBRANCH   1  13
BRANCH   4  19
ATOM     19  N   UNL     1      37.960 -22.453 -16.007  0.00  0.00    +0.384 N 
ATOM     20  H   UNL     1      38.543 -22.060 -15.267  0.00  0.00    -0.089 HD
ATOM     21  H   UNL     1      38.209 -22.026 -16.899  0.00  0.00    -0.089 HD
ATOM     22  H   UNL     1      38.111 -23.460 -16.059  0.00  0.00    -0.089 HD
ENDBRANCH   4  19
TORSDOF 2
ENDMDL
MODEL 5
REMARK VINA RESULT:      -9.5      3.642      5.643
REMARK  Name = 9947999
REMARK  2 active torsions:
REMARK  status: ('A' for Active; 'I' for Inactive)
REMARK    1  A    between atoms: C_1  and  C_13
REMARK    2  A    between atoms: C_4  and  N_19
REMARK                            x       y       z     vdW  Elec       q    Type
REMARK                         _______ _______ _______ _____ _____    ______ ____
ROOT
ATOM      1  C   UNL     1      32.726 -22.954 -16.864  0.00  0.00    +0.044 C 
ATOM      2  C   UNL     1      31.320 -22.331 -16.786  0.00  0.00    +0.007 C 
ATOM      3  C   UNL     1      30.469 -23.069 -15.766  0.00  0.00    -0.017 C 
ATOM      4  C   UNL     1      31.061 -22.897 -14.361  0.00  0.00    -0.043 C 
ATOM      5  C   UNL     1      33.334 -23.231 -15.491  0.00  0.00    -0.024 C 
ATOM      6  C   UNL     1      32.550 -23.211 -14.315  0.00  0.00    -0.046 C 
ATOM      7  C   UNL     1      34.697 -23.579 -15.395  0.00  0.00    -0.004 C 
ATOM      8  C   UNL     1      33.184 -23.426 -13.075  0.00  0.00    -0.007 C 
ATOM      9  C   UNL     1      35.296 -23.823 -14.162  0.00  0.00    -0.000 C 
ATOM     10  C   UNL     1      34.542 -23.732 -13.001  0.00  0.00    -0.000 C 
ENDROOT
BRANCH   1  13
ATOM     11 CL   UNL     1      33.024 -19.788 -20.969  0.00  0.00    -0.081 Cl
ATOM     12 CL   UNL     1      36.211 -19.577 -20.447  0.00  0.00    -0.081 Cl
ATOM     13  C   UNL     1      33.593 -22.096 -17.779  0.00  0.00    -0.018 C 
ATOM     14  C   UNL     1      33.007 -21.408 -18.835  0.00  0.00    +0.008 C 
ATOM     15  C   UNL     1      34.961 -22.013 -17.548  0.00  0.00    -0.003 C 
ATOM     16  C   UNL     1      33.801 -20.623 -19.671  0.00  0.00    +0.068 C 
ATOM     17  C   UNL     1      35.754 -21.228 -18.385  0.00  0.00    +0.012 C 
ATOM     18  C   UNL     1      35.175 -20.533 -19.446  0.00  0.00    +0.068 C 
ENDBRANCH   1  13
BRANCH   4  19
ATOM     19  N   UNL     1      30.247 -23.722 -13.461  0.00  0.00    +0.384 N 
ATOM     20  H   UNL     1      30.826 -24.462 -13.063  0.00  0.00    -0.089 HD
ATOM     21  H   UNL     1      29.477 -24.138 -13.985  0.00  0.00    -0.089 HD
ATOM     22  H   UNL     1      29.874 -23.141 -12.711  0.00  0.00    -0.089 HD
ENDBRANCH   4  19
TORSDOF 2
ENDMDL
MODEL 6
REMARK VINA RESULT:      -9.2     13.996     16.177
REMARK  Name = 9947999
REMARK  2 active torsions:
REMARK  status: ('A' for Active; 'I' for Inactive)
REMARK    1  A    between atoms: C_1  and  C_13
REMARK    2  A    between atoms: C_4  and  N_19
REMARK                            x       y       z     vdW  Elec       q    Type
REMARK                         _______ _______ _______ _____ _____    ______ ____
ROOT
ATOM      1  C   UNL     1      30.841  -8.724 -22.576  0.00  0.00    +0.044 C 
ATOM      2  C   UNL     1      30.820  -8.197 -24.022  0.00  0.00    +0.007 C 
ATOM      3  C   UNL     1      30.171  -6.824 -24.076  0.00  0.00    -0.017 C 
ATOM      4  C   UNL     1      31.016  -5.810 -23.294  0.00  0.00    -0.043 C 
ATOM      5  C   UNL     1      31.301  -7.676 -21.565  0.00  0.00    -0.024 C 
ATOM      6  C   UNL     1      31.377  -6.305 -21.901  0.00  0.00    -0.046 C 
ATOM      7  C   UNL     1      31.596  -8.072 -20.244  0.00  0.00    -0.004 C 
ATOM      8  C   UNL     1      31.856  -5.397 -20.935  0.00  0.00    -0.007 C 
ATOM      9  C   UNL     1      32.034  -7.151 -19.294  0.00  0.00    -0.000 C 
ATOM     10  C   UNL     1      32.177  -5.817 -19.645  0.00  0.00    -0.000 C 
ENDROOT
BRANCH   1  13
ATOM     11 CL   UNL     1      31.685 -13.316 -20.301  0.00  0.00    -0.081 Cl
ATOM     12 CL   UNL     1      34.006 -13.858 -22.489  0.00  0.00    -0.081 Cl
ATOM     13  C   UNL     1      31.632 -10.027 -22.540  0.00  0.00    -0.018 C 
ATOM     14  C   UNL     1      31.351 -10.976 -21.565  0.00  0.00    +0.008 C 
ATOM     15  C   UNL     1      32.629 -10.251 -23.484  0.00  0.00    -0.003 C 
ATOM     16  C   UNL     1      32.075 -12.168 -21.533  0.00  0.00    +0.068 C 
ATOM     17  C   UNL     1      33.352 -11.443 -23.451  0.00  0.00    +0.012 C 
ATOM     18  C   UNL     1      33.076 -12.402 -22.476  0.00  0.00    +0.068 C 
ENDBRANCH   1  13
BRANCH   4  19
ATOM     19  N   UNL     1      30.270  -4.547 -23.307  0.00  0.00    +0.384 N 
ATOM     20  H   UNL     1      29.742  -4.472 -24.177  0.00  0.00    -0.089 HD
ATOM     21  H   UNL     1      30.922  -3.766 -23.237  0.00  0.00    -0.089 HD
ATOM     22  H   UNL     1      29.627  -4.523 -22.516  0.00  0.00    -0.089 HD
ENDBRANCH   4  19
TORSDOF 2
ENDMDL
MODEL 7
REMARK VINA RESULT:      -9.1     16.481     18.525
REMARK  Name = 9947999
REMARK  2 active torsions:
REMARK  status: ('A' for Active; 'I' for Inactive)
REMARK    1  A    between atoms: C_1  and  C_13
REMARK    2  A    between atoms: C_4  and  N_19
REMARK                            x       y       z     vdW  Elec       q    Type
REMARK                         _______ _______ _______ _____ _____    ______ ____
ROOT
ATOM      1  C   UNL     1      31.491  -5.558 -21.601  0.00  0.00    +0.044 C 
ATOM      2  C   UNL     1      30.074  -4.957 -21.598  0.00  0.00    +0.007 C 
ATOM      3  C   UNL     1      30.129  -3.469 -21.900  0.00  0.00    -0.017 C 
ATOM      4  C   UNL     1      30.658  -3.238 -23.321  0.00  0.00    -0.043 C 
ATOM      5  C   UNL     1      32.332  -5.101 -22.790  0.00  0.00    -0.024 C 
ATOM      6  C   UNL     1      31.944  -4.005 -23.595  0.00  0.00    -0.046 C 
ATOM      7  C   UNL     1      33.559  -5.742 -23.057  0.00  0.00    -0.004 C 
ATOM      8  C   UNL     1      32.740  -3.667 -24.707  0.00  0.00    -0.007 C 
ATOM      9  C   UNL     1      34.349  -5.368 -24.142  0.00  0.00    -0.000 C 
ATOM     10  C   UNL     1      33.932  -4.339 -24.974  0.00  0.00    -0.000 C 
ENDROOT
BRANCH   1  13
ATOM     11 CL   UNL     1      31.461  -9.685 -18.448  0.00  0.00    -0.081 Cl
ATOM     12 CL   UNL     1      31.054 -11.550 -21.062  0.00  0.00    -0.081 Cl
ATOM     13  C   UNL     1      31.382  -7.072 -21.447  0.00  0.00    -0.018 C 
ATOM     14  C   UNL     1      31.459  -7.642 -20.183  0.00  0.00    +0.008 C 
ATOM     15  C   UNL     1      31.209  -7.865 -22.576  0.00  0.00    -0.003 C 
ATOM     16  C   UNL     1      31.359  -9.026 -20.043  0.00  0.00    +0.068 C 
ATOM     17  C   UNL     1      31.109  -9.249 -22.435  0.00  0.00    +0.012 C 
ATOM     18  C   UNL     1      31.184  -9.830 -21.170  0.00  0.00    +0.068 C 
ENDBRANCH   1  13
BRANCH   4  19
ATOM     19  N   UNL     1      30.780  -1.786 -23.491  0.00  0.00    +0.384 N 
ATOM     20  H   UNL     1      30.087  -1.463 -24.166  0.00  0.00    -0.089 HD
ATOM     21  H   UNL     1      31.715  -1.560 -23.830  0.00  0.00    -0.089 HD
ATOM     22  H   UNL     1      30.623  -1.324 -22.595  0.00  0.00    -0.089 HD
ENDBRANCH   4  19
TORSDOF 2
ENDMDL
MODEL 8
REMARK VINA RESULT:      -9.1      3.701      5.781
REMARK  Name = 9947999
REMARK  2 active torsions:
REMARK  status: ('A' for Active; 'I' for Inactive)
REMARK    1  A    between atoms: C_1  and  C_13
REMARK    2  A    between atoms: C_4  and  N_19
REMARK                            x       y       z     vdW  Elec       q    Type
REMARK                         _______ _______ _______ _____ _____    ______ ____
ROOT
ATOM      1  C   UNL     1      34.997 -23.573 -14.713  0.00  0.00    +0.044 C 
ATOM      2  C   UNL     1      34.097 -22.799 -13.733  0.00  0.00    +0.007 C 
ATOM      3  C   UNL     1      34.027 -23.519 -12.396  0.00  0.00    -0.017 C 
ATOM      4  C   UNL     1      35.411 -23.540 -11.735  0.00  0.00    -0.043 C 
ATOM      5  C   UNL     1      36.308 -24.037 -14.081  0.00  0.00    -0.024 C 
ATOM      6  C   UNL     1      36.500 -24.028 -12.681  0.00  0.00    -0.046 C 
ATOM      7  C   UNL     1      37.330 -24.549 -14.906  0.00  0.00    -0.004 C 
ATOM      8  C   UNL     1      37.751 -24.423 -12.166  0.00  0.00    -0.007 C 
ATOM      9  C   UNL     1      38.548 -24.967 -14.373  0.00  0.00    -0.000 C 
ATOM     10  C   UNL     1      38.762 -24.891 -13.005  0.00  0.00    -0.000 C 
ENDROOT
BRANCH   1  13
ATOM     11 CL   UNL     1      32.947 -21.847 -19.161  0.00  0.00    -0.081 Cl
ATOM     12 CL   UNL     1      35.725 -20.283 -19.716  0.00  0.00    -0.081 Cl
ATOM     13  C   UNL     1      35.165 -22.745 -15.983  0.00  0.00    -0.018 C 
ATOM     14  C   UNL     1      34.121 -22.668 -16.896  0.00  0.00    +0.008 C 
ATOM     15  C   UNL     1      36.363 -22.078 -16.213  0.00  0.00    -0.003 C 
ATOM     16  C   UNL     1      34.276 -21.910 -18.058  0.00  0.00    +0.068 C 
ATOM     17  C   UNL     1      36.517 -21.321 -17.375  0.00  0.00    +0.012 C 
ATOM     18  C   UNL     1      35.474 -21.237 -18.297  0.00  0.00    +0.068 C 
ENDBRANCH   1  13
BRANCH   4  19
ATOM     19  N   UNL     1      35.278 -24.340 -10.512  0.00  0.00    +0.384 N 
ATOM     20  H   UNL     1      35.819 -23.908  -9.763  0.00  0.00    -0.089 HD
ATOM     21  H   UNL     1      35.625 -25.283 -10.683  0.00  0.00    -0.089 HD
ATOM     22  H   UNL     1      34.296 -24.384 -10.240  0.00  0.00    -0.089 HD
ENDBRANCH   4  19
TORSDOF 2
ENDMDL
MODEL 9
REMARK VINA RESULT:      -9.1      1.589      1.788
REMARK  Name = 9947999
REMARK  2 active torsions:
REMARK  status: ('A' for Active; 'I' for Inactive)
REMARK    1  A    between atoms: C_1  and  C_13
REMARK    2  A    between atoms: C_4  and  N_19
REMARK                            x       y       z     vdW  Elec       q    Type
REMARK                         _______ _______ _______ _____ _____    ______ ____
ROOT
ATOM      1  C   UNL     1      33.635 -22.556 -14.617  0.00  0.00    +0.044 C 
ATOM      2  C   UNL     1      32.329 -23.258 -14.202  0.00  0.00    +0.007 C 
ATOM      3  C   UNL     1      31.137 -22.604 -14.880  0.00  0.00    -0.017 C 
ATOM      4  C   UNL     1      31.226 -22.791 -16.400  0.00  0.00    -0.043 C 
ATOM      5  C   UNL     1      33.721 -22.293 -16.119  0.00  0.00    -0.024 C 
ATOM      6  C   UNL     1      32.587 -22.398 -16.956  0.00  0.00    -0.046 C 
ATOM      7  C   UNL     1      34.946 -21.874 -16.679  0.00  0.00    -0.004 C 
ATOM      8  C   UNL     1      32.747 -22.191 -18.341  0.00  0.00    -0.007 C 
ATOM      9  C   UNL     1      35.073 -21.640 -18.046  0.00  0.00    -0.000 C 
ATOM     10  C   UNL     1      33.976 -21.812 -18.878  0.00  0.00    -0.000 C 
ENDROOT
BRANCH   1  13
ATOM     11 CL   UNL     1      36.613 -26.808 -14.760  0.00  0.00    -0.081 Cl
ATOM     12 CL   UNL     1      38.311 -25.577 -12.295  0.00  0.00    -0.081 Cl
ATOM     13  C   UNL     1      34.814 -23.332 -14.041  0.00  0.00    -0.018 C 
ATOM     14  C   UNL     1      35.154 -24.567 -14.580  0.00  0.00    +0.008 C 
ATOM     15  C   UNL     1      35.537 -22.796 -12.981  0.00  0.00    -0.003 C 
ATOM     16  C   UNL     1      36.233 -25.277 -14.053  0.00  0.00    +0.068 C 
ATOM     17  C   UNL     1      36.616 -23.507 -12.455  0.00  0.00    +0.012 C 
ATOM     18  C   UNL     1      36.964 -24.746 -12.990  0.00  0.00    +0.068 C 
ENDBRANCH   1  13
BRANCH   4  19
ATOM     19  N   UNL     1      30.104 -22.044 -16.979  0.00  0.00    +0.384 N 
ATOM     20  H   UNL     1      29.348 -22.690 -17.207  0.00  0.00    -0.089 HD
ATOM     21  H   UNL     1      30.413 -21.569 -17.827  0.00  0.00    -0.089 HD
ATOM     22  H   UNL     1      29.770 -21.355 -16.305  0.00  0.00    -0.089 HD
ENDBRANCH   4  19
TORSDOF 2
ENDMDL
