MODEL 1
REMARK VINA RESULT:     -11.1      0.000      0.000
REMARK  Name = 16070039
REMARK  6 active torsions:
REMARK  status: ('A' for Active; 'I' for Inactive)
REMARK    1  A    between atoms: N_3  and  C_18
REMARK    2  A    between atoms: C_6  and  C_12
REMARK    3  A    between atoms: C_19  and  O_28
REMARK    4  A    between atoms: C_21  and  C_25
REMARK    5  A    between atoms: C_25  and  O_26
REMARK    6  A    between atoms: O_28  and  C_32
REMARK                            x       y       z     vdW  Elec       q    Type
REMARK                         _______ _______ _______ _____ _____    ______ ____
ROOT
ATOM      1  O   UNL     1      30.548  -9.133 -22.271  0.00  0.00    -0.252 OA
ATOM      2  O   UNL     1      30.683 -11.831 -21.611  0.00  0.00    -0.270 OA
ATOM      3  N   UNL     1      32.516  -8.347 -23.295  0.00  0.00    -0.266 N 
ATOM      4  N   UNL     1      32.344 -10.563 -22.638  0.00  0.00    -0.236 N 
ATOM      5  C   UNL     1      31.686  -9.317 -22.695  0.00  0.00    +0.310 C 
ATOM      6  C   UNL     1      31.802 -11.731 -22.103  0.00  0.00    +0.254 C 
ATOM      7  H   UNL     1      33.405  -8.659 -23.579  0.00  0.00    +0.157 HD
ATOM      8  H   UNL     1      33.256 -10.611 -23.004  0.00  0.00    +0.159 HD
ENDROOT
BRANCH   6  12
ATOM      9 CL   UNL     1      32.693 -12.661 -24.898  0.00  0.00    -0.082 Cl
ATOM     10  F   UNL     1      34.160 -15.288 -19.876  0.00  0.00    -0.202 F 
ATOM     11  F   UNL     1      35.055 -16.270 -22.264  0.00  0.00    -0.202 F 
ATOM     12  C   UNL     1      32.668 -12.936 -22.183  0.00  0.00    +0.067 C 
ATOM     13  C   UNL     1      33.110 -13.414 -23.402  0.00  0.00    +0.064 C 
ATOM     14  C   UNL     1      33.007 -13.546 -20.991  0.00  0.00    +0.037 C 
ATOM     15  C   UNL     1      33.921 -14.548 -23.429  0.00  0.00    +0.043 C 
ATOM     16  C   UNL     1      33.819 -14.680 -21.020  0.00  0.00    +0.168 C 
ATOM     17  C   UNL     1      34.276 -15.181 -22.238  0.00  0.00    +0.168 C 
ENDBRANCH   6  12
BRANCH   3  18
ATOM     18  C   UNL     1      32.239  -6.998 -23.536  0.00  0.00    +0.086 C 
ATOM     19  C   UNL     1      32.518  -6.031 -22.571  0.00  0.00    +0.160 C 
ATOM     20  C   UNL     1      31.677  -6.624 -24.757  0.00  0.00    +0.018 C 
ATOM     21  C   UNL     1      31.676  -4.315 -24.048  0.00  0.00    +0.079 C 
ATOM     22  C   UNL     1      32.237  -4.688 -22.827  0.00  0.00    +0.045 C 
ATOM     23  C   UNL     1      31.396  -5.282 -25.012  0.00  0.00    +0.008 C 
BRANCH  21  25
ATOM     24  O   UNL     1      32.203  -2.068 -24.682  0.00  0.00    -0.245 OA
ATOM     25  C   UNL     1      31.382  -2.915 -24.315  0.00  0.00    +0.338 C 
BRANCH  25  26
ATOM     26  O   UNL     1      30.069  -2.613 -24.116  0.00  0.00    -0.477 OA
ATOM     27  H   UNL     1      29.495  -2.512 -24.850  0.00  0.00    +0.295 HD
ENDBRANCH  25  26
ENDBRANCH  21  25
BRANCH  19  28
ATOM     28  O   UNL     1      33.066  -6.376 -21.371  0.00  0.00    -0.403 OA
BRANCH  28  32
ATOM     29  F   UNL     1      32.527  -5.673 -19.263  0.00  0.00    -0.133 F 
ATOM     30  F   UNL     1      32.319  -7.786 -19.777  0.00  0.00    -0.133 F 
ATOM     31  F   UNL     1      30.908  -6.340 -20.612  0.00  0.00    -0.133 F 
ATOM     32  C   UNL     1      32.197  -6.527 -20.254  0.00  0.00    +0.575 C 
ENDBRANCH  28  32
ENDBRANCH  19  28
ENDBRANCH   3  18
TORSDOF 6
ENDMDL
MODEL 2
REMARK VINA RESULT:     -11.0     12.102     16.663
REMARK  Name = 16070039
REMARK  6 active torsions:
REMARK  status: ('A' for Active; 'I' for Inactive)
REMARK    1  A    between atoms: N_3  and  C_18
REMARK    2  A    between atoms: C_6  and  C_12
REMARK    3  A    between atoms: C_19  and  O_28
REMARK    4  A    between atoms: C_21  and  C_25
REMARK    5  A    between atoms: C_25  and  O_26
REMARK    6  A    between atoms: O_28  and  C_32
REMARK                            x       y       z     vdW  Elec       q    Type
REMARK                         _______ _______ _______ _____ _____    ______ ____
ROOT
ATOM      1  O   UNL     1      34.163 -23.615 -16.545  0.00  0.00    -0.252 OA
ATOM      2  O   UNL     1      33.847 -22.860 -19.203  0.00  0.00    -0.270 OA
ATOM      3  N   UNL     1      35.121 -21.918 -15.224  0.00  0.00    -0.266 N 
ATOM      4  N   UNL     1      34.737 -21.567 -17.483  0.00  0.00    -0.236 N 
ATOM      5  C   UNL     1      34.628 -22.484 -16.418  0.00  0.00    +0.310 C 
ATOM      6  C   UNL     1      34.342 -21.813 -18.797  0.00  0.00    +0.254 C 
ATOM      7  H   UNL     1      35.461 -20.997 -15.295  0.00  0.00    +0.157 HD
ATOM      8  H   UNL     1      35.123 -20.683 -17.282  0.00  0.00    +0.159 HD
ENDROOT
BRANCH   6  12
ATOM      9 CL   UNL     1      31.812 -20.602 -20.063  0.00  0.00    -0.082 Cl
ATOM     10  F   UNL     1      37.277 -18.779 -21.112  0.00  0.00    -0.202 F 
ATOM     11  F   UNL     1      35.155 -17.569 -22.339  0.00  0.00    -0.202 F 
ATOM     12  C   UNL     1      34.521 -20.682 -19.745  0.00  0.00    +0.067 C 
ATOM     13  C   UNL     1      33.434 -20.086 -20.352  0.00  0.00    +0.064 C 
ATOM     14  C   UNL     1      35.816 -20.262 -19.983  0.00  0.00    +0.037 C 
ATOM     15  C   UNL     1      33.650 -19.028 -21.235  0.00  0.00    +0.043 C 
ATOM     16  C   UNL     1      36.030 -19.203 -20.866  0.00  0.00    +0.168 C 
ATOM     17  C   UNL     1      34.949 -18.585 -21.491  0.00  0.00    +0.168 C 
ENDBRANCH   6  12
BRANCH   3  18
ATOM     18  C   UNL     1      35.190 -22.496 -13.954  0.00  0.00    +0.086 C 
ATOM     19  C   UNL     1      36.423 -22.788 -13.371  0.00  0.00    +0.160 C 
ATOM     20  C   UNL     1      34.009 -22.781 -13.268  0.00  0.00    +0.018 C 
ATOM     21  C   UNL     1      35.294 -23.649 -11.416  0.00  0.00    +0.079 C 
ATOM     22  C   UNL     1      36.475 -23.364 -12.101  0.00  0.00    +0.045 C 
ATOM     23  C   UNL     1      34.062 -23.358 -11.999  0.00  0.00    +0.008 C 
BRANCH  21  25
ATOM     24  O   UNL     1      34.724 -25.253  -9.735  0.00  0.00    -0.245 OA
ATOM     25  C   UNL     1      35.349 -24.250 -10.093  0.00  0.00    +0.338 C 
BRANCH  25  26
ATOM     26  O   UNL     1      36.187 -23.581  -9.253  0.00  0.00    -0.477 OA
ATOM     27  H   UNL     1      36.345 -23.909  -8.389  0.00  0.00    +0.295 HD
ENDBRANCH  25  26
ENDBRANCH  21  25
BRANCH  19  28
ATOM     28  O   UNL     1      37.588 -22.518 -14.025  0.00  0.00    -0.403 OA
BRANCH  28  32
ATOM     29  F   UNL     1      39.258 -24.008 -14.494  0.00  0.00    -0.133 F 
ATOM     30  F   UNL     1      38.321 -22.897 -16.124  0.00  0.00    -0.133 F 
ATOM     31  F   UNL     1      37.195 -24.483 -15.128  0.00  0.00    -0.133 F 
ATOM     32  C   UNL     1      38.091 -23.492 -14.932  0.00  0.00    +0.575 C 
ENDBRANCH  28  32
ENDBRANCH  19  28
ENDBRANCH   3  18
TORSDOF 6
ENDMDL
MODEL 3
REMARK VINA RESULT:     -10.9      3.464      9.557
REMARK  Name = 16070039
REMARK  6 active torsions:
REMARK  status: ('A' for Active; 'I' for Inactive)
REMARK    1  A    between atoms: N_3  and  C_18
REMARK    2  A    between atoms: C_6  and  C_12
REMARK    3  A    between atoms: C_19  and  O_28
REMARK    4  A    between atoms: C_21  and  C_25
REMARK    5  A    between atoms: C_25  and  O_26
REMARK    6  A    between atoms: O_28  and  C_32
REMARK                            x       y       z     vdW  Elec       q    Type
REMARK                         _______ _______ _______ _____ _____    ______ ____
ROOT
ATOM      1  O   UNL     1      31.230 -12.458 -21.401  0.00  0.00    -0.252 OA
ATOM      2  O   UNL     1      30.089  -9.931 -21.620  0.00  0.00    -0.270 OA
ATOM      3  N   UNL     1      33.474 -12.508 -22.108  0.00  0.00    -0.266 N 
ATOM      4  N   UNL     1      32.269 -10.529 -22.179  0.00  0.00    -0.236 N 
ATOM      5  C   UNL     1      32.229 -11.899 -21.849  0.00  0.00    +0.310 C 
ATOM      6  C   UNL     1      31.203  -9.640 -22.043  0.00  0.00    +0.254 C 
ATOM      7  H   UNL     1      34.173 -11.916 -22.470  0.00  0.00    +0.157 HD
ATOM      8  H   UNL     1      33.116 -10.172 -22.531  0.00  0.00    +0.159 HD
ENDROOT
BRANCH   6  12
ATOM      9 CL   UNL     1      32.068  -7.713 -19.806  0.00  0.00    -0.082 Cl
ATOM     10  F   UNL     1      31.466  -6.240 -25.441  0.00  0.00    -0.202 F 
ATOM     11  F   UNL     1      32.248  -4.377 -23.599  0.00  0.00    -0.202 F 
ATOM     12  C   UNL     1      31.489  -8.232 -22.422  0.00  0.00    +0.067 C 
ATOM     13  C   UNL     1      31.883  -7.308 -21.474  0.00  0.00    +0.064 C 
ATOM     14  C   UNL     1      31.343  -7.898 -23.754  0.00  0.00    +0.037 C 
ATOM     15  C   UNL     1      32.140  -5.997 -21.874  0.00  0.00    +0.043 C 
ATOM     16  C   UNL     1      31.601  -6.586 -24.154  0.00  0.00    +0.168 C 
ATOM     17  C   UNL     1      32.000  -5.636 -23.215  0.00  0.00    +0.168 C 
ENDBRANCH   6  12
BRANCH   3  18
ATOM     18  C   UNL     1      33.844 -13.842 -21.919  0.00  0.00    +0.086 C 
ATOM     19  C   UNL     1      34.218 -14.637 -23.003  0.00  0.00    +0.160 C 
ATOM     20  C   UNL     1      33.836 -14.377 -20.631  0.00  0.00    +0.018 C 
ATOM     21  C   UNL     1      34.578 -16.501 -21.509  0.00  0.00    +0.079 C 
ATOM     22  C   UNL     1      34.586 -15.967 -22.798  0.00  0.00    +0.045 C 
ATOM     23  C   UNL     1      34.204 -15.706 -20.427  0.00  0.00    +0.008 C 
BRANCH  21  25
ATOM     24  O   UNL     1      34.361 -18.873 -21.737  0.00  0.00    -0.245 OA
ATOM     25  C   UNL     1      34.961 -17.888 -21.296  0.00  0.00    +0.338 C 
BRANCH  25  26
ATOM     26  O   UNL     1      36.087 -18.006 -20.538  0.00  0.00    -0.477 OA
ATOM     27  H   UNL     1      36.019 -18.062 -19.605  0.00  0.00    +0.295 HD
ENDBRANCH  25  26
ENDBRANCH  21  25
BRANCH  19  28
ATOM     28  O   UNL     1      34.231 -14.133 -24.270  0.00  0.00    -0.403 OA
BRANCH  28  32
ATOM     29  F   UNL     1      33.286 -13.866 -26.334  0.00  0.00    -0.133 F 
ATOM     30  F   UNL     1      32.042 -13.671 -24.550  0.00  0.00    -0.133 F 
ATOM     31  F   UNL     1      32.758 -15.650 -25.142  0.00  0.00    -0.133 F 
ATOM     32  C   UNL     1      33.086 -14.341 -25.087  0.00  0.00    +0.575 C 
ENDBRANCH  28  32
ENDBRANCH  19  28
ENDBRANCH   3  18
TORSDOF 6
ENDMDL
MODEL 4
REMARK VINA RESULT:     -10.8      1.527      2.108
REMARK  Name = 16070039
REMARK  6 active torsions:
REMARK  status: ('A' for Active; 'I' for Inactive)
REMARK    1  A    between atoms: N_3  and  C_18
REMARK    2  A    between atoms: C_6  and  C_12
REMARK    3  A    between atoms: C_19  and  O_28
REMARK    4  A    between atoms: C_21  and  C_25
REMARK    5  A    between atoms: C_25  and  O_26
REMARK    6  A    between atoms: O_28  and  C_32
REMARK                            x       y       z     vdW  Elec       q    Type
REMARK                         _______ _______ _______ _____ _____    ______ ____
ROOT
ATOM      1  O   UNL     1      30.809  -9.285 -21.636  0.00  0.00    -0.252 OA
ATOM      2  O   UNL     1      31.206 -12.020 -21.329  0.00  0.00    -0.270 OA
ATOM      3  N   UNL     1      32.122  -8.362 -23.357  0.00  0.00    -0.266 N 
ATOM      4  N   UNL     1      32.246 -10.626 -22.877  0.00  0.00    -0.236 N 
ATOM      5  C   UNL     1      31.640  -9.400 -22.535  0.00  0.00    +0.310 C 
ATOM      6  C   UNL     1      31.991 -11.848 -22.256  0.00  0.00    +0.254 C 
ATOM      7  H   UNL     1      32.791  -8.624 -24.032  0.00  0.00    +0.157 HD
ATOM      8  H   UNL     1      32.900 -10.618 -23.613  0.00  0.00    +0.159 HD
ENDROOT
BRANCH   6  12
ATOM      9 CL   UNL     1      33.757 -13.467 -20.326  0.00  0.00    -0.082 Cl
ATOM     10  F   UNL     1      33.070 -14.650 -26.019  0.00  0.00    -0.202 F 
ATOM     11  F   UNL     1      34.688 -16.213 -24.466  0.00  0.00    -0.202 F 
ATOM     12  C   UNL     1      32.724 -13.016 -22.811  0.00  0.00    +0.067 C 
ATOM     13  C   UNL     1      33.535 -13.792 -22.007  0.00  0.00    +0.064 C 
ATOM     14  C   UNL     1      32.553 -13.284 -24.155  0.00  0.00    +0.037 C 
ATOM     15  C   UNL     1      34.204 -14.879 -22.570  0.00  0.00    +0.043 C 
ATOM     16  C   UNL     1      33.222 -14.372 -24.717  0.00  0.00    +0.168 C 
ATOM     17  C   UNL     1      34.046 -15.169 -23.926  0.00  0.00    +0.168 C 
ENDBRANCH   6  12
BRANCH   3  18
ATOM     18  C   UNL     1      31.776  -7.008 -23.339  0.00  0.00    +0.086 C 
ATOM     19  C   UNL     1      32.180  -6.184 -22.289  0.00  0.00    +0.160 C 
ATOM     20  C   UNL     1      31.018  -6.483 -24.386  0.00  0.00    +0.018 C 
ATOM     21  C   UNL     1      31.070  -4.310 -23.333  0.00  0.00    +0.079 C 
ATOM     22  C   UNL     1      31.828  -4.835 -22.286  0.00  0.00    +0.045 C 
ATOM     23  C   UNL     1      30.665  -5.134 -24.382  0.00  0.00    +0.008 C 
BRANCH  21  25
ATOM     24  O   UNL     1      29.931  -2.361 -24.128  0.00  0.00    -0.245 OA
ATOM     25  C   UNL     1      30.701  -2.903 -23.328  0.00  0.00    +0.338 C 
BRANCH  25  26
ATOM     26  O   UNL     1      31.305  -2.211 -22.322  0.00  0.00    -0.477 OA
ATOM     27  H   UNL     1      31.743  -1.403 -22.506  0.00  0.00    +0.295 HD
ENDBRANCH  25  26
ENDBRANCH  21  25
BRANCH  19  28
ATOM     28  O   UNL     1      32.921  -6.678 -21.257  0.00  0.00    -0.403 OA
BRANCH  28  32
ATOM     29  F   UNL     1      32.567  -7.957 -19.395  0.00  0.00    -0.133 F 
ATOM     30  F   UNL     1      30.973  -6.652 -20.121  0.00  0.00    -0.133 F 
ATOM     31  F   UNL     1      32.728  -5.765 -19.168  0.00  0.00    -0.133 F 
ATOM     32  C   UNL     1      32.312  -6.765 -19.974  0.00  0.00    +0.575 C 
ENDBRANCH  28  32
ENDBRANCH  19  28
ENDBRANCH   3  18
TORSDOF 6
ENDMDL
MODEL 5
REMARK VINA RESULT:     -10.7      3.159      8.898
REMARK  Name = 16070039
REMARK  6 active torsions:
REMARK  status: ('A' for Active; 'I' for Inactive)
REMARK    1  A    between atoms: N_3  and  C_18
REMARK    2  A    between atoms: C_6  and  C_12
REMARK    3  A    between atoms: C_19  and  O_28
REMARK    4  A    between atoms: C_21  and  C_25
REMARK    5  A    between atoms: C_25  and  O_26
REMARK    6  A    between atoms: O_28  and  C_32
REMARK                            x       y       z     vdW  Elec       q    Type
REMARK                         _______ _______ _______ _____ _____    ______ ____
ROOT
ATOM      1  O   UNL     1      34.483  -9.623 -23.637  0.00  0.00    -0.252 OA
ATOM      2  O   UNL     1      34.300  -6.881 -23.209  0.00  0.00    -0.270 OA
ATOM      3  N   UNL     1      32.444 -10.740 -23.269  0.00  0.00    -0.266 N 
ATOM      4  N   UNL     1      32.588  -8.443 -22.988  0.00  0.00    -0.236 N 
ATOM      5  C   UNL     1      33.292  -9.615 -23.332  0.00  0.00    +0.310 C 
ATOM      6  C   UNL     1      33.134  -7.161 -22.950  0.00  0.00    +0.254 C 
ATOM      7  H   UNL     1      31.513 -10.560 -23.004  0.00  0.00    +0.157 HD
ATOM      8  H   UNL     1      31.635  -8.539 -22.758  0.00  0.00    +0.159 HD
ENDROOT
BRANCH   6  12
ATOM      9 CL   UNL     1      32.602  -6.658 -19.961  0.00  0.00    -0.082 Cl
ATOM     10  F   UNL     1      30.168  -3.635 -24.346  0.00  0.00    -0.202 F 
ATOM     11  F   UNL     1      29.567  -3.033 -21.749  0.00  0.00    -0.202 F 
ATOM     12  C   UNL     1      32.190  -6.071 -22.594  0.00  0.00    +0.067 C 
ATOM     13  C   UNL     1      31.901  -5.784 -21.275  0.00  0.00    +0.064 C 
ATOM     14  C   UNL     1      31.622  -5.366 -23.638  0.00  0.00    +0.037 C 
ATOM     15  C   UNL     1      31.008  -4.751 -20.987  0.00  0.00    +0.043 C 
ATOM     16  C   UNL     1      30.730  -4.332 -23.350  0.00  0.00    +0.168 C 
ATOM     17  C   UNL     1      30.423  -4.024 -22.025  0.00  0.00    +0.168 C 
ENDBRANCH   6  12
BRANCH   3  18
ATOM     18  C   UNL     1      32.754 -12.076 -23.533  0.00  0.00    +0.086 C 
ATOM     19  C   UNL     1      33.108 -12.942 -22.498  0.00  0.00    +0.160 C 
ATOM     20  C   UNL     1      32.707 -12.542 -24.847  0.00  0.00    +0.018 C 
ATOM     21  C   UNL     1      33.367 -14.739 -24.092  0.00  0.00    +0.079 C 
ATOM     22  C   UNL     1      33.414 -14.275 -22.778  0.00  0.00    +0.045 C 
ATOM     23  C   UNL     1      33.013 -13.873 -25.126  0.00  0.00    +0.008 C 
BRANCH  21  25
ATOM     24  O   UNL     1      33.078 -16.853 -25.177  0.00  0.00    -0.245 OA
ATOM     25  C   UNL     1      33.686 -16.128 -24.383  0.00  0.00    +0.338 C 
BRANCH  25  26
ATOM     26  O   UNL     1      34.761 -16.573 -23.674  0.00  0.00    -0.477 OA
ATOM     27  H   UNL     1      35.335 -15.960 -23.259  0.00  0.00    +0.295 HD
ENDBRANCH  25  26
ENDBRANCH  21  25
BRANCH  19  28
ATOM     28  O   UNL     1      33.161 -12.507 -21.208  0.00  0.00    -0.403 OA
BRANCH  28  32
ATOM     29  F   UNL     1      31.896 -13.768 -19.780  0.00  0.00    -0.133 F 
ATOM     30  F   UNL     1      30.906 -12.484 -21.244  0.00  0.00    -0.133 F 
ATOM     31  F   UNL     1      31.916 -11.572 -19.533  0.00  0.00    -0.133 F 
ATOM     32  C   UNL     1      31.976 -12.584 -20.424  0.00  0.00    +0.575 C 
ENDBRANCH  28  32
ENDBRANCH  19  28
ENDBRANCH   3  18
TORSDOF 6
ENDMDL
MODEL 6
REMARK VINA RESULT:     -10.4      2.807      4.134
REMARK  Name = 16070039
REMARK  6 active torsions:
REMARK  status: ('A' for Active; 'I' for Inactive)
REMARK    1  A    between atoms: N_3  and  C_18
REMARK    2  A    between atoms: C_6  and  C_12
REMARK    3  A    between atoms: C_19  and  O_28
REMARK    4  A    between atoms: C_21  and  C_25
REMARK    5  A    between atoms: C_25  and  O_26
REMARK    6  A    between atoms: O_28  and  C_32
REMARK                            x       y       z     vdW  Elec       q    Type
REMARK                         _______ _______ _______ _____ _____    ______ ____
ROOT
ATOM      1  O   UNL     1      32.863 -12.238 -25.229  0.00  0.00    -0.252 OA
ATOM      2  O   UNL     1      33.084 -15.003 -25.426  0.00  0.00    -0.270 OA
ATOM      3  N   UNL     1      33.480 -11.424 -23.109  0.00  0.00    -0.266 N 
ATOM      4  N   UNL     1      33.567 -13.696 -23.561  0.00  0.00    -0.236 N 
ATOM      5  C   UNL     1      33.263 -12.421 -24.082  0.00  0.00    +0.310 C 
ATOM      6  C   UNL     1      33.459 -14.895 -24.263  0.00  0.00    +0.254 C 
ATOM      7  H   UNL     1      33.801 -11.741 -22.234  0.00  0.00    +0.157 HD
ATOM      8  H   UNL     1      33.881 -13.741 -22.629  0.00  0.00    +0.159 HD
ENDROOT
BRANCH   6  12
ATOM      9 CL   UNL     1      34.239 -14.562 -21.305  0.00  0.00    -0.082 Cl
ATOM     10  F   UNL     1      34.253 -19.643 -24.216  0.00  0.00    -0.202 F 
ATOM     11  F   UNL     1      34.981 -19.555 -21.583  0.00  0.00    -0.202 F 
ATOM     12  C   UNL     1      33.870 -16.114 -23.519  0.00  0.00    +0.067 C 
ATOM     13  C   UNL     1      34.233 -16.046 -22.189  0.00  0.00    +0.064 C 
ATOM     14  C   UNL     1      33.869 -17.306 -24.218  0.00  0.00    +0.037 C 
ATOM     15  C   UNL     1      34.612 -17.216 -21.530  0.00  0.00    +0.043 C 
ATOM     16  C   UNL     1      34.247 -18.476 -23.558  0.00  0.00    +0.168 C 
ATOM     17  C   UNL     1      34.618 -18.432 -22.215  0.00  0.00    +0.168 C 
ENDBRANCH   6  12
BRANCH   3  18
ATOM     18  C   UNL     1      33.297 -10.043 -23.226  0.00  0.00    +0.086 C 
ATOM     19  C   UNL     1      32.065  -9.461 -22.925  0.00  0.00    +0.160 C 
ATOM     20  C   UNL     1      34.361  -9.246 -23.648  0.00  0.00    +0.018 C 
ATOM     21  C   UNL     1      32.964  -7.285 -23.468  0.00  0.00    +0.079 C 
ATOM     22  C   UNL     1      31.899  -8.081 -23.045  0.00  0.00    +0.045 C 
ATOM     23  C   UNL     1      34.193  -7.868 -23.769  0.00  0.00    +0.008 C 
BRANCH  21  25
ATOM     24  O   UNL     1      31.724  -5.238 -23.445  0.00  0.00    -0.245 OA
ATOM     25  C   UNL     1      32.789  -5.846 -23.594  0.00  0.00    +0.338 C 
BRANCH  25  26
ATOM     26  O   UNL     1      33.952  -5.207 -23.902  0.00  0.00    -0.477 OA
ATOM     27  H   UNL     1      34.317  -5.287 -24.761  0.00  0.00    +0.295 HD
ENDBRANCH  25  26
ENDBRANCH  21  25
BRANCH  19  28
ATOM     28  O   UNL     1      31.013 -10.222 -22.511  0.00  0.00    -0.403 OA
BRANCH  28  32
ATOM     29  F   UNL     1      31.158 -11.804 -20.866  0.00  0.00    -0.133 F 
ATOM     30  F   UNL     1      29.623 -10.256 -20.736  0.00  0.00    -0.133 F 
ATOM     31  F   UNL     1      31.713  -9.717 -20.393  0.00  0.00    -0.133 F 
ATOM     32  C   UNL     1      30.894 -10.505 -21.122  0.00  0.00    +0.575 C 
ENDBRANCH  28  32
ENDBRANCH  19  28
ENDBRANCH   3  18
TORSDOF 6
ENDMDL
MODEL 7
REMARK VINA RESULT:     -10.1      2.713      3.249
REMARK  Name = 16070039
REMARK  6 active torsions:
REMARK  status: ('A' for Active; 'I' for Inactive)
REMARK    1  A    between atoms: N_3  and  C_18
REMARK    2  A    between atoms: C_6  and  C_12
REMARK    3  A    between atoms: C_19  and  O_28
REMARK    4  A    between atoms: C_21  and  C_25
REMARK    5  A    between atoms: C_25  and  O_26
REMARK    6  A    between atoms: O_28  and  C_32
REMARK                            x       y       z     vdW  Elec       q    Type
REMARK                         _______ _______ _______ _____ _____    ______ ____
ROOT
ATOM      1  O   UNL     1      31.163  -9.239 -21.146  0.00  0.00    -0.252 OA
ATOM      2  O   UNL     1      31.643 -11.973 -20.990  0.00  0.00    -0.270 OA
ATOM      3  N   UNL     1      32.034  -8.272 -23.108  0.00  0.00    -0.266 N 
ATOM      4  N   UNL     1      32.284 -10.542 -22.711  0.00  0.00    -0.236 N 
ATOM      5  C   UNL     1      31.763  -9.329 -22.215  0.00  0.00    +0.310 C 
ATOM      6  C   UNL     1      32.190 -11.777 -22.071  0.00  0.00    +0.254 C 
ATOM      7  H   UNL     1      32.529  -8.516 -23.924  0.00  0.00    +0.157 HD
ATOM      8  H   UNL     1      32.749 -10.514 -23.578  0.00  0.00    +0.159 HD
ENDROOT
BRANCH   6  12
ATOM      9 CL   UNL     1      33.748 -13.858 -20.424  0.00  0.00    -0.082 Cl
ATOM     10  F   UNL     1      32.949 -14.097 -26.220  0.00  0.00    -0.202 F 
ATOM     11  F   UNL     1      34.367 -16.049 -24.937  0.00  0.00    -0.202 F 
ATOM     12  C   UNL     1      32.783 -12.927 -22.801  0.00  0.00    +0.067 C 
ATOM     13  C   UNL     1      33.495 -13.902 -22.132  0.00  0.00    +0.064 C 
ATOM     14  C   UNL     1      32.587 -12.971 -24.168  0.00  0.00    +0.037 C 
ATOM     15  C   UNL     1      34.034 -14.964 -22.858  0.00  0.00    +0.043 C 
ATOM     16  C   UNL     1      33.126 -14.034 -24.894  0.00  0.00    +0.168 C 
ATOM     17  C   UNL     1      33.849 -15.030 -24.240  0.00  0.00    +0.168 C 
ENDBRANCH   6  12
BRANCH   3  18
ATOM     18  C   UNL     1      31.690  -6.924 -22.985  0.00  0.00    +0.086 C 
ATOM     19  C   UNL     1      32.616  -5.923 -23.280  0.00  0.00    +0.160 C 
ATOM     20  C   UNL     1      30.405  -6.582 -22.563  0.00  0.00    +0.018 C 
ATOM     21  C   UNL     1      30.972  -4.240 -22.732  0.00  0.00    +0.079 C 
ATOM     22  C   UNL     1      32.257  -4.581 -23.154  0.00  0.00    +0.045 C 
ATOM     23  C   UNL     1      30.047  -5.240 -22.436  0.00  0.00    +0.008 C 
BRANCH  21  25
ATOM     24  O   UNL     1      29.576  -2.421 -22.049  0.00  0.00    -0.245 OA
ATOM     25  C   UNL     1      30.599  -2.841 -22.599  0.00  0.00    +0.338 C 
BRANCH  25  26
ATOM     26  O   UNL     1      31.517  -2.003 -23.157  0.00  0.00    -0.477 OA
ATOM     27  H   UNL     1      31.688  -1.169 -22.767  0.00  0.00    +0.295 HD
ENDBRANCH  25  26
ENDBRANCH  21  25
BRANCH  19  28
ATOM     28  O   UNL     1      33.877  -6.236 -23.693  0.00  0.00    -0.403 OA
BRANCH  28  32
ATOM     29  F   UNL     1      34.741  -4.830 -25.276  0.00  0.00    -0.133 F 
ATOM     30  F   UNL     1      33.063  -6.130 -25.794  0.00  0.00    -0.133 F 
ATOM     31  F   UNL     1      35.044  -7.007 -25.503  0.00  0.00    -0.133 F 
ATOM     32  C   UNL     1      34.200  -6.048 -25.066  0.00  0.00    +0.575 C 
ENDBRANCH  28  32
ENDBRANCH  19  28
ENDBRANCH   3  18
TORSDOF 6
ENDMDL
MODEL 8
REMARK VINA RESULT:     -10.1     11.541     16.285
REMARK  Name = 16070039
REMARK  6 active torsions:
REMARK  status: ('A' for Active; 'I' for Inactive)
REMARK    1  A    between atoms: N_3  and  C_18
REMARK    2  A    between atoms: C_6  and  C_12
REMARK    3  A    between atoms: C_19  and  O_28
REMARK    4  A    between atoms: C_21  and  C_25
REMARK    5  A    between atoms: C_25  and  O_26
REMARK    6  A    between atoms: O_28  and  C_32
REMARK                            x       y       z     vdW  Elec       q    Type
REMARK                         _______ _______ _______ _____ _____    ______ ____
ROOT
ATOM      1  O   UNL     1      34.185 -23.215 -17.223  0.00  0.00    -0.252 OA
ATOM      2  O   UNL     1      33.482 -22.107 -19.674  0.00  0.00    -0.270 OA
ATOM      3  N   UNL     1      35.846 -21.977 -16.106  0.00  0.00    -0.266 N 
ATOM      4  N   UNL     1      35.063 -21.285 -18.175  0.00  0.00    -0.236 N 
ATOM      5  C   UNL     1      34.956 -22.260 -17.163  0.00  0.00    +0.310 C 
ATOM      6  C   UNL     1      34.324 -21.272 -19.357  0.00  0.00    +0.254 C 
ATOM      7  H   UNL     1      36.399 -21.170 -16.216  0.00  0.00    +0.157 HD
ATOM      8  H   UNL     1      35.711 -20.556 -18.036  0.00  0.00    +0.159 HD
ENDROOT
BRANCH   6  12
ATOM      9 CL   UNL     1      31.901 -20.000 -20.766  0.00  0.00    -0.082 Cl
ATOM     10  F   UNL     1      37.446 -18.224 -21.392  0.00  0.00    -0.202 F 
ATOM     11  F   UNL     1      35.428 -16.960 -22.734  0.00  0.00    -0.202 F 
ATOM     12  C   UNL     1      34.581 -20.122 -20.263  0.00  0.00    +0.067 C 
ATOM     13  C   UNL     1      33.545 -19.498 -20.930  0.00  0.00    +0.064 C 
ATOM     14  C   UNL     1      35.893 -19.714 -20.402  0.00  0.00    +0.037 C 
ATOM     15  C   UNL     1      33.834 -18.423 -21.771  0.00  0.00    +0.043 C 
ATOM     16  C   UNL     1      36.180 -18.638 -21.243  0.00  0.00    +0.168 C 
ATOM     17  C   UNL     1      35.151 -17.992 -21.927  0.00  0.00    +0.168 C 
ENDBRANCH   6  12
BRANCH   3  18
ATOM     18  C   UNL     1      36.046 -22.695 -14.924  0.00  0.00    +0.086 C 
ATOM     19  C   UNL     1      35.042 -22.771 -13.959  0.00  0.00    +0.160 C 
ATOM     20  C   UNL     1      37.265 -23.341 -14.715  0.00  0.00    +0.018 C 
ATOM     21  C   UNL     1      36.475 -24.139 -12.576  0.00  0.00    +0.079 C 
ATOM     22  C   UNL     1      35.256 -23.493 -12.785  0.00  0.00    +0.045 C 
ATOM     23  C   UNL     1      37.478 -24.062 -13.541  0.00  0.00    +0.008 C 
BRANCH  21  25
ATOM     24  O   UNL     1      36.851 -26.114 -11.279  0.00  0.00    -0.245 OA
ATOM     25  C   UNL     1      36.698 -24.891 -11.351  0.00  0.00    +0.338 C 
BRANCH  25  26
ATOM     26  O   UNL     1      36.724 -24.091 -10.249  0.00  0.00    -0.477 OA
ATOM     27  H   UNL     1      36.760 -24.474  -9.394  0.00  0.00    +0.295 HD
ENDBRANCH  25  26
ENDBRANCH  21  25
BRANCH  19  28
ATOM     28  O   UNL     1      33.844 -22.147 -14.145  0.00  0.00    -0.403 OA
BRANCH  28  32
ATOM     29  F   UNL     1      32.977 -24.224 -14.551  0.00  0.00    -0.133 F 
ATOM     30  F   UNL     1      31.867 -22.453 -15.186  0.00  0.00    -0.133 F 
ATOM     31  F   UNL     1      31.990 -22.929 -13.056  0.00  0.00    -0.133 F 
ATOM     32  C   UNL     1      32.672 -22.951 -14.221  0.00  0.00    +0.575 C 
ENDBRANCH  28  32
ENDBRANCH  19  28
ENDBRANCH   3  18
TORSDOF 6
ENDMDL
MODEL 9
REMARK VINA RESULT:     -10.1      3.216      9.303
REMARK  Name = 16070039
REMARK  6 active torsions:
REMARK  status: ('A' for Active; 'I' for Inactive)
REMARK    1  A    between atoms: N_3  and  C_18
REMARK    2  A    between atoms: C_6  and  C_12
REMARK    3  A    between atoms: C_19  and  O_28
REMARK    4  A    between atoms: C_21  and  C_25
REMARK    5  A    between atoms: C_25  and  O_26
REMARK    6  A    between atoms: O_28  and  C_32
REMARK                            x       y       z     vdW  Elec       q    Type
REMARK                         _______ _______ _______ _____ _____    ______ ____
ROOT
ATOM      1  O   UNL     1      31.110 -12.487 -21.412  0.00  0.00    -0.252 OA
ATOM      2  O   UNL     1      29.933  -9.973 -21.255  0.00  0.00    -0.270 OA
ATOM      3  N   UNL     1      33.435 -12.383 -21.762  0.00  0.00    -0.266 N 
ATOM      4  N   UNL     1      32.190 -10.436 -21.588  0.00  0.00    -0.236 N 
ATOM      5  C   UNL     1      32.146 -11.845 -21.571  0.00  0.00    +0.310 C 
ATOM      6  C   UNL     1      31.088  -9.597 -21.430  0.00  0.00    +0.254 C 
ATOM      7  H   UNL     1      34.161 -11.728 -21.877  0.00  0.00    +0.157 HD
ATOM      8  H   UNL     1      33.069 -10.012 -21.722  0.00  0.00    +0.159 HD
ENDROOT
BRANCH   6  12
ATOM      9 CL   UNL     1      30.787  -8.118 -24.111  0.00  0.00    -0.082 Cl
ATOM     10  F   UNL     1      32.428  -5.616 -19.078  0.00  0.00    -0.202 F 
ATOM     11  F   UNL     1      32.218  -4.126 -21.360  0.00  0.00    -0.202 F 
ATOM     12  C   UNL     1      31.381  -8.141 -21.448  0.00  0.00    +0.067 C 
ATOM     13  C   UNL     1      31.268  -7.408 -22.613  0.00  0.00    +0.064 C 
ATOM     14  C   UNL     1      31.768  -7.563 -20.254  0.00  0.00    +0.037 C 
ATOM     15  C   UNL     1      31.553  -6.043 -22.583  0.00  0.00    +0.043 C 
ATOM     16  C   UNL     1      32.052  -6.197 -20.225  0.00  0.00    +0.168 C 
ATOM     17  C   UNL     1      31.944  -5.437 -21.388  0.00  0.00    +0.168 C 
ENDBRANCH   6  12
BRANCH   3  18
ATOM     18  C   UNL     1      33.816 -13.727 -21.810  0.00  0.00    +0.086 C 
ATOM     19  C   UNL     1      34.159 -14.326 -23.022  0.00  0.00    +0.160 C 
ATOM     20  C   UNL     1      33.851 -14.470 -20.630  0.00  0.00    +0.018 C 
ATOM     21  C   UNL     1      34.573 -16.411 -21.873  0.00  0.00    +0.079 C 
ATOM     22  C   UNL     1      34.538 -15.669 -23.054  0.00  0.00    +0.045 C 
ATOM     23  C   UNL     1      34.230 -15.811 -20.662  0.00  0.00    +0.008 C 
BRANCH  21  25
ATOM     24  O   UNL     1      34.670 -18.618 -22.793  0.00  0.00    -0.245 OA
ATOM     25  C   UNL     1      34.968 -17.810 -21.907  0.00  0.00    +0.338 C 
BRANCH  25  26
ATOM     26  O   UNL     1      35.726 -18.163 -20.831  0.00  0.00    -0.477 OA
ATOM     27  H   UNL     1      35.381 -18.073 -19.965  0.00  0.00    +0.295 HD
ENDBRANCH  25  26
ENDBRANCH  21  25
BRANCH  19  28
ATOM     28  O   UNL     1      34.131 -13.618 -24.187  0.00  0.00    -0.403 OA
BRANCH  28  32
ATOM     29  F   UNL     1      31.846 -13.599 -24.269  0.00  0.00    -0.133 F 
ATOM     30  F   UNL     1      32.958 -14.933 -25.594  0.00  0.00    -0.133 F 
ATOM     31  F   UNL     1      32.982 -12.782 -25.979  0.00  0.00    -0.133 F 
ATOM     32  C   UNL     1      32.971 -13.717 -25.005  0.00  0.00    +0.575 C 
ENDBRANCH  28  32
ENDBRANCH  19  28
ENDBRANCH   3  18
TORSDOF 6
ENDMDL
