MODEL 1
REMARK VINA RESULT:     -11.5      0.000      0.000
REMARK  Name = 23586178
REMARK  5 active torsions:
REMARK  status: ('A' for Active; 'I' for Inactive)
REMARK    1  A    between atoms: N_3  and  C_17
REMARK    2  A    between atoms: C_7  and  C_12
REMARK    3  A    between atoms: C_11  and  C_15
REMARK    4  A    between atoms: C_17  and  C_19
REMARK    5  A    between atoms: C_17  and  C_29
REMARK                            x       y       z     vdW  Elec       q    Type
REMARK                         _______ _______ _______ _____ _____    ______ ____
ROOT
ATOM      1  S   UNL     1      36.067 -21.010 -17.955  0.00  0.00    -0.026 S 
ATOM      2  O   UNL     1      32.638 -22.614 -18.334  0.00  0.00    -0.209 OA
ATOM      3  N   UNL     1      36.607 -22.612 -15.920  0.00  0.00    -0.289 N 
ATOM      4  N   UNL     1      34.503 -22.828 -16.972  0.00  0.00    -0.310 NA
ATOM      5  C   UNL     1      35.677 -22.296 -16.825  0.00  0.00    +0.226 C 
ATOM      6  C   UNL     1      34.530 -21.200 -18.690  0.00  0.00    +0.131 C 
ATOM      7  C   UNL     1      34.062 -20.499 -19.722  0.00  0.00    +0.057 C 
ATOM      8  C   UNL     1      33.769 -22.277 -18.007  0.00  0.00    +0.213 C 
ATOM      9  H   UNL     1      37.460 -22.120 -15.924  0.00  0.00    +0.151 HD
ENDROOT
BRANCH   7  12
ATOM     10  O   UNL     1      34.158 -18.365 -20.913  0.00  0.00    -0.458 OA
ATOM     11  C   UNL     1      35.126 -17.591 -21.469  0.00  0.00    +0.123 C 
ATOM     12  C   UNL     1      34.782 -19.455 -20.395  0.00  0.00    +0.146 C 
ATOM     13  C   UNL     1      36.362 -18.175 -21.312  0.00  0.00    +0.036 C 
ATOM     14  C   UNL     1      36.138 -19.386 -20.613  0.00  0.00    +0.040 C 
BRANCH  11  15
ATOM     15  C   UNL     1      34.677 -16.341 -22.101  0.00  0.00    +0.065 C 
ATOM     16  C   UNL     1      34.188 -15.299 -21.085  0.00  0.00    +0.008 C 
ENDBRANCH  11  15
ENDBRANCH   7  12
BRANCH   3  17
ATOM     17  C   UNL     1      36.403 -23.664 -14.924  0.00  0.00    +0.184 C 
BRANCH  17  19
ATOM     18  F   UNL     1      41.074 -26.622 -13.913  0.00  0.00    -0.204 F 
ATOM     19  C   UNL     1      37.643 -24.449 -14.657  0.00  0.00    +0.010 C 
ATOM     20  C   UNL     1      38.893 -23.894 -14.930  0.00  0.00    +0.001 C 
ATOM     21  C   UNL     1      37.551 -25.739 -14.131  0.00  0.00    +0.001 C 
ATOM     22  C   UNL     1      40.052 -24.628 -14.679  0.00  0.00    +0.029 C 
ATOM     23  C   UNL     1      38.711 -26.473 -13.881  0.00  0.00    +0.029 C 
ATOM     24  C   UNL     1      39.961 -25.918 -14.154  0.00  0.00    +0.140 C 
ENDBRANCH  17  19
BRANCH  17  29
ATOM     25  N   UNL     1      34.606 -23.308 -13.208  0.00  0.00    -0.112 NA
ATOM     26  N   UNL     1      36.692 -22.654 -12.616  0.00  0.00    -0.089 NA
ATOM     27  N   UNL     1      34.686 -22.784 -11.976  0.00  0.00    -0.140 N 
ATOM     28  N   UNL     1      35.903 -22.383 -11.583  0.00  0.00    -0.022 NA
ATOM     29  C   UNL     1      35.888 -23.206 -13.569  0.00  0.00    +0.072 C 
ATOM     30  H   UNL     1      33.896 -22.698 -11.395  0.00  0.00    +0.197 HD
ENDBRANCH  17  29
ENDBRANCH   3  17
TORSDOF 5
ENDMDL
MODEL 2
REMARK VINA RESULT:     -11.4      0.369      1.256
REMARK  Name = 23586178
REMARK  5 active torsions:
REMARK  status: ('A' for Active; 'I' for Inactive)
REMARK    1  A    between atoms: N_3  and  C_17
REMARK    2  A    between atoms: C_7  and  C_12
REMARK    3  A    between atoms: C_11  and  C_15
REMARK    4  A    between atoms: C_17  and  C_19
REMARK    5  A    between atoms: C_17  and  C_29
REMARK                            x       y       z     vdW  Elec       q    Type
REMARK                         _______ _______ _______ _____ _____    ______ ____
ROOT
ATOM      1  S   UNL     1      35.957 -21.027 -17.936  0.00  0.00    -0.026 S 
ATOM      2  O   UNL     1      32.611 -22.747 -18.500  0.00  0.00    -0.209 OA
ATOM      3  N   UNL     1      36.474 -22.662 -15.921  0.00  0.00    -0.289 N 
ATOM      4  N   UNL     1      34.425 -22.928 -17.066  0.00  0.00    -0.310 NA
ATOM      5  C   UNL     1      35.570 -22.356 -16.856  0.00  0.00    +0.226 C 
ATOM      6  C   UNL     1      34.461 -21.255 -18.740  0.00  0.00    +0.131 C 
ATOM      7  C   UNL     1      34.009 -20.545 -19.773  0.00  0.00    +0.057 C 
ATOM      8  C   UNL     1      33.713 -22.378 -18.117  0.00  0.00    +0.213 C 
ATOM      9  H   UNL     1      37.306 -22.138 -15.876  0.00  0.00    +0.151 HD
ENDROOT
BRANCH   7  12
ATOM     10  O   UNL     1      34.107 -18.283 -20.698  0.00  0.00    -0.458 OA
ATOM     11  C   UNL     1      35.056 -17.489 -21.259  0.00  0.00    +0.123 C 
ATOM     12  C   UNL     1      34.715 -19.458 -20.389  0.00  0.00    +0.146 C 
ATOM     13  C   UNL     1      36.264 -18.143 -21.310  0.00  0.00    +0.036 C 
ATOM     14  C   UNL     1      36.044 -19.422 -20.744  0.00  0.00    +0.040 C 
BRANCH  11  15
ATOM     15  C   UNL     1      34.618 -16.150 -21.680  0.00  0.00    +0.065 C 
ATOM     16  C   UNL     1      34.511 -16.006 -23.205  0.00  0.00    +0.008 C 
ENDBRANCH  11  15
ENDBRANCH   7  12
BRANCH   3  17
ATOM     17  C   UNL     1      36.269 -23.747 -14.960  0.00  0.00    +0.184 C 
BRANCH  17  19
ATOM     18  F   UNL     1      41.045 -26.409 -13.659  0.00  0.00    -0.204 F 
ATOM     19  C   UNL     1      37.536 -24.453 -14.614  0.00  0.00    +0.010 C 
ATOM     20  C   UNL     1      37.496 -25.647 -13.893  0.00  0.00    +0.001 C 
ATOM     21  C   UNL     1      38.762 -23.920 -15.013  0.00  0.00    +0.001 C 
ATOM     22  C   UNL     1      38.681 -26.307 -13.571  0.00  0.00    +0.029 C 
ATOM     23  C   UNL     1      39.948 -24.580 -14.690  0.00  0.00    +0.029 C 
ATOM     24  C   UNL     1      39.907 -25.775 -13.969  0.00  0.00    +0.140 C 
ENDBRANCH  17  19
BRANCH  17  29
ATOM     25  N   UNL     1      36.248 -22.612 -12.722  0.00  0.00    -0.112 NA
ATOM     26  N   UNL     1      34.360 -23.725 -13.292  0.00  0.00    -0.089 NA
ATOM     27  N   UNL     1      35.282 -22.559 -11.794  0.00  0.00    -0.140 N 
ATOM     28  N   UNL     1      34.144 -23.204 -12.090  0.00  0.00    -0.022 NA
ATOM     29  C   UNL     1      35.625 -23.354 -13.641  0.00  0.00    +0.072 C 
ATOM     30  H   UNL     1      35.400 -22.074 -10.945  0.00  0.00    +0.197 HD
ENDBRANCH  17  29
ENDBRANCH   3  17
TORSDOF 5
ENDMDL
MODEL 3
REMARK VINA RESULT:     -10.5      7.713     10.687
REMARK  Name = 23586178
REMARK  5 active torsions:
REMARK  status: ('A' for Active; 'I' for Inactive)
REMARK    1  A    between atoms: N_3  and  C_17
REMARK    2  A    between atoms: C_7  and  C_12
REMARK    3  A    between atoms: C_11  and  C_15
REMARK    4  A    between atoms: C_17  and  C_19
REMARK    5  A    between atoms: C_17  and  C_29
REMARK                            x       y       z     vdW  Elec       q    Type
REMARK                         _______ _______ _______ _____ _____    ______ ____
ROOT
ATOM      1  S   UNL     1      33.038 -13.134 -21.299  0.00  0.00    -0.026 S 
ATOM      2  O   UNL     1      32.712 -12.502 -25.036  0.00  0.00    -0.209 OA
ATOM      3  N   UNL     1      34.137 -15.493 -21.780  0.00  0.00    -0.289 N 
ATOM      4  N   UNL     1      33.503 -14.168 -23.630  0.00  0.00    -0.310 NA
ATOM      5  C   UNL     1      33.624 -14.405 -22.361  0.00  0.00    +0.226 C 
ATOM      6  C   UNL     1      32.594 -12.205 -22.669  0.00  0.00    +0.131 C 
ATOM      7  C   UNL     1      32.029 -10.998 -22.649  0.00  0.00    +0.057 C 
ATOM      8  C   UNL     1      32.928 -12.942 -23.915  0.00  0.00    +0.213 C 
ATOM      9  H   UNL     1      34.165 -15.538 -20.797  0.00  0.00    +0.151 HD
ENDROOT
BRANCH   7  12
ATOM     10  O   UNL     1      31.859  -8.925 -21.364  0.00  0.00    -0.458 OA
ATOM     11  C   UNL     1      31.453  -8.570 -20.117  0.00  0.00    +0.123 C 
ATOM     12  C   UNL     1      31.698 -10.271 -21.457  0.00  0.00    +0.146 C 
ATOM     13  C   UNL     1      31.035  -9.675 -19.412  0.00  0.00    +0.036 C 
ATOM     14  C   UNL     1      31.193 -10.780 -20.284  0.00  0.00    +0.040 C 
BRANCH  11  15
ATOM     15  C   UNL     1      31.541  -7.141 -19.786  0.00  0.00    +0.065 C 
ATOM     16  C   UNL     1      32.574  -6.390 -20.638  0.00  0.00    +0.008 C 
ENDBRANCH  11  15
ENDBRANCH   7  12
BRANCH   3  17
ATOM     17  C   UNL     1      34.658 -16.620 -22.554  0.00  0.00    +0.184 C 
BRANCH  17  19
ATOM     18  F   UNL     1      35.945 -21.039 -19.328  0.00  0.00    -0.204 F 
ATOM     19  C   UNL     1      35.000 -17.794 -21.699  0.00  0.00    +0.010 C 
ATOM     20  C   UNL     1      36.334 -18.080 -21.408  0.00  0.00    +0.001 C 
ATOM     21  C   UNL     1      33.985 -18.603 -21.188  0.00  0.00    +0.001 C 
ATOM     22  C   UNL     1      36.653 -19.176 -20.607  0.00  0.00    +0.029 C 
ATOM     23  C   UNL     1      34.305 -19.700 -20.387  0.00  0.00    +0.029 C 
ATOM     24  C   UNL     1      35.639 -19.986 -20.097  0.00  0.00    +0.140 C 
ENDBRANCH  17  19
BRANCH  17  29
ATOM     25  N   UNL     1      33.190 -18.356 -23.619  0.00  0.00    -0.112 NA
ATOM     26  N   UNL     1      33.440 -16.421 -24.768  0.00  0.00    -0.089 NA
ATOM     27  N   UNL     1      32.519 -18.319 -24.779  0.00  0.00    -0.140 N 
ATOM     28  N   UNL     1      32.638 -17.191 -25.494  0.00  0.00    -0.022 NA
ATOM     29  C   UNL     1      33.752 -17.144 -23.656  0.00  0.00    +0.072 C 
ATOM     30  H   UNL     1      31.972 -19.077 -25.088  0.00  0.00    +0.197 HD
ENDBRANCH  17  29
ENDBRANCH   3  17
TORSDOF 5
ENDMDL
MODEL 4
REMARK VINA RESULT:      -9.7      3.771      4.954
REMARK  Name = 23586178
REMARK  5 active torsions:
REMARK  status: ('A' for Active; 'I' for Inactive)
REMARK    1  A    between atoms: N_3  and  C_17
REMARK    2  A    between atoms: C_7  and  C_12
REMARK    3  A    between atoms: C_11  and  C_15
REMARK    4  A    between atoms: C_17  and  C_19
REMARK    5  A    between atoms: C_17  and  C_29
REMARK                            x       y       z     vdW  Elec       q    Type
REMARK                         _______ _______ _______ _____ _____    ______ ____
ROOT
ATOM      1  S   UNL     1      32.878 -20.289 -19.591  0.00  0.00    -0.026 S 
ATOM      2  O   UNL     1      36.186 -21.899 -18.625  0.00  0.00    -0.209 OA
ATOM      3  N   UNL     1      31.585 -21.951 -17.988  0.00  0.00    -0.289 N 
ATOM      4  N   UNL     1      33.936 -22.145 -18.123  0.00  0.00    -0.310 NA
ATOM      5  C   UNL     1      32.796 -21.610 -18.437  0.00  0.00    +0.226 C 
ATOM      6  C   UNL     1      34.582 -20.463 -19.658  0.00  0.00    +0.131 C 
ATOM      7  C   UNL     1      35.416 -19.732 -20.397  0.00  0.00    +0.057 C 
ATOM      8  C   UNL     1      35.017 -21.565 -18.762  0.00  0.00    +0.213 C 
ATOM      9  H   UNL     1      30.801 -21.456 -18.317  0.00  0.00    +0.151 HD
ENDROOT
BRANCH   7  12
ATOM     10  O   UNL     1      34.868 -17.387 -20.827  0.00  0.00    -0.458 OA
ATOM     11  C   UNL     1      34.485 -16.647 -21.899  0.00  0.00    +0.123 C 
ATOM     12  C   UNL     1      35.015 -18.665 -21.268  0.00  0.00    +0.146 C 
ATOM     13  C   UNL     1      34.386 -17.436 -23.021  0.00  0.00    +0.036 C 
ATOM     14  C   UNL     1      34.731 -18.747 -22.611  0.00  0.00    +0.040 C 
BRANCH  11  15
ATOM     15  C   UNL     1      34.263 -15.215 -21.654  0.00  0.00    +0.065 C 
ATOM     16  C   UNL     1      33.937 -14.431 -22.933  0.00  0.00    +0.008 C 
ENDBRANCH  11  15
ENDBRANCH   7  12
BRANCH   3  17
ATOM     17  C   UNL     1      31.385 -23.035 -17.026  0.00  0.00    +0.184 C 
BRANCH  17  19
ATOM     18  F   UNL     1      35.133 -22.935 -12.839  0.00  0.00    -0.204 F 
ATOM     19  C   UNL     1      32.379 -23.008 -15.915  0.00  0.00    +0.010 C 
ATOM     20  C   UNL     1      32.116 -22.271 -14.760  0.00  0.00    +0.001 C 
ATOM     21  C   UNL     1      33.573 -23.720 -16.031  0.00  0.00    +0.001 C 
ATOM     22  C   UNL     1      33.046 -22.247 -13.721  0.00  0.00    +0.029 C 
ATOM     23  C   UNL     1      34.503 -23.695 -14.992  0.00  0.00    +0.029 C 
ATOM     24  C   UNL     1      34.240 -22.959 -13.836  0.00  0.00    +0.140 C 
ENDBRANCH  17  19
BRANCH  17  29
ATOM     25  N   UNL     1      29.641 -24.093 -15.564  0.00  0.00    -0.112 NA
ATOM     26  N   UNL     1      29.060 -22.141 -16.554  0.00  0.00    -0.089 NA
ATOM     27  N   UNL     1      28.400 -23.680 -15.270  0.00  0.00    -0.140 N 
ATOM     28  N   UNL     1      28.012 -22.527 -15.835  0.00  0.00    -0.022 NA
ATOM     29  C   UNL     1      30.015 -23.097 -16.371  0.00  0.00    +0.072 C 
ATOM     30  H   UNL     1      27.806 -24.194 -14.675  0.00  0.00    +0.197 HD
ENDBRANCH  17  29
ENDBRANCH   3  17
TORSDOF 5
ENDMDL
MODEL 5
REMARK VINA RESULT:      -9.5      7.132      9.762
REMARK  Name = 23586178
REMARK  5 active torsions:
REMARK  status: ('A' for Active; 'I' for Inactive)
REMARK    1  A    between atoms: N_3  and  C_17
REMARK    2  A    between atoms: C_7  and  C_12
REMARK    3  A    between atoms: C_11  and  C_15
REMARK    4  A    between atoms: C_17  and  C_19
REMARK    5  A    between atoms: C_17  and  C_29
REMARK                            x       y       z     vdW  Elec       q    Type
REMARK                         _______ _______ _______ _____ _____    ______ ____
ROOT
ATOM      1  S   UNL     1      33.532 -14.156 -22.162  0.00  0.00    -0.026 S 
ATOM      2  O   UNL     1      33.262 -14.547 -25.936  0.00  0.00    -0.209 OA
ATOM      3  N   UNL     1      34.474 -16.620 -21.960  0.00  0.00    -0.289 N 
ATOM      4  N   UNL     1      33.936 -15.813 -24.114  0.00  0.00    -0.310 NA
ATOM      5  C   UNL     1      34.037 -15.702 -22.825  0.00  0.00    +0.226 C 
ATOM      6  C   UNL     1      33.155 -13.610 -23.742  0.00  0.00    +0.131 C 
ATOM      7  C   UNL     1      32.672 -12.410 -24.063  0.00  0.00    +0.057 C 
ATOM      8  C   UNL     1      33.445 -14.678 -24.733  0.00  0.00    +0.213 C 
ATOM      9  H   UNL     1      34.496 -16.397 -21.002  0.00  0.00    +0.151 HD
ENDROOT
BRANCH   7  12
ATOM     10  O   UNL     1      31.883 -11.624 -21.886  0.00  0.00    -0.458 OA
ATOM     11  C   UNL     1      31.736 -10.425 -21.266  0.00  0.00    +0.123 C 
ATOM     12  C   UNL     1      32.386 -11.366 -23.121  0.00  0.00    +0.146 C 
ATOM     13  C   UNL     1      32.140  -9.402 -22.092  0.00  0.00    +0.036 C 
ATOM     14  C   UNL     1      32.564 -10.013 -23.297  0.00  0.00    +0.040 C 
BRANCH  11  15
ATOM     15  C   UNL     1      31.197 -10.460 -19.899  0.00  0.00    +0.065 C 
ATOM     16  C   UNL     1      31.205  -9.086 -19.215  0.00  0.00    +0.008 C 
ENDBRANCH  11  15
ENDBRANCH   7  12
BRANCH   3  17
ATOM     17  C   UNL     1      34.922 -17.947 -22.387  0.00  0.00    +0.184 C 
BRANCH  17  19
ATOM     18  F   UNL     1      35.020 -21.653 -18.164  0.00  0.00    -0.204 F 
ATOM     19  C   UNL     1      34.948 -18.931 -21.267  0.00  0.00    +0.010 C 
ATOM     20  C   UNL     1      36.155 -19.241 -20.638  0.00  0.00    +0.001 C 
ATOM     21  C   UNL     1      33.766 -19.540 -20.847  0.00  0.00    +0.001 C 
ATOM     22  C   UNL     1      36.178 -20.160 -19.590  0.00  0.00    +0.029 C 
ATOM     23  C   UNL     1      33.790 -20.461 -19.799  0.00  0.00    +0.029 C 
ATOM     24  C   UNL     1      34.996 -20.770 -19.170  0.00  0.00    +0.140 C 
ENDBRANCH  17  19
BRANCH  17  29
ATOM     25  N   UNL     1      34.590 -19.591 -24.254  0.00  0.00    -0.112 NA
ATOM     26  N   UNL     1      32.852 -18.202 -23.828  0.00  0.00    -0.089 NA
ATOM     27  N   UNL     1      33.530 -19.782 -25.052  0.00  0.00    -0.140 N 
ATOM     28  N   UNL     1      32.476 -18.981 -24.836  0.00  0.00    -0.022 NA
ATOM     29  C   UNL     1      34.118 -18.591 -23.504  0.00  0.00    +0.072 C 
ATOM     30  H   UNL     1      33.525 -20.469 -25.757  0.00  0.00    +0.197 HD
ENDBRANCH  17  29
ENDBRANCH   3  17
TORSDOF 5
ENDMDL
MODEL 6
REMARK VINA RESULT:      -9.3      3.070      4.331
REMARK  Name = 23586178
REMARK  5 active torsions:
REMARK  status: ('A' for Active; 'I' for Inactive)
REMARK    1  A    between atoms: N_3  and  C_17
REMARK    2  A    between atoms: C_7  and  C_12
REMARK    3  A    between atoms: C_11  and  C_15
REMARK    4  A    between atoms: C_17  and  C_19
REMARK    5  A    between atoms: C_17  and  C_29
REMARK                            x       y       z     vdW  Elec       q    Type
REMARK                         _______ _______ _______ _____ _____    ______ ____
ROOT
ATOM      1  S   UNL     1      35.636 -20.771 -17.665  0.00  0.00    -0.026 S 
ATOM      2  O   UNL     1      33.049 -23.207 -19.025  0.00  0.00    -0.209 OA
ATOM      3  N   UNL     1      35.755 -22.139 -15.403  0.00  0.00    -0.289 N 
ATOM      4  N   UNL     1      34.287 -22.908 -17.087  0.00  0.00    -0.310 NA
ATOM      5  C   UNL     1      35.171 -22.090 -16.603  0.00  0.00    +0.226 C 
ATOM      6  C   UNL     1      34.560 -21.364 -18.860  0.00  0.00    +0.131 C 
ATOM      7  C   UNL     1      34.349 -20.827 -20.062  0.00  0.00    +0.057 C 
ATOM      8  C   UNL     1      33.873 -22.585 -18.367  0.00  0.00    +0.213 C 
ATOM      9  H   UNL     1      36.412 -21.445 -15.167  0.00  0.00    +0.151 HD
ENDROOT
BRANCH   7  12
ATOM     10  O   UNL     1      34.324 -18.497 -20.804  0.00  0.00    -0.458 OA
ATOM     11  C   UNL     1      35.237 -17.598 -21.254  0.00  0.00    +0.123 C 
ATOM     12  C   UNL     1      35.002 -19.649 -20.556  0.00  0.00    +0.146 C 
ATOM     13  C   UNL     1      36.491 -18.162 -21.297  0.00  0.00    +0.036 C 
ATOM     14  C   UNL     1      36.338 -19.494 -20.843  0.00  0.00    +0.040 C 
BRANCH  11  15
ATOM     15  C   UNL     1      34.723 -16.263 -21.592  0.00  0.00    +0.065 C 
ATOM     16  C   UNL     1      34.363 -16.116 -23.077  0.00  0.00    +0.008 C 
ENDBRANCH  11  15
ENDBRANCH   7  12
BRANCH   3  17
ATOM     17  C   UNL     1      35.452 -23.187 -14.428  0.00  0.00    +0.184 C 
BRANCH  17  19
ATOM     18  F   UNL     1      29.946 -23.662 -13.407  0.00  0.00    -0.204 F 
ATOM     19  C   UNL     1      33.991 -23.314 -14.158  0.00  0.00    +0.010 C 
ATOM     20  C   UNL     1      33.517 -24.356 -13.360  0.00  0.00    +0.001 C 
ATOM     21  C   UNL     1      33.099 -22.390 -14.702  0.00  0.00    +0.001 C 
ATOM     22  C   UNL     1      32.150 -24.473 -13.107  0.00  0.00    +0.029 C 
ATOM     23  C   UNL     1      31.733 -22.508 -14.448  0.00  0.00    +0.029 C 
ATOM     24  C   UNL     1      31.258 -23.549 -13.650  0.00  0.00    +0.140 C 
ENDBRANCH  17  19
BRANCH  17  29
ATOM     25  N   UNL     1      37.178 -25.008 -14.493  0.00  0.00    -0.112 NA
ATOM     26  N   UNL     1      35.168 -25.509 -15.407  0.00  0.00    -0.089 NA
ATOM     27  N   UNL     1      37.098 -26.251 -14.990  0.00  0.00    -0.140 N 
ATOM     28  N   UNL     1      35.925 -26.591 -15.542  0.00  0.00    -0.022 NA
ATOM     29  C   UNL     1      35.945 -24.582 -14.777  0.00  0.00    +0.072 C 
ATOM     30  H   UNL     1      37.857 -26.877 -14.953  0.00  0.00    +0.197 HD
ENDBRANCH  17  29
ENDBRANCH   3  17
TORSDOF 5
ENDMDL
MODEL 7
REMARK VINA RESULT:      -9.3      4.606      8.116
REMARK  Name = 23586178
REMARK  5 active torsions:
REMARK  status: ('A' for Active; 'I' for Inactive)
REMARK    1  A    between atoms: N_3  and  C_17
REMARK    2  A    between atoms: C_7  and  C_12
REMARK    3  A    between atoms: C_11  and  C_15
REMARK    4  A    between atoms: C_17  and  C_19
REMARK    5  A    between atoms: C_17  and  C_29
REMARK                            x       y       z     vdW  Elec       q    Type
REMARK                         _______ _______ _______ _____ _____    ______ ____
ROOT
ATOM      1  S   UNL     1      31.988 -22.708 -16.911  0.00  0.00    -0.026 S 
ATOM      2  O   UNL     1      34.536 -23.408 -14.175  0.00  0.00    -0.209 OA
ATOM      3  N   UNL     1      33.911 -21.816 -18.494  0.00  0.00    -0.289 N 
ATOM      4  N   UNL     1      34.512 -22.570 -16.337  0.00  0.00    -0.310 NA
ATOM      5  C   UNL     1      33.660 -22.324 -17.285  0.00  0.00    +0.226 C 
ATOM      6  C   UNL     1      32.467 -23.247 -15.356  0.00  0.00    +0.131 C 
ATOM      7  C   UNL     1      31.661 -23.730 -14.411  0.00  0.00    +0.057 C 
ATOM      8  C   UNL     1      33.936 -23.098 -15.196  0.00  0.00    +0.213 C 
ATOM      9  H   UNL     1      33.161 -21.680 -19.117  0.00  0.00    +0.151 HD
ENDROOT
BRANCH   7  12
ATOM     10  O   UNL     1      29.441 -22.862 -14.958  0.00  0.00    -0.458 OA
ATOM     11  C   UNL     1      28.172 -23.345 -14.975  0.00  0.00    +0.123 C 
ATOM     12  C   UNL     1      30.241 -23.881 -14.546  0.00  0.00    +0.146 C 
ATOM     13  C   UNL     1      28.151 -24.662 -14.578  0.00  0.00    +0.036 C 
ATOM     14  C   UNL     1      29.495 -25.010 -14.301  0.00  0.00    +0.040 C 
BRANCH  11  15
ATOM     15  C   UNL     1      27.123 -22.404 -15.393  0.00  0.00    +0.065 C 
ATOM     16  C   UNL     1      27.104 -22.162 -16.909  0.00  0.00    +0.008 C 
ENDBRANCH  11  15
ENDBRANCH   7  12
BRANCH   3  17
ATOM     17  C   UNL     1      35.262 -21.454 -18.925  0.00  0.00    +0.184 C 
BRANCH  17  19
ATOM     18  F   UNL     1      35.295 -17.152 -22.542  0.00  0.00    -0.204 F 
ATOM     19  C   UNL     1      35.271 -20.312 -19.884  0.00  0.00    +0.010 C 
ATOM     20  C   UNL     1      36.469 -19.664 -20.187  0.00  0.00    +0.001 C 
ATOM     21  C   UNL     1      34.081 -19.893 -20.480  0.00  0.00    +0.001 C 
ATOM     22  C   UNL     1      36.477 -18.597 -21.085  0.00  0.00    +0.029 C 
ATOM     23  C   UNL     1      34.090 -18.825 -21.378  0.00  0.00    +0.029 C 
ATOM     24  C   UNL     1      35.288 -18.177 -21.681  0.00  0.00    +0.140 C 
ENDBRANCH  17  19
BRANCH  17  29
ATOM     25  N   UNL     1      36.544 -19.828 -17.508  0.00  0.00    -0.112 NA
ATOM     26  N   UNL     1      36.876 -22.022 -17.054  0.00  0.00    -0.089 NA
ATOM     27  N   UNL     1      37.408 -20.054 -16.508  0.00  0.00    -0.140 N 
ATOM     28  N   UNL     1      37.635 -21.340 -16.204  0.00  0.00    -0.022 NA
ATOM     29  C   UNL     1      36.238 -21.090 -17.818  0.00  0.00    +0.072 C 
ATOM     30  H   UNL     1      37.851 -19.320 -16.025  0.00  0.00    +0.197 HD
ENDBRANCH  17  29
ENDBRANCH   3  17
TORSDOF 5
ENDMDL
MODEL 8
REMARK VINA RESULT:      -9.1      2.049      2.613
REMARK  Name = 23586178
REMARK  5 active torsions:
REMARK  status: ('A' for Active; 'I' for Inactive)
REMARK    1  A    between atoms: N_3  and  C_17
REMARK    2  A    between atoms: C_7  and  C_12
REMARK    3  A    between atoms: C_11  and  C_15
REMARK    4  A    between atoms: C_17  and  C_19
REMARK    5  A    between atoms: C_17  and  C_29
REMARK                            x       y       z     vdW  Elec       q    Type
REMARK                         _______ _______ _______ _____ _____    ______ ____
ROOT
ATOM      1  S   UNL     1      34.555 -21.767 -18.101  0.00  0.00    -0.026 S 
ATOM      2  O   UNL     1      30.756 -21.784 -17.908  0.00  0.00    -0.209 OA
ATOM      3  N   UNL     1      34.680 -23.430 -16.046  0.00  0.00    -0.289 N 
ATOM      4  N   UNL     1      32.544 -22.750 -16.793  0.00  0.00    -0.310 NA
ATOM      5  C   UNL     1      33.841 -22.760 -16.840  0.00  0.00    +0.226 C 
ATOM      6  C   UNL     1      32.987 -21.300 -18.611  0.00  0.00    +0.131 C 
ATOM      7  C   UNL     1      32.703 -20.476 -19.619  0.00  0.00    +0.057 C 
ATOM      8  C   UNL     1      31.959 -21.951 -17.758  0.00  0.00    +0.213 C 
ATOM      9  H   UNL     1      35.649 -23.342 -16.198  0.00  0.00    +0.151 HD
ENDROOT
BRANCH   7  12
ATOM     10  O   UNL     1      33.332 -19.062 -21.512  0.00  0.00    -0.458 OA
ATOM     11  C   UNL     1      34.490 -18.623 -22.071  0.00  0.00    +0.123 C 
ATOM     12  C   UNL     1      33.681 -19.838 -20.453  0.00  0.00    +0.146 C 
ATOM     13  C   UNL     1      35.575 -19.110 -21.380  0.00  0.00    +0.036 C 
ATOM     14  C   UNL     1      35.049 -19.899 -20.328  0.00  0.00    +0.040 C 
BRANCH  11  15
ATOM     15  C   UNL     1      34.355 -17.756 -23.251  0.00  0.00    +0.065 C 
ATOM     16  C   UNL     1      34.470 -16.263 -22.913  0.00  0.00    +0.008 C 
ENDBRANCH  11  15
ENDBRANCH   7  12
BRANCH   3  17
ATOM     17  C   UNL     1      34.210 -24.290 -14.959  0.00  0.00    +0.184 C 
BRANCH  17  19
ATOM     18  F   UNL     1      38.348 -25.854 -11.493  0.00  0.00    -0.204 F 
ATOM     19  C   UNL     1      35.309 -24.704 -14.040  0.00  0.00    +0.010 C 
ATOM     20  C   UNL     1      35.309 -24.270 -12.713  0.00  0.00    +0.001 C 
ATOM     21  C   UNL     1      36.334 -25.527 -14.505  0.00  0.00    +0.001 C 
ATOM     22  C   UNL     1      36.336 -24.659 -11.853  0.00  0.00    +0.029 C 
ATOM     23  C   UNL     1      37.361 -25.915 -13.645  0.00  0.00    +0.029 C 
ATOM     24  C   UNL     1      37.362 -25.481 -12.318  0.00  0.00    +0.140 C 
ENDBRANCH  17  19
BRANCH  17  29
ATOM     25  N   UNL     1      33.099 -22.436 -13.684  0.00  0.00    -0.112 NA
ATOM     26  N   UNL     1      32.057 -24.445 -13.631  0.00  0.00    -0.089 NA
ATOM     27  N   UNL     1      31.968 -22.445 -12.965  0.00  0.00    -0.140 N 
ATOM     28  N   UNL     1      31.316 -23.615 -12.905  0.00  0.00    -0.022 NA
ATOM     29  C   UNL     1      33.113 -23.711 -14.081  0.00  0.00    +0.072 C 
ATOM     30  H   UNL     1      31.635 -21.640 -12.506  0.00  0.00    +0.197 HD
ENDBRANCH  17  29
ENDBRANCH   3  17
TORSDOF 5
ENDMDL
MODEL 9
REMARK VINA RESULT:      -9.0      2.965      4.253
REMARK  Name = 23586178
REMARK  5 active torsions:
REMARK  status: ('A' for Active; 'I' for Inactive)
REMARK    1  A    between atoms: N_3  and  C_17
REMARK    2  A    between atoms: C_7  and  C_12
REMARK    3  A    between atoms: C_11  and  C_15
REMARK    4  A    between atoms: C_17  and  C_19
REMARK    5  A    between atoms: C_17  and  C_29
REMARK                            x       y       z     vdW  Elec       q    Type
REMARK                         _______ _______ _______ _____ _____    ______ ____
ROOT
ATOM      1  S   UNL     1      35.816 -22.017 -16.570  0.00  0.00    -0.026 S 
ATOM      2  O   UNL     1      33.372 -24.341 -14.808  0.00  0.00    -0.209 OA
ATOM      3  N   UNL     1      37.712 -22.685 -14.850  0.00  0.00    -0.289 N 
ATOM      4  N   UNL     1      35.586 -23.683 -14.597  0.00  0.00    -0.310 NA
ATOM      5  C   UNL     1      36.436 -22.897 -15.182  0.00  0.00    +0.226 C 
ATOM      6  C   UNL     1      34.289 -22.765 -16.351  0.00  0.00    +0.131 C 
ATOM      7  C   UNL     1      33.205 -22.569 -17.101  0.00  0.00    +0.057 C 
ATOM      8  C   UNL     1      34.333 -23.683 -15.184  0.00  0.00    +0.213 C 
ATOM      9  H   UNL     1      38.244 -22.055 -15.387  0.00  0.00    +0.151 HD
ENDROOT
BRANCH   7  12
ATOM     10  O   UNL     1      34.259 -21.255 -18.874  0.00  0.00    -0.458 OA
ATOM     11  C   UNL     1      33.839 -20.447 -19.883  0.00  0.00    +0.123 C 
ATOM     12  C   UNL     1      33.142 -21.687 -18.232  0.00  0.00    +0.146 C 
ATOM     13  C   UNL     1      32.467 -20.359 -19.892  0.00  0.00    +0.036 C 
ATOM     14  C   UNL     1      32.014 -21.165 -18.820  0.00  0.00    +0.040 C 
BRANCH  11  15
ATOM     15  C   UNL     1      34.891 -19.855 -20.723  0.00  0.00    +0.065 C 
ATOM     16  C   UNL     1      34.334 -18.959 -21.837  0.00  0.00    +0.008 C 
ENDBRANCH  11  15
ENDBRANCH   7  12
BRANCH   3  17
ATOM     17  C   UNL     1      38.347 -23.356 -13.715  0.00  0.00    +0.184 C 
BRANCH  17  19
ATOM     18  F   UNL     1      34.780 -24.234  -9.461  0.00  0.00    -0.204 F 
ATOM     19  C   UNL     1      37.401 -23.589 -12.585  0.00  0.00    +0.010 C 
ATOM     20  C   UNL     1      36.913 -22.509 -11.849  0.00  0.00    +0.001 C 
ATOM     21  C   UNL     1      37.003 -24.887 -12.266  0.00  0.00    +0.001 C 
ATOM     22  C   UNL     1      36.028 -22.727 -10.794  0.00  0.00    +0.029 C 
ATOM     23  C   UNL     1      36.118 -25.105 -11.210  0.00  0.00    +0.029 C 
ATOM     24  C   UNL     1      35.630 -24.025 -10.474  0.00  0.00    +0.140 C 
ENDBRANCH  17  19
BRANCH  17  29
ATOM     25  N   UNL     1      40.297 -24.930 -13.838  0.00  0.00    -0.112 NA
ATOM     26  N   UNL     1      38.296 -25.772 -14.483  0.00  0.00    -0.089 NA
ATOM     27  N   UNL     1      40.345 -26.211 -14.231  0.00  0.00    -0.140 N 
ATOM     28  N   UNL     1      39.182 -26.752 -14.622  0.00  0.00    -0.022 NA
ATOM     29  C   UNL     1      38.994 -24.698 -14.014  0.00  0.00    +0.072 C 
ATOM     30  H   UNL     1      41.184 -26.725 -14.233  0.00  0.00    +0.197 HD
ENDBRANCH  17  29
ENDBRANCH   3  17
TORSDOF 5
ENDMDL
