MODEL 1
REMARK VINA RESULT:     -12.6      0.000      0.000
REMARK  Name = 11961293
REMARK  7 active torsions:
REMARK  status: ('A' for Active; 'I' for Inactive)
REMARK    1  A    between atoms: C_1  and  C_3
REMARK    2  A    between atoms: C_1  and  N_21
REMARK    3  A    between atoms: N_2  and  C_9
REMARK    4  A    between atoms: C_9  and  C_12
REMARK    5  A    between atoms: C_17  and  O_18
REMARK    6  A    between atoms: C_22  and  C_26
REMARK    7  A    between atoms: C_30  and  C_35
REMARK                            x       y       z     vdW  Elec       q    Type
REMARK                         _______ _______ _______ _____ _____    ______ ____
ROOT
ATOM      1  C   UNL     1      33.115 -14.391 -24.257  0.00  0.00    +0.089 C 
ENDROOT
BRANCH   1   3
ATOM      2  N   UNL     1      34.552 -17.609 -21.759  0.00  0.00    +0.387 N 
ATOM      3  C   UNL     1      34.083 -15.348 -23.565  0.00  0.00    +0.015 C 
ATOM      4  C   UNL     1      34.709 -17.773 -23.210  0.00  0.00    -0.077 C 
ATOM      5  C   UNL     1      34.886 -16.241 -21.341  0.00  0.00    -0.077 C 
ATOM      6  C   UNL     1      33.810 -16.799 -23.975  0.00  0.00    -0.021 C 
ATOM      7  C   UNL     1      33.992 -15.216 -22.042  0.00  0.00    -0.021 C 
ATOM      8  H   UNL     1      33.573 -17.779 -21.527  0.00  0.00    -0.080 HD
BRANCH   2   9
ATOM      9  C   UNL     1      35.379 -18.580 -21.042  0.00  0.00    -0.077 C 
BRANCH   9  12
ATOM     10  O   UNL     1      31.443 -21.929 -17.559  0.00  0.00    -0.226 OA
ATOM     11  N   UNL     1      33.187 -21.719 -19.081  0.00  0.00    -0.246 N 
ATOM     12  C   UNL     1      34.611 -19.879 -20.806  0.00  0.00    -0.017 C 
ATOM     13  C   UNL     1      33.184 -19.590 -20.317  0.00  0.00    +0.020 C 
ATOM     14  C   UNL     1      35.348 -20.771 -19.794  0.00  0.00    +0.020 C 
ATOM     15  C   UNL     1      32.431 -20.882 -20.011  0.00  0.00    +0.097 C 
ATOM     16  C   UNL     1      34.556 -22.044 -19.497  0.00  0.00    +0.097 C 
ATOM     17  C   UNL     1      32.590 -22.197 -17.912  0.00  0.00    +0.405 C 
BRANCH  17  18
ATOM     18  O   UNL     1      33.423 -23.009 -17.187  0.00  0.00    -0.430 OA
ATOM     19  C   UNL     1      33.410 -22.821 -15.767  0.00  0.00    +0.257 C 
ENDBRANCH  17  18
ENDBRANCH   9  12
ENDBRANCH   2   9
ENDBRANCH   1   3
BRANCH   1  21
ATOM     20  O   UNL     1      33.464 -11.542 -24.206  0.00  0.00    -0.270 OA
ATOM     21  N   UNL     1      32.531 -13.462 -23.302  0.00  0.00    -0.301 N 
ATOM     22  C   UNL     1      32.763 -12.102 -23.366  0.00  0.00    +0.247 C 
ATOM     23  H   UNL     1      31.951 -13.813 -22.588  0.00  0.00    +0.150 HD
BRANCH  22  26
ATOM     24  N   UNL     1      31.001  -7.873 -21.988  0.00  0.00    -0.318 N 
ATOM     25  N   UNL     1      31.974  -9.101 -23.564  0.00  0.00    -0.318 N 
ATOM     26  C   UNL     1      32.116 -11.291 -22.304  0.00  0.00    +0.068 C 
ATOM     27  C   UNL     1      31.801  -9.945 -22.498  0.00  0.00    +0.063 C 
ATOM     28  C   UNL     1      31.788 -11.841 -21.060  0.00  0.00    +0.006 C 
ATOM     29  C   UNL     1      31.191  -9.156 -21.527  0.00  0.00    +0.059 C 
ATOM     30  C   UNL     1      31.481  -7.876 -23.212  0.00  0.00    +0.144 C 
ATOM     31  C   UNL     1      31.176 -11.074 -20.066  0.00  0.00    +0.001 C 
ATOM     32  C   UNL     1      30.870  -9.724 -20.283  0.00  0.00    +0.016 C 
ATOM     33  H   UNL     1      30.593  -7.118 -21.507  0.00  0.00    +0.148 HD
ATOM     34  H   UNL     1      32.381  -9.337 -24.430  0.00  0.00    +0.148 HD
BRANCH  30  35
ATOM     35  C   UNL     1      31.466  -6.676 -24.067  0.00  0.00    +0.037 C 
ATOM     36  C   UNL     1      30.853  -6.929 -25.466  0.00  0.00    +0.003 C 
ATOM     37  C   UNL     1      30.756  -5.466 -23.411  0.00  0.00    +0.003 C 
ENDBRANCH  30  35
ENDBRANCH  22  26
ENDBRANCH   1  21
TORSDOF 7
ENDMDL
MODEL 2
REMARK VINA RESULT:     -12.5      2.564     12.473
REMARK  Name = 11961293
REMARK  7 active torsions:
REMARK  status: ('A' for Active; 'I' for Inactive)
REMARK    1  A    between atoms: C_1  and  C_3
REMARK    2  A    between atoms: C_1  and  N_21
REMARK    3  A    between atoms: N_2  and  C_9
REMARK    4  A    between atoms: C_9  and  C_12
REMARK    5  A    between atoms: C_17  and  O_18
REMARK    6  A    between atoms: C_22  and  C_26
REMARK    7  A    between atoms: C_30  and  C_35
REMARK                            x       y       z     vdW  Elec       q    Type
REMARK                         _______ _______ _______ _____ _____    ______ ____
ROOT
ATOM      1  C   UNL     1      36.122 -20.928 -19.137  0.00  0.00    +0.089 C 
ENDROOT
BRANCH   1   3
ATOM      2  N   UNL     1      34.674 -17.766 -21.700  0.00  0.00    +0.387 N 
ATOM      3  C   UNL     1      35.685 -20.193 -20.401  0.00  0.00    +0.015 C 
ATOM      4  C   UNL     1      36.076 -18.169 -21.868  0.00  0.00    -0.077 C 
ATOM      5  C   UNL     1      33.803 -18.937 -21.529  0.00  0.00    -0.077 C 
ATOM      6  C   UNL     1      36.570 -18.968 -20.660  0.00  0.00    -0.021 C 
ATOM      7  C   UNL     1      34.219 -19.761 -20.308  0.00  0.00    -0.021 C 
ATOM      8  H   UNL     1      34.608 -17.200 -20.854  0.00  0.00    -0.080 HD
BRANCH   2   9
ATOM      9  C   UNL     1      34.232 -16.961 -22.838  0.00  0.00    -0.077 C 
BRANCH   9  12
ATOM     10  O   UNL     1      31.811 -11.855 -20.213  0.00  0.00    -0.226 OA
ATOM     11  N   UNL     1      33.145 -12.937 -21.779  0.00  0.00    -0.246 N 
ATOM     12  C   UNL     1      34.334 -15.471 -22.523  0.00  0.00    -0.017 C 
ATOM     13  C   UNL     1      33.877 -15.183 -21.085  0.00  0.00    +0.020 C 
ATOM     14  C   UNL     1      33.504 -14.645 -23.519  0.00  0.00    +0.020 C 
ATOM     15  C   UNL     1      33.909 -13.688 -20.783  0.00  0.00    +0.097 C 
ATOM     16  C   UNL     1      33.543 -13.157 -23.173  0.00  0.00    +0.097 C 
ATOM     17  C   UNL     1      32.147 -12.043 -21.381  0.00  0.00    +0.405 C 
BRANCH  17  18
ATOM     18  O   UNL     1      31.574 -11.387 -22.438  0.00  0.00    -0.430 OA
ATOM     19  C   UNL     1      31.615  -9.955 -22.389  0.00  0.00    +0.257 C 
ENDBRANCH  17  18
ENDBRANCH   9  12
ENDBRANCH   2   9
ENDBRANCH   1   3
BRANCH   1  21
ATOM     20  O   UNL     1      36.165 -22.269 -16.600  0.00  0.00    -0.270 OA
ATOM     21  N   UNL     1      34.969 -21.392 -18.381  0.00  0.00    -0.301 N 
ATOM     22  C   UNL     1      35.100 -22.029 -17.163  0.00  0.00    +0.247 C 
ATOM     23  H   UNL     1      34.068 -21.247 -18.749  0.00  0.00    +0.150 HD
BRANCH  22  26
ATOM     24  N   UNL     1      32.901 -23.962 -13.379  0.00  0.00    -0.318 N 
ATOM     25  N   UNL     1      34.792 -23.309 -14.346  0.00  0.00    -0.318 N 
ATOM     26  C   UNL     1      33.829 -22.465 -16.529  0.00  0.00    +0.068 C 
ATOM     27  C   UNL     1      33.802 -23.030 -15.252  0.00  0.00    +0.063 C 
ATOM     28  C   UNL     1      32.600 -22.327 -17.182  0.00  0.00    +0.006 C 
ATOM     29  C   UNL     1      32.631 -23.446 -14.626  0.00  0.00    +0.059 C 
ATOM     30  C   UNL     1      34.204 -23.864 -13.244  0.00  0.00    +0.144 C 
ATOM     31  C   UNL     1      31.408 -22.735 -16.578  0.00  0.00    +0.001 C 
ATOM     32  C   UNL     1      31.405 -23.299 -15.297  0.00  0.00    +0.016 C 
ATOM     33  H   UNL     1      32.257 -24.325 -12.729  0.00  0.00    +0.148 HD
ATOM     34  H   UNL     1      35.755 -23.139 -14.467  0.00  0.00    +0.148 HD
BRANCH  30  35
ATOM     35  C   UNL     1      34.906 -24.313 -12.028  0.00  0.00    +0.037 C 
ATOM     36  C   UNL     1      36.214 -25.086 -12.327  0.00  0.00    +0.003 C 
ATOM     37  C   UNL     1      35.211 -23.162 -11.038  0.00  0.00    +0.003 C 
ENDBRANCH  30  35
ENDBRANCH  22  26
ENDBRANCH   1  21
TORSDOF 7
ENDMDL
MODEL 3
REMARK VINA RESULT:     -12.2      2.658     11.660
REMARK  Name = 11961293
REMARK  7 active torsions:
REMARK  status: ('A' for Active; 'I' for Inactive)
REMARK    1  A    between atoms: C_1  and  C_3
REMARK    2  A    between atoms: C_1  and  N_21
REMARK    3  A    between atoms: N_2  and  C_9
REMARK    4  A    between atoms: C_9  and  C_12
REMARK    5  A    between atoms: C_17  and  O_18
REMARK    6  A    between atoms: C_22  and  C_26
REMARK    7  A    between atoms: C_30  and  C_35
REMARK                            x       y       z     vdW  Elec       q    Type
REMARK                         _______ _______ _______ _____ _____    ______ ____
ROOT
ATOM      1  C   UNL     1      34.364 -20.531 -21.269  0.00  0.00    +0.089 C 
ENDROOT
BRANCH   1   3
ATOM      2  N   UNL     1      34.926 -16.497 -22.707  0.00  0.00    +0.387 N 
ATOM      3  C   UNL     1      34.081 -19.060 -21.562  0.00  0.00    +0.015 C 
ATOM      4  C   UNL     1      33.890 -17.300 -23.369  0.00  0.00    -0.077 C 
ATOM      5  C   UNL     1      34.894 -16.686 -21.251  0.00  0.00    -0.077 C 
ATOM      6  C   UNL     1      34.073 -18.790 -23.070  0.00  0.00    -0.021 C 
ATOM      7  C   UNL     1      35.112 -18.155 -20.880  0.00  0.00    -0.021 C 
ATOM      8  H   UNL     1      35.834 -16.814 -23.046  0.00  0.00    -0.080 HD
BRANCH   2   9
ATOM      9  C   UNL     1      34.768 -15.082 -23.043  0.00  0.00    -0.077 C 
BRANCH   9  12
ATOM     10  O   UNL     1      31.112 -10.211 -21.724  0.00  0.00    -0.226 OA
ATOM     11  N   UNL     1      31.834 -12.397 -21.405  0.00  0.00    -0.246 N 
ATOM     12  C   UNL     1      33.449 -14.537 -22.502  0.00  0.00    -0.017 C 
ATOM     13  C   UNL     1      32.933 -13.383 -23.375  0.00  0.00    +0.020 C 
ATOM     14  C   UNL     1      33.608 -14.070 -21.046  0.00  0.00    +0.020 C 
ATOM     15  C   UNL     1      31.651 -12.786 -22.803  0.00  0.00    +0.097 C 
ATOM     16  C   UNL     1      32.312 -13.460 -20.514  0.00  0.00    +0.097 C 
ATOM     17  C   UNL     1      31.515 -11.104 -20.981  0.00  0.00    +0.405 C 
BRANCH  17  18
ATOM     18  O   UNL     1      31.695 -10.931 -19.634  0.00  0.00    -0.430 OA
ATOM     19  C   UNL     1      31.260  -9.676 -19.095  0.00  0.00    +0.257 C 
ENDBRANCH  17  18
ENDBRANCH   9  12
ENDBRANCH   2   9
ENDBRANCH   1   3
BRANCH   1  21
ATOM     20  O   UNL     1      33.696 -22.661 -19.465  0.00  0.00    -0.270 OA
ATOM     21  N   UNL     1      34.856 -20.706 -19.911  0.00  0.00    -0.301 N 
ATOM     22  C   UNL     1      34.471 -21.771 -19.123  0.00  0.00    +0.247 C 
ATOM     23  H   UNL     1      35.485 -20.043 -19.543  0.00  0.00    +0.150 HD
BRANCH  22  26
ATOM     24  N   UNL     1      33.858 -22.755 -14.481  0.00  0.00    -0.318 N 
ATOM     25  N   UNL     1      33.019 -22.710 -16.539  0.00  0.00    -0.318 N 
ATOM     26  C   UNL     1      35.042 -21.794 -17.752  0.00  0.00    +0.068 C 
ATOM     27  C   UNL     1      34.300 -22.238 -16.655  0.00  0.00    +0.063 C 
ATOM     28  C   UNL     1      36.351 -21.373 -17.498  0.00  0.00    +0.006 C 
ATOM     29  C   UNL     1      34.804 -22.276 -15.358  0.00  0.00    +0.059 C 
ATOM     30  C   UNL     1      32.801 -23.005 -15.222  0.00  0.00    +0.144 C 
ATOM     31  C   UNL     1      36.884 -21.400 -16.206  0.00  0.00    +0.001 C 
ATOM     32  C   UNL     1      36.121 -21.849 -15.121  0.00  0.00    +0.016 C 
ATOM     33  H   UNL     1      33.952 -22.883 -13.510  0.00  0.00    +0.148 HD
ATOM     34  H   UNL     1      32.371 -22.817 -17.273  0.00  0.00    +0.148 HD
BRANCH  30  35
ATOM     35  C   UNL     1      31.551 -23.542 -14.655  0.00  0.00    +0.037 C 
ATOM     36  C   UNL     1      31.770 -24.369 -13.365  0.00  0.00    +0.003 C 
ATOM     37  C   UNL     1      30.484 -22.452 -14.386  0.00  0.00    +0.003 C 
ENDBRANCH  30  35
ENDBRANCH  22  26
ENDBRANCH   1  21
TORSDOF 7
ENDMDL
MODEL 4
REMARK VINA RESULT:     -12.2      2.687      5.720
REMARK  Name = 11961293
REMARK  7 active torsions:
REMARK  status: ('A' for Active; 'I' for Inactive)
REMARK    1  A    between atoms: C_1  and  C_3
REMARK    2  A    between atoms: C_1  and  N_21
REMARK    3  A    between atoms: N_2  and  C_9
REMARK    4  A    between atoms: C_9  and  C_12
REMARK    5  A    between atoms: C_17  and  O_18
REMARK    6  A    between atoms: C_22  and  C_26
REMARK    7  A    between atoms: C_30  and  C_35
REMARK                            x       y       z     vdW  Elec       q    Type
REMARK                         _______ _______ _______ _____ _____    ______ ____
ROOT
ATOM      1  C   UNL     1      36.243 -18.570 -20.830  0.00  0.00    +0.089 C 
ENDROOT
BRANCH   1   3
ATOM      2  N   UNL     1      33.636 -21.257 -18.675  0.00  0.00    +0.387 N 
ATOM      3  C   UNL     1      35.441 -19.822 -20.487  0.00  0.00    +0.015 C 
ATOM      4  C   UNL     1      33.142 -20.736 -19.956  0.00  0.00    -0.077 C 
ATOM      5  C   UNL     1      35.053 -21.635 -18.767  0.00  0.00    -0.077 C 
ATOM      6  C   UNL     1      33.943 -19.509 -20.398  0.00  0.00    -0.021 C 
ATOM      7  C   UNL     1      35.918 -20.438 -19.168  0.00  0.00    -0.021 C 
ATOM      8  H   UNL     1      33.553 -20.515 -17.980  0.00  0.00    -0.080 HD
BRANCH   2   9
ATOM      9  C   UNL     1      32.829 -22.397 -18.241  0.00  0.00    -0.077 C 
BRANCH   9  12
ATOM     10  O   UNL     1      31.554 -24.982 -12.716  0.00  0.00    -0.226 OA
ATOM     11  N   UNL     1      31.334 -23.306 -14.311  0.00  0.00    -0.246 N 
ATOM     12  C   UNL     1      32.405 -22.240 -16.782  0.00  0.00    -0.017 C 
ATOM     13  C   UNL     1      33.235 -23.156 -15.870  0.00  0.00    +0.020 C 
ATOM     14  C   UNL     1      30.907 -22.540 -16.615  0.00  0.00    +0.020 C 
ATOM     15  C   UNL     1      32.771 -23.058 -14.419  0.00  0.00    +0.097 C 
ATOM     16  C   UNL     1      30.485 -22.453 -15.149  0.00  0.00    +0.097 C 
ATOM     17  C   UNL     1      30.845 -24.266 -13.421  0.00  0.00    +0.405 C 
BRANCH  17  18
ATOM     18  O   UNL     1      29.477 -24.327 -13.410  0.00  0.00    -0.430 OA
ATOM     19  C   UNL     1      28.881 -25.298 -14.279  0.00  0.00    +0.257 C 
ENDBRANCH  17  18
ENDBRANCH   9  12
ENDBRANCH   2   9
ENDBRANCH   1   3
BRANCH   1  21
ATOM     20  O   UNL     1      34.671 -16.187 -20.525  0.00  0.00    -0.270 OA
ATOM     21  N   UNL     1      35.598 -17.814 -21.892  0.00  0.00    -0.301 N 
ATOM     22  C   UNL     1      34.860 -16.674 -21.637  0.00  0.00    +0.247 C 
ATOM     23  H   UNL     1      35.690 -18.124 -22.822  0.00  0.00    +0.150 HD
BRANCH  22  26
ATOM     24  N   UNL     1      32.578 -12.899 -23.488  0.00  0.00    -0.318 N 
ATOM     25  N   UNL     1      33.501 -13.879 -21.720  0.00  0.00    -0.318 N 
ATOM     26  C   UNL     1      34.244 -16.031 -22.825  0.00  0.00    +0.068 C 
ATOM     27  C   UNL     1      33.658 -14.766 -22.753  0.00  0.00    +0.063 C 
ATOM     28  C   UNL     1      34.225 -16.664 -24.072  0.00  0.00    +0.006 C 
ATOM     29  C   UNL     1      33.075 -14.131 -23.846  0.00  0.00    +0.059 C 
ATOM     30  C   UNL     1      32.851 -12.781 -22.207  0.00  0.00    +0.144 C 
ATOM     31  C   UNL     1      33.646 -16.051 -25.187  0.00  0.00    +0.001 C 
ATOM     32  C   UNL     1      33.064 -14.781 -25.092  0.00  0.00    +0.016 C 
ATOM     33  H   UNL     1      32.119 -12.247 -24.065  0.00  0.00    +0.148 HD
ATOM     34  H   UNL     1      33.803 -14.011 -20.791  0.00  0.00    +0.148 HD
BRANCH  30  35
ATOM     35  C   UNL     1      32.481 -11.584 -21.430  0.00  0.00    +0.037 C 
ATOM     36  C   UNL     1      31.683 -10.543 -22.254  0.00  0.00    +0.003 C 
ATOM     37  C   UNL     1      31.701 -11.913 -20.134  0.00  0.00    +0.003 C 
ENDBRANCH  30  35
ENDBRANCH  22  26
ENDBRANCH   1  21
TORSDOF 7
ENDMDL
MODEL 5
REMARK VINA RESULT:     -12.1      4.075      7.927
REMARK  Name = 11961293
REMARK  7 active torsions:
REMARK  status: ('A' for Active; 'I' for Inactive)
REMARK    1  A    between atoms: C_1  and  C_3
REMARK    2  A    between atoms: C_1  and  N_21
REMARK    3  A    between atoms: N_2  and  C_9
REMARK    4  A    between atoms: C_9  and  C_12
REMARK    5  A    between atoms: C_17  and  O_18
REMARK    6  A    between atoms: C_22  and  C_26
REMARK    7  A    between atoms: C_30  and  C_35
REMARK                            x       y       z     vdW  Elec       q    Type
REMARK                         _______ _______ _______ _____ _____    ______ ____
ROOT
ATOM      1  C   UNL     1      36.259 -20.674 -19.494  0.00  0.00    +0.089 C 
ENDROOT
BRANCH   1   3
ATOM      2  N   UNL     1      34.145 -22.819 -16.398  0.00  0.00    +0.387 N 
ATOM      3  C   UNL     1      35.292 -20.953 -18.348  0.00  0.00    +0.015 C 
ATOM      4  C   UNL     1      35.076 -21.770 -15.963  0.00  0.00    -0.077 C 
ATOM      5  C   UNL     1      33.360 -22.383 -17.561  0.00  0.00    -0.077 C 
ATOM      6  C   UNL     1      36.044 -21.391 -17.086  0.00  0.00    -0.021 C 
ATOM      7  C   UNL     1      34.270 -22.026 -18.739  0.00  0.00    -0.021 C 
ATOM      8  H   UNL     1      34.695 -23.632 -16.677  0.00  0.00    -0.080 HD
BRANCH   2   9
ATOM      9  C   UNL     1      33.260 -23.206 -15.299  0.00  0.00    -0.077 C 
BRANCH   9  12
ATOM     10  O   UNL     1      37.757 -24.356 -11.142  0.00  0.00    -0.226 OA
ATOM     11  N   UNL     1      36.248 -25.009 -12.785  0.00  0.00    -0.246 N 
ATOM     12  C   UNL     1      33.959 -24.182 -14.355  0.00  0.00    -0.017 C 
ATOM     13  C   UNL     1      34.322 -23.495 -13.030  0.00  0.00    +0.020 C 
ATOM     14  C   UNL     1      35.220 -24.767 -15.012  0.00  0.00    +0.020 C 
ATOM     15  C   UNL     1      35.084 -24.441 -12.107  0.00  0.00    +0.097 C 
ATOM     16  C   UNL     1      35.966 -25.692 -14.052  0.00  0.00    +0.097 C 
ATOM     17  C   UNL     1      37.517 -24.927 -12.204  0.00  0.00    +0.405 C 
BRANCH  17  18
ATOM     18  O   UNL     1      38.479 -25.558 -12.948  0.00  0.00    -0.430 OA
ATOM     19  C   UNL     1      39.398 -24.706 -13.645  0.00  0.00    +0.257 C 
ENDBRANCH  17  18
ENDBRANCH   9  12
ENDBRANCH   2   9
ENDBRANCH   1   3
BRANCH   1  21
ATOM     20  O   UNL     1      36.442 -18.006 -20.539  0.00  0.00    -0.270 OA
ATOM     21  N   UNL     1      35.555 -20.144 -20.652  0.00  0.00    -0.301 N 
ATOM     22  C   UNL     1      35.714 -18.839 -21.074  0.00  0.00    +0.247 C 
ATOM     23  H   UNL     1      34.946 -20.736 -21.151  0.00  0.00    +0.150 HD
BRANCH  22  26
ATOM     24  N   UNL     1      33.458 -15.375 -23.481  0.00  0.00    -0.318 N 
ATOM     25  N   UNL     1      34.664 -15.984 -21.716  0.00  0.00    -0.318 N 
ATOM     26  C   UNL     1      34.906 -18.445 -22.256  0.00  0.00    +0.068 C 
ATOM     27  C   UNL     1      34.485 -17.128 -22.450  0.00  0.00    +0.063 C 
ATOM     28  C   UNL     1      34.532 -19.376 -23.230  0.00  0.00    +0.006 C 
ATOM     29  C   UNL     1      33.730 -16.722 -23.547  0.00  0.00    +0.059 C 
ATOM     30  C   UNL     1      34.032 -14.965 -22.372  0.00  0.00    +0.144 C 
ATOM     31  C   UNL     1      33.775 -18.998 -24.342  0.00  0.00    +0.001 C 
ATOM     32  C   UNL     1      33.363 -17.671 -24.516  0.00  0.00    +0.016 C 
ATOM     33  H   UNL     1      32.945 -14.835 -24.125  0.00  0.00    +0.148 HD
ATOM     34  H   UNL     1      35.159 -15.911 -20.868  0.00  0.00    +0.148 HD
BRANCH  30  35
ATOM     35  C   UNL     1      33.977 -13.560 -21.929  0.00  0.00    +0.037 C 
ATOM     36  C   UNL     1      33.607 -12.575 -23.065  0.00  0.00    +0.003 C 
ATOM     37  C   UNL     1      33.025 -13.334 -20.729  0.00  0.00    +0.003 C 
ENDBRANCH  30  35
ENDBRANCH  22  26
ENDBRANCH   1  21
TORSDOF 7
ENDMDL
MODEL 6
REMARK VINA RESULT:     -12.0      2.669     12.816
REMARK  Name = 11961293
REMARK  7 active torsions:
REMARK  status: ('A' for Active; 'I' for Inactive)
REMARK    1  A    between atoms: C_1  and  C_3
REMARK    2  A    between atoms: C_1  and  N_21
REMARK    3  A    between atoms: N_2  and  C_9
REMARK    4  A    between atoms: C_9  and  C_12
REMARK    5  A    between atoms: C_17  and  O_18
REMARK    6  A    between atoms: C_22  and  C_26
REMARK    7  A    between atoms: C_30  and  C_35
REMARK                            x       y       z     vdW  Elec       q    Type
REMARK                         _______ _______ _______ _____ _____    ______ ____
ROOT
ATOM      1  C   UNL     1      33.826 -22.249 -19.360  0.00  0.00    +0.089 C 
ENDROOT
BRANCH   1   3
ATOM      2  N   UNL     1      35.183 -18.642 -21.312  0.00  0.00    +0.387 N 
ATOM      3  C   UNL     1      34.212 -20.787 -19.563  0.00  0.00    +0.015 C 
ATOM      4  C   UNL     1      33.772 -18.689 -20.907  0.00  0.00    -0.077 C 
ATOM      5  C   UNL     1      36.052 -19.203 -20.269  0.00  0.00    -0.077 C 
ATOM      6  C   UNL     1      33.326 -20.126 -20.625  0.00  0.00    -0.021 C 
ATOM      7  C   UNL     1      35.685 -20.657 -19.966  0.00  0.00    -0.021 C 
ATOM      8  H   UNL     1      35.289 -19.214 -22.150  0.00  0.00    -0.080 HD
BRANCH   2   9
ATOM      9  C   UNL     1      35.580 -17.270 -21.627  0.00  0.00    -0.077 C 
BRANCH   9  12
ATOM     10  O   UNL     1      33.210 -12.494 -24.852  0.00  0.00    -0.226 OA
ATOM     11  N   UNL     1      33.191 -14.005 -23.086  0.00  0.00    -0.246 N 
ATOM     12  C   UNL     1      34.371 -16.435 -22.041  0.00  0.00    -0.017 C 
ATOM     13  C   UNL     1      34.436 -16.082 -23.534  0.00  0.00    +0.020 C 
ATOM     14  C   UNL     1      34.278 -15.154 -21.196  0.00  0.00    +0.020 C 
ATOM     15  C   UNL     1      33.268 -15.188 -23.942  0.00  0.00    +0.097 C 
ATOM     16  C   UNL     1      33.112 -14.276 -21.646  0.00  0.00    +0.097 C 
ATOM     17  C   UNL     1      33.146 -12.726 -23.646  0.00  0.00    +0.405 C 
BRANCH  17  18
ATOM     18  O   UNL     1      33.018 -11.740 -22.703  0.00  0.00    -0.430 OA
ATOM     19  C   UNL     1      32.366 -10.538 -23.129  0.00  0.00    +0.257 C 
ENDBRANCH  17  18
ENDBRANCH   9  12
ENDBRANCH   2   9
ENDBRANCH   1   3
BRANCH   1  21
ATOM     20  O   UNL     1      35.227 -22.473 -16.864  0.00  0.00    -0.270 OA
ATOM     21  N   UNL     1      33.234 -22.453 -18.047  0.00  0.00    -0.301 N 
ATOM     22  C   UNL     1      34.002 -22.547 -16.903  0.00  0.00    +0.247 C 
ATOM     23  H   UNL     1      32.255 -22.526 -17.971  0.00  0.00    +0.150 HD
BRANCH  22  26
ATOM     24  N   UNL     1      34.012 -24.182 -12.407  0.00  0.00    -0.318 N 
ATOM     25  N   UNL     1      35.120 -23.829 -14.300  0.00  0.00    -0.318 N 
ATOM     26  C   UNL     1      33.249 -22.781 -15.644  0.00  0.00    +0.068 C 
ATOM     27  C   UNL     1      33.850 -23.366 -14.528  0.00  0.00    +0.063 C 
ATOM     28  C   UNL     1      31.903 -22.424 -15.519  0.00  0.00    +0.006 C 
ATOM     29  C   UNL     1      33.178 -23.597 -13.331  0.00  0.00    +0.059 C 
ATOM     30  C   UNL     1      35.168 -24.307 -13.021  0.00  0.00    +0.144 C 
ATOM     31  C   UNL     1      31.202 -22.643 -14.331  0.00  0.00    +0.001 C 
ATOM     32  C   UNL     1      31.825 -23.232 -13.223  0.00  0.00    +0.016 C 
ATOM     33  H   UNL     1      33.792 -24.450 -11.486  0.00  0.00    +0.148 HD
ATOM     34  H   UNL     1      35.866 -23.819 -14.945  0.00  0.00    +0.148 HD
BRANCH  30  35
ATOM     35  C   UNL     1      36.349 -24.897 -12.365  0.00  0.00    +0.037 C 
ATOM     36  C   UNL     1      37.017 -26.015 -13.202  0.00  0.00    +0.003 C 
ATOM     37  C   UNL     1      37.417 -23.848 -11.971  0.00  0.00    +0.003 C 
ENDBRANCH  30  35
ENDBRANCH  22  26
ENDBRANCH   1  21
TORSDOF 7
ENDMDL
MODEL 7
REMARK VINA RESULT:     -11.9      3.630      6.942
REMARK  Name = 11961293
REMARK  7 active torsions:
REMARK  status: ('A' for Active; 'I' for Inactive)
REMARK    1  A    between atoms: C_1  and  C_3
REMARK    2  A    between atoms: C_1  and  N_21
REMARK    3  A    between atoms: N_2  and  C_9
REMARK    4  A    between atoms: C_9  and  C_12
REMARK    5  A    between atoms: C_17  and  O_18
REMARK    6  A    between atoms: C_22  and  C_26
REMARK    7  A    between atoms: C_30  and  C_35
REMARK                            x       y       z     vdW  Elec       q    Type
REMARK                         _______ _______ _______ _____ _____    ______ ____
ROOT
ATOM      1  C   UNL     1      36.517 -19.570 -19.749  0.00  0.00    +0.089 C 
ENDROOT
BRANCH   1   3
ATOM      2  N   UNL     1      34.222 -22.108 -17.114  0.00  0.00    +0.387 N 
ATOM      3  C   UNL     1      35.963 -20.835 -19.100  0.00  0.00    +0.015 C 
ATOM      4  C   UNL     1      33.866 -22.134 -18.539  0.00  0.00    -0.077 C 
ATOM      5  C   UNL     1      35.679 -22.104 -16.932  0.00  0.00    -0.077 C 
ATOM      6  C   UNL     1      34.442 -20.921 -19.273  0.00  0.00    -0.021 C 
ATOM      7  C   UNL     1      36.317 -20.889 -17.610  0.00  0.00    -0.021 C 
ATOM      8  H   UNL     1      33.852 -21.247 -16.713  0.00  0.00    -0.080 HD
BRANCH   2   9
ATOM      9  C   UNL     1      33.622 -23.245 -16.416  0.00  0.00    -0.077 C 
BRANCH   9  12
ATOM     10  O   UNL     1      27.922 -24.714 -14.371  0.00  0.00    -0.226 OA
ATOM     11  N   UNL     1      29.519 -23.204 -15.127  0.00  0.00    -0.246 N 
ATOM     12  C   UNL     1      32.331 -22.833 -15.713  0.00  0.00    -0.017 C 
ATOM     13  C   UNL     1      31.840 -23.945 -14.773  0.00  0.00    +0.020 C 
ATOM     14  C   UNL     1      31.239 -22.485 -16.738  0.00  0.00    +0.020 C 
ATOM     15  C   UNL     1      30.513 -23.571 -14.120  0.00  0.00    +0.097 C 
ATOM     16  C   UNL     1      29.922 -22.136 -16.048  0.00  0.00    +0.097 C 
ATOM     17  C   UNL     1      28.264 -23.820 -15.142  0.00  0.00    +0.405 C 
BRANCH  17  18
ATOM     18  O   UNL     1      27.441 -23.317 -16.115  0.00  0.00    -0.430 OA
ATOM     19  C   UNL     1      26.730 -22.118 -15.783  0.00  0.00    +0.257 C 
ENDBRANCH  17  18
ENDBRANCH   9  12
ENDBRANCH   2   9
ENDBRANCH   1   3
BRANCH   1  21
ATOM     20  O   UNL     1      35.349 -17.034 -20.415  0.00  0.00    -0.270 OA
ATOM     21  N   UNL     1      35.783 -19.244 -20.962  0.00  0.00    -0.301 N 
ATOM     22  C   UNL     1      35.259 -17.986 -21.186  0.00  0.00    +0.247 C 
ATOM     23  H   UNL     1      35.656 -19.942 -21.646  0.00  0.00    +0.150 HD
BRANCH  22  26
ATOM     24  N   UNL     1      33.146 -15.035 -24.303  0.00  0.00    -0.318 N 
ATOM     25  N   UNL     1      34.256 -15.303 -22.396  0.00  0.00    -0.318 N 
ATOM     26  C   UNL     1      34.515 -17.820 -22.461  0.00  0.00    +0.068 C 
ATOM     27  C   UNL     1      34.110 -16.563 -22.915  0.00  0.00    +0.063 C 
ATOM     28  C   UNL     1      34.187 -18.916 -23.265  0.00  0.00    +0.006 C 
ATOM     29  C   UNL     1      33.414 -16.370 -24.106  0.00  0.00    +0.059 C 
ATOM     30  C   UNL     1      33.664 -14.425 -23.260  0.00  0.00    +0.144 C 
ATOM     31  C   UNL     1      33.490 -18.753 -24.465  0.00  0.00    +0.001 C 
ATOM     32  C   UNL     1      33.094 -17.482 -24.901  0.00  0.00    +0.016 C 
ATOM     33  H   UNL     1      32.669 -14.625 -25.060  0.00  0.00    +0.148 HD
ATOM     34  H   UNL     1      34.707 -15.072 -21.552  0.00  0.00    +0.148 HD
BRANCH  30  35
ATOM     35  C   UNL     1      33.592 -12.963 -23.086  0.00  0.00    +0.037 C 
ATOM     36  C   UNL     1      33.031 -12.227 -24.327  0.00  0.00    +0.003 C 
ATOM     37  C   UNL     1      32.788 -12.534 -21.834  0.00  0.00    +0.003 C 
ENDBRANCH  30  35
ENDBRANCH  22  26
ENDBRANCH   1  21
TORSDOF 7
ENDMDL
MODEL 8
REMARK VINA RESULT:     -11.6      1.679      2.642
REMARK  Name = 11961293
REMARK  7 active torsions:
REMARK  status: ('A' for Active; 'I' for Inactive)
REMARK    1  A    between atoms: C_1  and  C_3
REMARK    2  A    between atoms: C_1  and  N_21
REMARK    3  A    between atoms: N_2  and  C_9
REMARK    4  A    between atoms: C_9  and  C_12
REMARK    5  A    between atoms: C_17  and  O_18
REMARK    6  A    between atoms: C_22  and  C_26
REMARK    7  A    between atoms: C_30  and  C_35
REMARK                            x       y       z     vdW  Elec       q    Type
REMARK                         _______ _______ _______ _____ _____    ______ ____
ROOT
ATOM      1  C   UNL     1      32.931 -12.391 -23.904  0.00  0.00    +0.089 C 
ENDROOT
BRANCH   1   3
ATOM      2  N   UNL     1      34.564 -16.387 -23.753  0.00  0.00    +0.387 N 
ATOM      3  C   UNL     1      33.022 -13.895 -23.661  0.00  0.00    +0.015 C 
ATOM      4  C   UNL     1      34.284 -15.734 -22.468  0.00  0.00    -0.077 C 
ATOM      5  C   UNL     1      33.482 -16.146 -24.716  0.00  0.00    -0.077 C 
ATOM      6  C   UNL     1      34.119 -14.222 -22.642  0.00  0.00    -0.021 C 
ATOM      7  C   UNL     1      33.290 -14.649 -24.968  0.00  0.00    -0.021 C 
ATOM      8  H   UNL     1      35.419 -15.982 -24.133  0.00  0.00    -0.080 HD
BRANCH   2   9
ATOM      9  C   UNL     1      34.770 -17.823 -23.563  0.00  0.00    -0.077 C 
BRANCH   9  12
ATOM     10  O   UNL     1      36.259 -21.652 -18.878  0.00  0.00    -0.226 OA
ATOM     11  N   UNL     1      34.866 -20.113 -19.924  0.00  0.00    -0.246 N 
ATOM     12  C   UNL     1      34.661 -18.198 -22.087  0.00  0.00    -0.017 C 
ATOM     13  C   UNL     1      36.021 -18.656 -21.538  0.00  0.00    +0.020 C 
ATOM     14  C   UNL     1      33.608 -19.299 -21.880  0.00  0.00    +0.020 C 
ATOM     15  C   UNL     1      35.908 -19.100 -20.082  0.00  0.00    +0.097 C 
ATOM     16  C   UNL     1      33.538 -19.731 -20.417  0.00  0.00    +0.097 C 
ATOM     17  C   UNL     1      35.148 -21.329 -19.294  0.00  0.00    +0.405 C 
BRANCH  17  18
ATOM     18  O   UNL     1      34.045 -22.134 -19.182  0.00  0.00    -0.430 OA
ATOM     19  C   UNL     1      33.549 -22.345 -17.855  0.00  0.00    +0.257 C 
ENDBRANCH  17  18
ENDBRANCH   9  12
ENDBRANCH   2   9
ENDBRANCH   1   3
BRANCH   1  21
ATOM     20  O   UNL     1      31.811  -9.755 -23.705  0.00  0.00    -0.270 OA
ATOM     21  N   UNL     1      32.580 -11.687 -22.681  0.00  0.00    -0.301 N 
ATOM     22  C   UNL     1      32.045 -10.414 -22.694  0.00  0.00    +0.247 C 
ATOM     23  H   UNL     1      32.730 -12.132 -21.815  0.00  0.00    +0.150 HD
BRANCH  22  26
ATOM     24  N   UNL     1      31.552  -6.479 -20.019  0.00  0.00    -0.318 N 
ATOM     25  N   UNL     1      31.972  -7.383 -22.005  0.00  0.00    -0.318 N 
ATOM     26  C   UNL     1      31.766  -9.822 -21.361  0.00  0.00    +0.068 C 
ATOM     27  C   UNL     1      31.756  -8.441 -21.160  0.00  0.00    +0.063 C 
ATOM     28  C   UNL     1      31.496 -10.623 -20.247  0.00  0.00    +0.006 C 
ATOM     29  C   UNL     1      31.495  -7.851 -19.926  0.00  0.00    +0.059 C 
ATOM     30  C   UNL     1      31.840  -6.234 -21.278  0.00  0.00    +0.144 C 
ATOM     31  C   UNL     1      31.231 -10.059 -18.996  0.00  0.00    +0.001 C 
ATOM     32  C   UNL     1      31.227  -8.670 -18.817  0.00  0.00    +0.016 C 
ATOM     33  H   UNL     1      31.408  -5.823 -19.299  0.00  0.00    +0.148 HD
ATOM     34  H   UNL     1      32.185  -7.442 -22.965  0.00  0.00    +0.148 HD
BRANCH  30  35
ATOM     35  C   UNL     1      31.991  -4.863 -21.799  0.00  0.00    +0.037 C 
ATOM     36  C   UNL     1      32.626  -4.812 -23.210  0.00  0.00    +0.003 C 
ATOM     37  C   UNL     1      30.665  -4.063 -21.808  0.00  0.00    +0.003 C 
ENDBRANCH  30  35
ENDBRANCH  22  26
ENDBRANCH   1  21
TORSDOF 7
ENDMDL
MODEL 9
REMARK VINA RESULT:     -11.6      2.389     12.082
REMARK  Name = 11961293
REMARK  7 active torsions:
REMARK  status: ('A' for Active; 'I' for Inactive)
REMARK    1  A    between atoms: C_1  and  C_3
REMARK    2  A    between atoms: C_1  and  N_21
REMARK    3  A    between atoms: N_2  and  C_9
REMARK    4  A    between atoms: C_9  and  C_12
REMARK    5  A    between atoms: C_17  and  O_18
REMARK    6  A    between atoms: C_22  and  C_26
REMARK    7  A    between atoms: C_30  and  C_35
REMARK                            x       y       z     vdW  Elec       q    Type
REMARK                         _______ _______ _______ _____ _____    ______ ____
ROOT
ATOM      1  C   UNL     1      35.435 -19.846 -20.651  0.00  0.00    +0.089 C 
ENDROOT
BRANCH   1   3
ATOM      2  N   UNL     1      34.512 -16.637 -23.391  0.00  0.00    +0.387 N 
ATOM      3  C   UNL     1      34.652 -18.740 -21.352  0.00  0.00    +0.015 C 
ATOM      4  C   UNL     1      33.783 -17.899 -23.574  0.00  0.00    -0.077 C 
ATOM      5  C   UNL     1      34.617 -16.288 -21.968  0.00  0.00    -0.077 C 
ATOM      6  C   UNL     1      34.479 -19.050 -22.844  0.00  0.00    -0.021 C 
ATOM      7  C   UNL     1      35.343 -17.383 -21.183  0.00  0.00    -0.021 C 
ATOM      8  H   UNL     1      35.456 -16.764 -23.755  0.00  0.00    -0.080 HD
BRANCH   2   9
ATOM      9  C   UNL     1      33.863 -15.558 -24.136  0.00  0.00    -0.077 C 
BRANCH   9  12
ATOM     10  O   UNL     1      30.998 -11.194 -20.733  0.00  0.00    -0.226 OA
ATOM     11  N   UNL     1      32.667 -11.919 -22.180  0.00  0.00    -0.246 N 
ATOM     12  C   UNL     1      33.927 -14.246 -23.359  0.00  0.00    -0.017 C 
ATOM     13  C   UNL     1      33.110 -14.338 -22.061  0.00  0.00    +0.020 C 
ATOM     14  C   UNL     1      33.423 -13.076 -24.220  0.00  0.00    +0.020 C 
ATOM     15  C   UNL     1      33.109 -13.009 -21.312  0.00  0.00    +0.097 C 
ATOM     16  C   UNL     1      33.417 -11.768 -23.431  0.00  0.00    +0.097 C 
ATOM     17  C   UNL     1      31.629 -11.072 -21.782  0.00  0.00    +0.405 C 
BRANCH  17  18
ATOM     18  O   UNL     1      31.383 -10.076 -22.690  0.00  0.00    -0.430 OA
ATOM     19  C   UNL     1      31.257  -8.752 -22.156  0.00  0.00    +0.257 C 
ENDBRANCH  17  18
ENDBRANCH   9  12
ENDBRANCH   2   9
ENDBRANCH   1   3
BRANCH   1  21
ATOM     20  O   UNL     1      36.386 -21.441 -18.462  0.00  0.00    -0.270 OA
ATOM     21  N   UNL     1      34.624 -20.488 -19.627  0.00  0.00    -0.301 N 
ATOM     22  C   UNL     1      35.184 -21.238 -18.612  0.00  0.00    +0.247 C 
ATOM     23  H   UNL     1      33.646 -20.384 -19.660  0.00  0.00    +0.150 HD
BRANCH  22  26
ATOM     24  N   UNL     1      34.378 -23.109 -14.283  0.00  0.00    -0.318 N 
ATOM     25  N   UNL     1      35.807 -22.197 -15.720  0.00  0.00    -0.318 N 
ATOM     26  C   UNL     1      34.220 -21.849 -17.661  0.00  0.00    +0.068 C 
ATOM     27  C   UNL     1      34.606 -22.245 -16.379  0.00  0.00    +0.063 C 
ATOM     28  C   UNL     1      32.880 -22.053 -18.007  0.00  0.00    +0.006 C 
ATOM     29  C   UNL     1      33.730 -22.818 -15.461  0.00  0.00    +0.059 C 
ATOM     30  C   UNL     1      35.621 -22.724 -14.473  0.00  0.00    +0.144 C 
ATOM     31  C   UNL     1      31.978 -22.625 -17.107  0.00  0.00    +0.001 C 
ATOM     32  C   UNL     1      32.387 -23.016 -15.826  0.00  0.00    +0.016 C 
ATOM     33  H   UNL     1      33.995 -23.516 -13.473  0.00  0.00    +0.148 HD
ATOM     34  H   UNL     1      36.653 -21.845 -16.082  0.00  0.00    +0.148 HD
BRANCH  30  35
ATOM     35  C   UNL     1      36.656 -22.862 -13.433  0.00  0.00    +0.037 C 
ATOM     36  C   UNL     1      36.087 -22.821 -11.994  0.00  0.00    +0.003 C 
ATOM     37  C   UNL     1      37.525 -24.133 -13.601  0.00  0.00    +0.003 C 
ENDBRANCH  30  35
ENDBRANCH  22  26
ENDBRANCH   1  21
TORSDOF 7
ENDMDL
