MODEL 1
REMARK VINA RESULT:     -13.3      0.000      0.000
REMARK  Name = 9998128
REMARK  2 active torsions:
REMARK  status: ('A' for Active; 'I' for Inactive)
REMARK    1  A    between atoms: N_1  and  C_15
REMARK    2  A    between atoms: C_7  and  C_24
REMARK                            x       y       z     vdW  Elec       q    Type
REMARK                         _______ _______ _______ _____ _____    ______ ____
ROOT
ATOM      1  N   UNL     1      35.366 -22.490 -16.013  0.00  0.00    -0.290 N 
ATOM      2  N   UNL     1      33.023 -22.675 -16.112  0.00  0.00    -0.327 NA
ATOM      3  N   UNL     1      31.803 -21.850 -18.019  0.00  0.00    -0.342 NA
ATOM      4  C   UNL     1      34.191 -21.642 -17.958  0.00  0.00    +0.143 C 
ATOM      5  C   UNL     1      34.155 -22.263 -16.712  0.00  0.00    +0.184 C 
ATOM      6  C   UNL     1      32.953 -21.451 -18.591  0.00  0.00    +0.133 C 
ATOM      7  C   UNL     1      31.900 -22.440 -16.810  0.00  0.00    +0.165 C 
ATOM      8  C   UNL     1      35.387 -21.220 -18.565  0.00  0.00    -0.011 C 
ATOM      9  C   UNL     1      32.949 -20.832 -19.839  0.00  0.00    +0.029 C 
ATOM     10  C   UNL     1      35.355 -20.604 -19.812  0.00  0.00    -0.004 C 
ATOM     11  C   UNL     1      34.134 -20.410 -20.450  0.00  0.00    +0.002 C 
ATOM     12  H   UNL     1      36.065 -21.821 -16.200  0.00  0.00    +0.154 HD
ENDROOT
BRANCH   1  15
ATOM     13  N   UNL     1      37.034 -26.180 -12.280  0.00  0.00    -0.236 N 
ATOM     14  N   UNL     1      37.603 -25.434 -11.317  0.00  0.00    -0.180 NA
ATOM     15  C   UNL     1      35.764 -23.483 -15.104  0.00  0.00    +0.050 C 
ATOM     16  C   UNL     1      36.811 -24.128 -13.021  0.00  0.00    +0.037 C 
ATOM     17  C   UNL     1      36.540 -25.456 -13.330  0.00  0.00    +0.067 C 
ATOM     18  C   UNL     1      36.420 -23.119 -13.917  0.00  0.00    +0.018 C 
ATOM     19  C   UNL     1      35.506 -24.831 -15.385  0.00  0.00    +0.016 C 
ATOM     20  C   UNL     1      35.889 -25.847 -14.503  0.00  0.00    +0.017 C 
ATOM     21  C   UNL     1      37.465 -24.186 -11.772  0.00  0.00    +0.119 C 
ATOM     22  H   UNL     1      36.979 -27.161 -12.232  0.00  0.00    +0.174 HD
ENDBRANCH   1  15
BRANCH   7  24
ATOM     23  N   UNL     1      29.550 -22.294 -16.713  0.00  0.00    -0.398 NA
ATOM     24  C   UNL     1      30.666 -22.865 -16.204  0.00  0.00    +0.197 C 
ATOM     25  C   UNL     1      30.655 -23.795 -15.174  0.00  0.00    +0.098 C 
ATOM     26  C   UNL     1      28.374 -22.672 -16.164  0.00  0.00    +0.110 C 
ATOM     27  C   UNL     1      29.427 -24.159 -14.635  0.00  0.00    -0.016 C 
ATOM     28  C   UNL     1      28.259 -23.592 -15.134  0.00  0.00    +0.023 C 
ATOM     29  C   UNL     1      27.142 -22.043 -16.722  0.00  0.00    +0.066 C 
ENDBRANCH   7  24
TORSDOF 2
ENDMDL
MODEL 2
REMARK VINA RESULT:     -12.8      1.875      6.933
REMARK  Name = 9998128
REMARK  2 active torsions:
REMARK  status: ('A' for Active; 'I' for Inactive)
REMARK    1  A    between atoms: N_1  and  C_15
REMARK    2  A    between atoms: C_7  and  C_24
REMARK                            x       y       z     vdW  Elec       q    Type
REMARK                         _______ _______ _______ _____ _____    ______ ____
ROOT
ATOM      1  N   UNL     1      32.650 -23.407 -13.739  0.00  0.00    -0.290 N 
ATOM      2  N   UNL     1      33.802 -22.589 -15.621  0.00  0.00    -0.327 NA
ATOM      3  N   UNL     1      36.199 -22.776 -15.772  0.00  0.00    -0.342 NA
ATOM      4  C   UNL     1      35.064 -23.623 -13.837  0.00  0.00    +0.143 C 
ATOM      5  C   UNL     1      33.874 -23.198 -14.422  0.00  0.00    +0.184 C 
ATOM      6  C   UNL     1      36.235 -23.383 -14.572  0.00  0.00    +0.133 C 
ATOM      7  C   UNL     1      34.985 -22.412 -16.231  0.00  0.00    +0.165 C 
ATOM      8  C   UNL     1      35.113 -24.256 -12.583  0.00  0.00    -0.011 C 
ATOM      9  C   UNL     1      37.446 -23.793 -14.019  0.00  0.00    +0.029 C 
ATOM     10  C   UNL     1      36.336 -24.656 -12.054  0.00  0.00    -0.004 C 
ATOM     11  C   UNL     1      37.504 -24.424 -12.773  0.00  0.00    +0.002 C 
ATOM     12  H   UNL     1      32.736 -23.401 -12.758  0.00  0.00    +0.154 HD
ENDROOT
BRANCH   1  15
ATOM     13  N   UNL     1      27.511 -23.985 -15.636  0.00  0.00    -0.236 N 
ATOM     14  N   UNL     1      27.289 -22.852 -16.324  0.00  0.00    -0.180 NA
ATOM     15  C   UNL     1      31.338 -23.620 -14.190  0.00  0.00    +0.050 C 
ATOM     16  C   UNL     1      29.389 -22.874 -15.414  0.00  0.00    +0.037 C 
ATOM     17  C   UNL     1      28.753 -24.060 -15.066  0.00  0.00    +0.067 C 
ATOM     18  C   UNL     1      30.702 -22.642 -14.973  0.00  0.00    +0.018 C 
ATOM     19  C   UNL     1      30.668 -24.804 -13.857  0.00  0.00    +0.016 C 
ATOM     20  C   UNL     1      29.360 -25.050 -14.288  0.00  0.00    +0.017 C 
ATOM     21  C   UNL     1      28.434 -22.179 -16.186  0.00  0.00    +0.119 C 
ATOM     22  H   UNL     1      26.839 -24.699 -15.551  0.00  0.00    +0.174 HD
ENDBRANCH   1  15
BRANCH   7  24
ATOM     23  N   UNL     1      33.722 -21.614 -18.054  0.00  0.00    -0.398 NA
ATOM     24  C   UNL     1      34.954 -21.764 -17.516  0.00  0.00    +0.197 C 
ATOM     25  C   UNL     1      36.122 -21.338 -18.132  0.00  0.00    +0.098 C 
ATOM     26  C   UNL     1      33.659 -21.009 -19.262  0.00  0.00    +0.110 C 
ATOM     27  C   UNL     1      36.018 -20.720 -19.373  0.00  0.00    -0.016 C 
ATOM     28  C   UNL     1      34.766 -20.548 -19.956  0.00  0.00    +0.023 C 
ATOM     29  C   UNL     1      32.302 -20.842 -19.857  0.00  0.00    +0.066 C 
ENDBRANCH   7  24
TORSDOF 2
ENDMDL
MODEL 3
REMARK VINA RESULT:     -12.7      1.790      5.009
REMARK  Name = 9998128
REMARK  2 active torsions:
REMARK  status: ('A' for Active; 'I' for Inactive)
REMARK    1  A    between atoms: N_1  and  C_15
REMARK    2  A    between atoms: C_7  and  C_24
REMARK                            x       y       z     vdW  Elec       q    Type
REMARK                         _______ _______ _______ _____ _____    ______ ____
ROOT
ATOM      1  N   UNL     1      34.474 -24.779 -14.070  0.00  0.00    -0.290 N 
ATOM      2  N   UNL     1      34.124 -23.350 -15.907  0.00  0.00    -0.327 NA
ATOM      3  N   UNL     1      31.925 -22.495 -16.397  0.00  0.00    -0.342 NA
ATOM      4  C   UNL     1      32.240 -23.948 -14.516  0.00  0.00    +0.143 C 
ATOM      5  C   UNL     1      33.589 -24.002 -14.858  0.00  0.00    +0.184 C 
ATOM      6  C   UNL     1      31.423 -23.158 -15.341  0.00  0.00    +0.133 C 
ATOM      7  C   UNL     1      33.248 -22.627 -16.623  0.00  0.00    +0.165 C 
ATOM      8  C   UNL     1      31.704 -24.639 -13.415  0.00  0.00    -0.011 C 
ATOM      9  C   UNL     1      30.067 -23.081 -15.031  0.00  0.00    +0.029 C 
ATOM     10  C   UNL     1      30.346 -24.544 -13.128  0.00  0.00    -0.004 C 
ATOM     11  C   UNL     1      29.526 -23.763 -13.938  0.00  0.00    +0.002 C 
ATOM     12  H   UNL     1      34.050 -25.562 -13.650  0.00  0.00    +0.154 HD
ENDROOT
BRANCH   1  15
ATOM     13  N   UNL     1      39.893 -24.379 -13.169  0.00  0.00    -0.236 N 
ATOM     14  N   UNL     1      40.447 -24.835 -14.305  0.00  0.00    -0.180 NA
ATOM     15  C   UNL     1      35.840 -24.649 -13.774  0.00  0.00    +0.050 C 
ATOM     16  C   UNL     1      38.161 -24.894 -14.412  0.00  0.00    +0.037 C 
ATOM     17  C   UNL     1      38.525 -24.388 -13.169  0.00  0.00    +0.067 C 
ATOM     18  C   UNL     1      36.799 -25.030 -14.728  0.00  0.00    +0.018 C 
ATOM     19  C   UNL     1      36.242 -24.144 -12.531  0.00  0.00    +0.016 C 
ATOM     20  C   UNL     1      37.593 -24.002 -12.202  0.00  0.00    +0.017 C 
ATOM     21  C   UNL     1      39.390 -25.147 -15.059  0.00  0.00    +0.119 C 
ATOM     22  H   UNL     1      40.427 -24.065 -12.404  0.00  0.00    +0.174 HD
ENDBRANCH   1  15
BRANCH   7  24
ATOM     23  N   UNL     1      32.852 -21.367 -18.575  0.00  0.00    -0.398 NA
ATOM     24  C   UNL     1      33.779 -21.913 -17.755  0.00  0.00    +0.197 C 
ATOM     25  C   UNL     1      35.147 -21.812 -17.962  0.00  0.00    +0.098 C 
ATOM     26  C   UNL     1      33.319 -20.690 -19.649  0.00  0.00    +0.110 C 
ATOM     27  C   UNL     1      35.590 -21.109 -19.076  0.00  0.00    -0.016 C 
ATOM     28  C   UNL     1      34.664 -20.534 -19.941  0.00  0.00    +0.023 C 
ATOM     29  C   UNL     1      32.299 -20.088 -20.555  0.00  0.00    +0.066 C 
ENDBRANCH   7  24
TORSDOF 2
ENDMDL
MODEL 4
REMARK VINA RESULT:     -12.6      2.058      6.339
REMARK  Name = 9998128
REMARK  2 active torsions:
REMARK  status: ('A' for Active; 'I' for Inactive)
REMARK    1  A    between atoms: N_1  and  C_15
REMARK    2  A    between atoms: C_7  and  C_24
REMARK                            x       y       z     vdW  Elec       q    Type
REMARK                         _______ _______ _______ _____ _____    ______ ____
ROOT
ATOM      1  N   UNL     1      35.076 -22.036 -17.764  0.00  0.00    -0.290 N 
ATOM      2  N   UNL     1      33.048 -22.581 -16.704  0.00  0.00    -0.327 NA
ATOM      3  N   UNL     1      33.017 -23.309 -14.407  0.00  0.00    -0.342 NA
ATOM      4  C   UNL     1      35.106 -22.763 -15.450  0.00  0.00    +0.143 C 
ATOM      5  C   UNL     1      34.386 -22.473 -16.607  0.00  0.00    +0.184 C 
ATOM      6  C   UNL     1      34.355 -23.190 -14.344  0.00  0.00    +0.133 C 
ATOM      7  C   UNL     1      32.436 -22.998 -15.584  0.00  0.00    +0.165 C 
ATOM      8  C   UNL     1      36.505 -22.643 -15.373  0.00  0.00    -0.011 C 
ATOM      9  C   UNL     1      35.040 -23.490 -13.169  0.00  0.00    +0.029 C 
ATOM     10  C   UNL     1      37.164 -22.949 -14.187  0.00  0.00    -0.004 C 
ATOM     11  C   UNL     1      36.431 -23.373 -13.083  0.00  0.00    +0.002 C 
ATOM     12  H   UNL     1      35.992 -22.393 -17.840  0.00  0.00    +0.154 HD
ENDROOT
BRANCH   1  15
ATOM     13  N   UNL     1      33.911 -18.653 -21.952  0.00  0.00    -0.236 N 
ATOM     14  N   UNL     1      35.106 -18.156 -22.310  0.00  0.00    -0.180 NA
ATOM     15  C   UNL     1      34.709 -21.192 -18.824  0.00  0.00    +0.050 C 
ATOM     16  C   UNL     1      35.305 -19.615 -20.559  0.00  0.00    +0.037 C 
ATOM     17  C   UNL     1      33.962 -19.535 -20.907  0.00  0.00    +0.067 C 
ATOM     18  C   UNL     1      35.694 -20.455 -19.502  0.00  0.00    +0.018 C 
ATOM     19  C   UNL     1      33.364 -21.087 -19.200  0.00  0.00    +0.016 C 
ATOM     20  C   UNL     1      32.961 -20.256 -20.251  0.00  0.00    +0.017 C 
ATOM     21  C   UNL     1      35.952 -18.743 -21.461  0.00  0.00    +0.119 C 
ATOM     22  H   UNL     1      33.072 -18.405 -22.403  0.00  0.00    +0.174 HD
ENDBRANCH   1  15
BRANCH   7  24
ATOM     23  N   UNL     1      30.486 -24.134 -14.905  0.00  0.00    -0.398 NA
ATOM     24  C   UNL     1      31.003 -23.127 -15.645  0.00  0.00    +0.197 C 
ATOM     25  C   UNL     1      30.238 -22.264 -16.416  0.00  0.00    +0.098 C 
ATOM     26  C   UNL     1      29.142 -24.282 -14.941  0.00  0.00    +0.110 C 
ATOM     27  C   UNL     1      28.860 -22.448 -16.429  0.00  0.00    -0.016 C 
ATOM     28  C   UNL     1      28.293 -23.473 -15.680  0.00  0.00    +0.023 C 
ATOM     29  C   UNL     1      28.569 -25.392 -14.126  0.00  0.00    +0.066 C 
ENDBRANCH   7  24
TORSDOF 2
ENDMDL
MODEL 5
REMARK VINA RESULT:     -12.0      1.934      6.038
REMARK  Name = 9998128
REMARK  2 active torsions:
REMARK  status: ('A' for Active; 'I' for Inactive)
REMARK    1  A    between atoms: N_1  and  C_15
REMARK    2  A    between atoms: C_7  and  C_24
REMARK                            x       y       z     vdW  Elec       q    Type
REMARK                         _______ _______ _______ _____ _____    ______ ____
ROOT
ATOM      1  N   UNL     1      35.525 -22.776 -15.943  0.00  0.00    -0.290 N 
ATOM      2  N   UNL     1      33.403 -23.349 -15.103  0.00  0.00    -0.327 NA
ATOM      3  N   UNL     1      33.111 -23.903 -12.776  0.00  0.00    -0.342 NA
ATOM      4  C   UNL     1      35.290 -23.326 -13.592  0.00  0.00    +0.143 C 
ATOM      5  C   UNL     1      34.712 -23.162 -14.849  0.00  0.00    +0.184 C 
ATOM      6  C   UNL     1      34.423 -23.708 -12.556  0.00  0.00    +0.133 C 
ATOM      7  C   UNL     1      32.672 -23.713 -14.037  0.00  0.00    +0.165 C 
ATOM      8  C   UNL     1      36.661 -23.125 -13.351  0.00  0.00    -0.011 C 
ATOM      9  C   UNL     1      34.965 -23.882 -11.285  0.00  0.00    +0.029 C 
ATOM     10  C   UNL     1      37.176 -23.305 -12.072  0.00  0.00    -0.004 C 
ATOM     11  C   UNL     1      36.326 -23.684 -11.037  0.00  0.00    +0.002 C 
ATOM     12  H   UNL     1      36.457 -23.088 -15.875  0.00  0.00    +0.154 HD
ENDROOT
BRANCH   1  15
ATOM     13  N   UNL     1      34.207 -19.952 -20.484  0.00  0.00    -0.236 N 
ATOM     14  N   UNL     1      32.887 -20.161 -20.626  0.00  0.00    -0.180 NA
ATOM     15  C   UNL     1      35.259 -22.035 -17.105  0.00  0.00    +0.050 C 
ATOM     16  C   UNL     1      33.707 -21.241 -18.782  0.00  0.00    +0.037 C 
ATOM     17  C   UNL     1      34.759 -20.573 -19.397  0.00  0.00    +0.067 C 
ATOM     18  C   UNL     1      33.952 -21.987 -17.617  0.00  0.00    +0.018 C 
ATOM     19  C   UNL     1      36.297 -21.351 -17.750  0.00  0.00    +0.016 C 
ATOM     20  C   UNL     1      36.069 -20.604 -18.911  0.00  0.00    +0.017 C 
ATOM     21  C   UNL     1      32.587 -20.946 -19.588  0.00  0.00    +0.119 C 
ATOM     22  H   UNL     1      34.730 -19.399 -21.109  0.00  0.00    +0.174 HD
ENDBRANCH   1  15
BRANCH   7  24
ATOM     23  N   UNL     1      30.709 -23.121 -15.201  0.00  0.00    -0.398 NA
ATOM     24  C   UNL     1      31.266 -23.924 -14.264  0.00  0.00    +0.197 C 
ATOM     25  C   UNL     1      30.562 -24.887 -13.557  0.00  0.00    +0.098 C 
ATOM     26  C   UNL     1      29.389 -23.294 -15.437  0.00  0.00    +0.110 C 
ATOM     27  C   UNL     1      29.206 -25.035 -13.827  0.00  0.00    -0.016 C 
ATOM     28  C   UNL     1      28.601 -24.228 -14.784  0.00  0.00    +0.023 C 
ATOM     29  C   UNL     1      28.773 -22.411 -16.469  0.00  0.00    +0.066 C 
ENDBRANCH   7  24
TORSDOF 2
ENDMDL
MODEL 6
REMARK VINA RESULT:     -11.5      2.057      7.389
REMARK  Name = 9998128
REMARK  2 active torsions:
REMARK  status: ('A' for Active; 'I' for Inactive)
REMARK    1  A    between atoms: N_1  and  C_15
REMARK    2  A    between atoms: C_7  and  C_24
REMARK                            x       y       z     vdW  Elec       q    Type
REMARK                         _______ _______ _______ _____ _____    ______ ____
ROOT
ATOM      1  N   UNL     1      31.691 -21.965 -17.031  0.00  0.00    -0.290 N 
ATOM      2  N   UNL     1      33.000 -22.721 -15.228  0.00  0.00    -0.327 NA
ATOM      3  N   UNL     1      32.090 -24.252 -13.605  0.00  0.00    -0.342 NA
ATOM      4  C   UNL     1      30.722 -23.505 -15.428  0.00  0.00    +0.143 C 
ATOM      5  C   UNL     1      31.811 -22.752 -15.860  0.00  0.00    +0.184 C 
ATOM      6  C   UNL     1      30.915 -24.261 -14.261  0.00  0.00    +0.133 C 
ATOM      7  C   UNL     1      33.068 -23.482 -14.124  0.00  0.00    +0.165 C 
ATOM      8  C   UNL     1      29.490 -23.522 -16.105  0.00  0.00    -0.011 C 
ATOM      9  C   UNL     1      29.848 -25.027 -13.797  0.00  0.00    +0.029 C 
ATOM     10  C   UNL     1      28.441 -24.296 -15.620  0.00  0.00    -0.004 C 
ATOM     11  C   UNL     1      28.620 -25.049 -14.465  0.00  0.00    +0.002 C 
ATOM     12  H   UNL     1      30.777 -21.634 -17.196  0.00  0.00    +0.154 HD
ENDROOT
BRANCH   1  15
ATOM     13  N   UNL     1      35.132 -20.241 -20.971  0.00  0.00    -0.236 N 
ATOM     14  N   UNL     1      34.366 -19.461 -21.754  0.00  0.00    -0.180 NA
ATOM     15  C   UNL     1      32.621 -21.564 -18.003  0.00  0.00    +0.050 C 
ATOM     16  C   UNL     1      33.163 -20.323 -20.008  0.00  0.00    +0.037 C 
ATOM     17  C   UNL     1      34.470 -20.788 -19.906  0.00  0.00    +0.067 C 
ATOM     18  C   UNL     1      32.217 -20.712 -19.045  0.00  0.00    +0.018 C 
ATOM     19  C   UNL     1      33.945 -22.014 -17.931  0.00  0.00    +0.016 C 
ATOM     20  C   UNL     1      34.899 -21.635 -18.882  0.00  0.00    +0.017 C 
ATOM     21  C   UNL     1      33.169 -19.513 -21.164  0.00  0.00    +0.119 C 
ATOM     22  H   UNL     1      36.086 -20.403 -21.150  0.00  0.00    +0.174 HD
ENDBRANCH   1  15
BRANCH   7  24
ATOM     23  N   UNL     1      34.236 -23.741 -12.093  0.00  0.00    -0.398 NA
ATOM     24  C   UNL     1      34.322 -23.477 -13.417  0.00  0.00    +0.197 C 
ATOM     25  C   UNL     1      35.515 -23.217 -14.076  0.00  0.00    +0.098 C 
ATOM     26  C   UNL     1      35.397 -23.743 -11.401  0.00  0.00    +0.110 C 
ATOM     27  C   UNL     1      36.689 -23.227 -13.331  0.00  0.00    -0.016 C 
ATOM     28  C   UNL     1      36.638 -23.495 -11.967  0.00  0.00    +0.023 C 
ATOM     29  C   UNL     1      35.305 -24.033  -9.940  0.00  0.00    +0.066 C 
ENDBRANCH   7  24
TORSDOF 2
ENDMDL
MODEL 7
REMARK VINA RESULT:     -11.2      1.781      6.023
REMARK  Name = 9998128
REMARK  2 active torsions:
REMARK  status: ('A' for Active; 'I' for Inactive)
REMARK    1  A    between atoms: N_1  and  C_15
REMARK    2  A    between atoms: C_7  and  C_24
REMARK                            x       y       z     vdW  Elec       q    Type
REMARK                         _______ _______ _______ _____ _____    ______ ____
ROOT
ATOM      1  N   UNL     1      31.988 -22.398 -17.615  0.00  0.00    -0.290 N 
ATOM      2  N   UNL     1      34.206 -22.616 -16.862  0.00  0.00    -0.327 NA
ATOM      3  N   UNL     1      36.006 -21.480 -17.992  0.00  0.00    -0.342 NA
ATOM      4  C   UNL     1      33.759 -21.231 -18.792  0.00  0.00    +0.143 C 
ATOM      5  C   UNL     1      33.360 -22.074 -17.758  0.00  0.00    +0.184 C 
ATOM      6  C   UNL     1      35.133 -20.955 -18.870  0.00  0.00    +0.133 C 
ATOM      7  C   UNL     1      35.495 -22.282 -17.035  0.00  0.00    +0.165 C 
ATOM      8  C   UNL     1      32.856 -20.678 -19.716  0.00  0.00    -0.011 C 
ATOM      9  C   UNL     1      35.571 -20.116 -19.892  0.00  0.00    +0.029 C 
ATOM     10  C   UNL     1      33.319 -19.842 -20.727  0.00  0.00    -0.004 C 
ATOM     11  C   UNL     1      34.679 -19.561 -20.815  0.00  0.00    +0.002 C 
ATOM     12  H   UNL     1      31.491 -22.405 -18.465  0.00  0.00    +0.154 HD
ENDROOT
BRANCH   1  15
ATOM     13  N   UNL     1      29.122 -23.766 -13.115  0.00  0.00    -0.236 N 
ATOM     14  N   UNL     1      29.996 -24.465 -12.372  0.00  0.00    -0.180 NA
ATOM     15  C   UNL     1      31.200 -22.710 -16.496  0.00  0.00    +0.050 C 
ATOM     16  C   UNL     1      30.945 -23.764 -14.333  0.00  0.00    +0.037 C 
ATOM     17  C   UNL     1      29.629 -23.317 -14.304  0.00  0.00    +0.067 C 
ATOM     18  C   UNL     1      31.751 -23.460 -15.443  0.00  0.00    +0.018 C 
ATOM     19  C   UNL     1      29.870 -22.277 -16.435  0.00  0.00    +0.016 C 
ATOM     20  C   UNL     1      29.055 -22.570 -15.336  0.00  0.00    +0.017 C 
ATOM     21  C   UNL     1      31.105 -24.461 -13.117  0.00  0.00    +0.119 C 
ATOM     22  H   UNL     1      28.196 -23.592 -12.828  0.00  0.00    +0.174 HD
ENDBRANCH   1  15
BRANCH   7  24
ATOM     23  N   UNL     1      35.931 -23.786 -15.274  0.00  0.00    -0.398 NA
ATOM     24  C   UNL     1      36.435 -22.839 -16.098  0.00  0.00    +0.197 C 
ATOM     25  C   UNL     1      37.756 -22.414 -16.068  0.00  0.00    +0.098 C 
ATOM     26  C   UNL     1      36.790 -24.329 -14.382  0.00  0.00    +0.110 C 
ATOM     27  C   UNL     1      38.608 -22.995 -15.136  0.00  0.00    -0.016 C 
ATOM     28  C   UNL     1      38.124 -23.972 -14.273  0.00  0.00    +0.023 C 
ATOM     29  C   UNL     1      36.236 -25.374 -13.472  0.00  0.00    +0.066 C 
ENDBRANCH   7  24
TORSDOF 2
ENDMDL
MODEL 8
REMARK VINA RESULT:     -10.8      1.581      6.899
REMARK  Name = 9998128
REMARK  2 active torsions:
REMARK  status: ('A' for Active; 'I' for Inactive)
REMARK    1  A    between atoms: N_1  and  C_15
REMARK    2  A    between atoms: C_7  and  C_24
REMARK                            x       y       z     vdW  Elec       q    Type
REMARK                         _______ _______ _______ _____ _____    ______ ____
ROOT
ATOM      1  N   UNL     1      31.575 -22.412 -17.292  0.00  0.00    -0.290 N 
ATOM      2  N   UNL     1      33.304 -22.931 -15.782  0.00  0.00    -0.327 NA
ATOM      3  N   UNL     1      35.593 -22.388 -16.301  0.00  0.00    -0.342 NA
ATOM      4  C   UNL     1      33.862 -21.842 -17.867  0.00  0.00    +0.143 C 
ATOM      5  C   UNL     1      32.955 -22.397 -16.967  0.00  0.00    +0.184 C 
ATOM      6  C   UNL     1      35.210 -21.862 -17.478  0.00  0.00    +0.133 C 
ATOM      7  C   UNL     1      34.620 -22.894 -15.517  0.00  0.00    +0.165 C 
ATOM      8  C   UNL     1      33.472 -21.291 -19.100  0.00  0.00    -0.011 C 
ATOM      9  C   UNL     1      36.148 -21.317 -18.352  0.00  0.00    +0.029 C 
ATOM     10  C   UNL     1      34.429 -20.752 -19.954  0.00  0.00    -0.004 C 
ATOM     11  C   UNL     1      35.769 -20.765 -19.579  0.00  0.00    +0.002 C 
ATOM     12  H   UNL     1      31.395 -22.469 -18.259  0.00  0.00    +0.154 HD
ENDROOT
BRANCH   1  15
ATOM     13  N   UNL     1      26.874 -22.171 -14.433  0.00  0.00    -0.236 N 
ATOM     14  N   UNL     1      25.936 -21.945 -15.368  0.00  0.00    -0.180 NA
ATOM     15  C   UNL     1      30.416 -22.363 -16.502  0.00  0.00    +0.050 C 
ATOM     16  C   UNL     1      28.020 -22.091 -16.301  0.00  0.00    +0.037 C 
ATOM     17  C   UNL     1      28.146 -22.269 -14.927  0.00  0.00    +0.067 C 
ATOM     18  C   UNL     1      29.169 -22.138 -17.108  0.00  0.00    +0.018 C 
ATOM     19  C   UNL     1      30.507 -22.537 -15.115  0.00  0.00    +0.016 C 
ATOM     20  C   UNL     1      29.373 -22.494 -14.298  0.00  0.00    +0.017 C 
ATOM     21  C   UNL     1      26.637 -21.897 -16.503  0.00  0.00    +0.119 C 
ATOM     22  H   UNL     1      26.663 -22.258 -13.475  0.00  0.00    +0.174 HD
ENDBRANCH   1  15
BRANCH   7  24
ATOM     23  N   UNL     1      36.310 -23.912 -14.228  0.00  0.00    -0.398 NA
ATOM     24  C   UNL     1      35.037 -23.455 -14.259  0.00  0.00    +0.197 C 
ATOM     25  C   UNL     1      34.172 -23.509 -13.175  0.00  0.00    +0.098 C 
ATOM     26  C   UNL     1      36.732 -24.445 -13.059  0.00  0.00    +0.110 C 
ATOM     27  C   UNL     1      34.642 -24.065 -11.991  0.00  0.00    -0.016 C 
ATOM     28  C   UNL     1      35.946 -24.544 -11.923  0.00  0.00    +0.023 C 
ATOM     29  C   UNL     1      38.136 -24.950 -13.023  0.00  0.00    +0.066 C 
ENDBRANCH   7  24
TORSDOF 2
ENDMDL
MODEL 9
REMARK VINA RESULT:     -10.7      2.175      6.682
REMARK  Name = 9998128
REMARK  2 active torsions:
REMARK  status: ('A' for Active; 'I' for Inactive)
REMARK    1  A    between atoms: N_1  and  C_15
REMARK    2  A    between atoms: C_7  and  C_24
REMARK                            x       y       z     vdW  Elec       q    Type
REMARK                         _______ _______ _______ _____ _____    ______ ____
ROOT
ATOM      1  N   UNL     1      33.442 -22.831 -14.630  0.00  0.00    -0.290 N 
ATOM      2  N   UNL     1      34.139 -21.876 -16.664  0.00  0.00    -0.327 NA
ATOM      3  N   UNL     1      36.466 -21.878 -17.289  0.00  0.00    -0.342 NA
ATOM      4  C   UNL     1      35.798 -22.860 -15.207  0.00  0.00    +0.143 C 
ATOM      5  C   UNL     1      34.489 -22.511 -15.530  0.00  0.00    +0.184 C 
ATOM      6  C   UNL     1      36.781 -22.512 -16.146  0.00  0.00    +0.133 C 
ATOM      7  C   UNL     1      35.163 -21.594 -17.486  0.00  0.00    +0.165 C 
ATOM      8  C   UNL     1      36.138 -23.523 -14.014  0.00  0.00    -0.011 C 
ATOM      9  C   UNL     1      38.103 -22.845 -15.858  0.00  0.00    +0.029 C 
ATOM     10  C   UNL     1      37.466 -23.844 -13.752  0.00  0.00    -0.004 C 
ATOM     11  C   UNL     1      38.450 -23.504 -14.675  0.00  0.00    +0.002 C 
ATOM     12  H   UNL     1      33.721 -22.845 -13.685  0.00  0.00    +0.154 HD
ENDROOT
BRANCH   1  15
ATOM     13  N   UNL     1      28.137 -24.204 -15.185  0.00  0.00    -0.236 N 
ATOM     14  N   UNL     1      27.953 -25.169 -14.268  0.00  0.00    -0.180 NA
ATOM     15  C   UNL     1      32.085 -23.130 -14.824  0.00  0.00    +0.050 C 
ATOM     16  C   UNL     1      30.111 -24.407 -14.251  0.00  0.00    +0.037 C 
ATOM     17  C   UNL     1      29.410 -23.705 -15.225  0.00  0.00    +0.067 C 
ATOM     18  C   UNL     1      31.470 -24.121 -14.040  0.00  0.00    +0.018 C 
ATOM     19  C   UNL     1      31.349 -22.442 -15.798  0.00  0.00    +0.016 C 
ATOM     20  C   UNL     1      29.995 -22.715 -16.019  0.00  0.00    +0.017 C 
ATOM     21  C   UNL     1      29.156 -25.290 -13.702  0.00  0.00    +0.119 C 
ATOM     22  H   UNL     1      27.417 -23.885 -15.775  0.00  0.00    +0.174 HD
ENDBRANCH   1  15
BRANCH   7  24
ATOM     23  N   UNL     1      35.833 -20.178 -19.247  0.00  0.00    -0.398 NA
ATOM     24  C   UNL     1      34.833 -20.916 -18.712  0.00  0.00    +0.197 C 
ATOM     25  C   UNL     1      33.571 -21.029 -19.279  0.00  0.00    +0.098 C 
ATOM     26  C   UNL     1      35.555 -19.528 -20.400  0.00  0.00    +0.110 C 
ATOM     27  C   UNL     1      33.322 -20.346 -20.463  0.00  0.00    -0.016 C 
ATOM     28  C   UNL     1      34.328 -19.578 -21.041  0.00  0.00    +0.023 C 
ATOM     29  C   UNL     1      36.656 -18.713 -20.991  0.00  0.00    +0.066 C 
ENDBRANCH   7  24
TORSDOF 2
ENDMDL
