MODEL 1
REMARK VINA RESULT:     -13.4      0.000      0.000
REMARK  Name = 44472635
REMARK  7 active torsions:
REMARK  status: ('A' for Active; 'I' for Inactive)
REMARK    1  A    between atoms: C_1  and  C_21
REMARK    2  A    between atoms: C_4  and  N_8
REMARK    3  A    between atoms: C_9  and  C_14
REMARK    4  A    between atoms: C_21  and  C_24
REMARK    5  A    between atoms: C_23  and  C_29
REMARK    6  A    between atoms: C_29  and  C_30
REMARK    7  A    between atoms: C_29  and  O_36
REMARK                            x       y       z     vdW  Elec       q    Type
REMARK                         _______ _______ _______ _____ _____    ______ ____
ROOT
ATOM      1  C   UNL     1      34.125 -15.316 -23.210  0.00  0.00    -0.024 C 
ATOM      2  C   UNL     1      34.165 -14.572 -22.030  0.00  0.00    -0.003 C 
ATOM      3  C   UNL     1      33.430 -14.829 -24.317  0.00  0.00    -0.003 C 
ATOM      4  C   UNL     1      32.816 -12.856 -23.067  0.00  0.00    +0.050 C 
ATOM      5  C   UNL     1      33.510 -13.343 -21.958  0.00  0.00    +0.014 C 
ATOM      6  C   UNL     1      32.777 -13.600 -24.246  0.00  0.00    +0.014 C 
ENDROOT
BRANCH   4   8
ATOM      7  O   UNL     1      33.831 -10.068 -23.579  0.00  0.00    -0.273 OA
ATOM      8  N   UNL     1      32.152 -11.609 -22.994  0.00  0.00    -0.283 N 
ATOM      9  C   UNL     1      32.685 -10.352 -23.244  0.00  0.00    +0.245 C 
ATOM     10  H   UNL     1      31.201 -11.637 -22.737  0.00  0.00    +0.155 HD
BRANCH   9  14
ATOM     11  O   UNL     1      30.138 -10.778 -20.998  0.00  0.00    -0.269 OA
ATOM     12  N   UNL     1      31.542  -9.036 -21.637  0.00  0.00    -0.237 N 
ATOM     13  N   UNL     1      32.332  -7.437 -20.053  0.00  0.00    -0.233 NA
ATOM     14  C   UNL     1      31.653  -9.280 -23.059  0.00  0.00    +0.158 C 
ATOM     15  C   UNL     1      32.123  -7.944 -23.616  0.00  0.00    +0.037 C 
ATOM     16  C   UNL     1      32.901  -7.298 -22.466  0.00  0.00    +0.064 C 
ATOM     17  C   UNL     1      32.248  -7.897 -21.258  0.00  0.00    +0.115 C 
ATOM     18  C   UNL     1      30.809  -9.786 -20.739  0.00  0.00    +0.256 C 
ATOM     19  C   UNL     1      30.904  -9.265 -19.351  0.00  0.00    +0.079 C 
ATOM     20  C   UNL     1      31.636  -8.165 -19.117  0.00  0.00    +0.105 C 
ENDBRANCH   9  14
ENDBRANCH   4   8
BRANCH   1  21
ATOM     21  C   UNL     1      34.823 -16.632 -23.286  0.00  0.00    +0.005 C 
BRANCH  21  24
ATOM     22  N   UNL     1      34.118 -18.307 -21.601  0.00  0.00    +0.388 N 
ATOM     23  C   UNL     1      34.722 -19.019 -20.464  0.00  0.00    -0.030 C 
ATOM     24  C   UNL     1      35.072 -17.234 -21.913  0.00  0.00    -0.057 C 
ATOM     25  C   UNL     1      36.230 -18.971 -20.712  0.00  0.00    -0.021 C 
ATOM     26  C   UNL     1      36.424 -17.924 -21.802  0.00  0.00    -0.023 C 
ATOM     27  H   UNL     1      33.211 -17.919 -21.341  0.00  0.00    -0.084 HD
ATOM     28  H   UNL     1      33.949 -18.921 -22.397  0.00  0.00    -0.084 HD
BRANCH  23  29
ATOM     29  C   UNL     1      34.186 -20.438 -20.337  0.00  0.00    +0.113 C 
BRANCH  29  30
ATOM     30  C   UNL     1      34.560 -21.073 -19.017  0.00  0.00    +0.002 C 
ATOM     31  C   UNL     1      35.869 -20.982 -18.543  0.00  0.00    -0.002 C 
ATOM     32  C   UNL     1      33.595 -21.752 -18.272  0.00  0.00    -0.002 C 
ATOM     33  C   UNL     1      36.213 -21.568 -17.326  0.00  0.00    -0.000 C 
ATOM     34  C   UNL     1      33.939 -22.340 -17.055  0.00  0.00    -0.000 C 
ATOM     35  C   UNL     1      35.248 -22.247 -16.581  0.00  0.00    -0.000 C 
ENDBRANCH  29  30
BRANCH  29  36
ATOM     36  O   UNL     1      32.764 -20.429 -20.463  0.00  0.00    -0.382 OA
ATOM     37  H   UNL     1      32.510 -19.865 -21.210  0.00  0.00    +0.211 HD
ENDBRANCH  29  36
ENDBRANCH  23  29
ENDBRANCH  21  24
ENDBRANCH   1  21
TORSDOF 7
ENDMDL
MODEL 2
REMARK VINA RESULT:     -13.3      3.593     11.865
REMARK  Name = 44472635
REMARK  7 active torsions:
REMARK  status: ('A' for Active; 'I' for Inactive)
REMARK    1  A    between atoms: C_1  and  C_21
REMARK    2  A    between atoms: C_4  and  N_8
REMARK    3  A    between atoms: C_9  and  C_14
REMARK    4  A    between atoms: C_21  and  C_24
REMARK    5  A    between atoms: C_23  and  C_29
REMARK    6  A    between atoms: C_29  and  C_30
REMARK    7  A    between atoms: C_29  and  O_36
REMARK                            x       y       z     vdW  Elec       q    Type
REMARK                         _______ _______ _______ _____ _____    ______ ____
ROOT
ATOM      1  C   UNL     1      34.929 -19.410 -20.843  0.00  0.00    -0.024 C 
ATOM      2  C   UNL     1      33.556 -19.598 -20.679  0.00  0.00    -0.003 C 
ATOM      3  C   UNL     1      35.830 -20.164 -20.090  0.00  0.00    -0.003 C 
ATOM      4  C   UNL     1      33.987 -21.292 -19.010  0.00  0.00    +0.050 C 
ATOM      5  C   UNL     1      33.085 -20.538 -19.762  0.00  0.00    +0.014 C 
ATOM      6  C   UNL     1      35.359 -21.105 -19.175  0.00  0.00    +0.014 C 
ENDROOT
BRANCH   4   8
ATOM      7  O   UNL     1      34.922 -21.945 -16.224  0.00  0.00    -0.273 OA
ATOM      8  N   UNL     1      33.509 -22.246 -18.081  0.00  0.00    -0.283 N 
ATOM      9  C   UNL     1      33.992 -22.497 -16.804  0.00  0.00    +0.245 C 
ATOM     10  H   UNL     1      32.746 -22.795 -18.375  0.00  0.00    +0.155 HD
BRANCH   9  14
ATOM     11  O   UNL     1      35.610 -25.191 -15.447  0.00  0.00    -0.269 OA
ATOM     12  N   UNL     1      33.825 -23.823 -14.846  0.00  0.00    -0.237 N 
ATOM     13  N   UNL     1      33.426 -23.237 -12.569  0.00  0.00    -0.233 NA
ATOM     14  C   UNL     1      33.212 -23.589 -16.136  0.00  0.00    +0.158 C 
ATOM     15  C   UNL     1      31.801 -23.140 -15.786  0.00  0.00    +0.037 C 
ATOM     16  C   UNL     1      31.935 -22.487 -14.408  0.00  0.00    +0.064 C 
ATOM     17  C   UNL     1      33.113 -23.204 -13.823  0.00  0.00    +0.115 C 
ATOM     18  C   UNL     1      34.948 -24.590 -14.608  0.00  0.00    +0.256 C 
ATOM     19  C   UNL     1      35.316 -24.629 -13.169  0.00  0.00    +0.079 C 
ATOM     20  C   UNL     1      34.554 -23.969 -12.284  0.00  0.00    +0.105 C 
ENDBRANCH   9  14
ENDBRANCH   4   8
BRANCH   1  21
ATOM     21  C   UNL     1      35.433 -18.404 -21.821  0.00  0.00    +0.005 C 
BRANCH  21  24
ATOM     22  N   UNL     1      34.497 -16.186 -21.225  0.00  0.00    +0.388 N 
ATOM     23  C   UNL     1      33.731 -15.122 -21.890  0.00  0.00    -0.030 C 
ATOM     24  C   UNL     1      34.398 -17.336 -22.136  0.00  0.00    -0.057 C 
ATOM     25  C   UNL     1      33.974 -15.322 -23.386  0.00  0.00    -0.021 C 
ATOM     26  C   UNL     1      34.587 -16.711 -23.511  0.00  0.00    -0.023 C 
ATOM     27  H   UNL     1      34.090 -16.410 -20.317  0.00  0.00    -0.084 HD
ATOM     28  H   UNL     1      35.464 -15.914 -21.047  0.00  0.00    -0.084 HD
BRANCH  23  29
ATOM     29  C   UNL     1      34.141 -13.740 -21.401  0.00  0.00    +0.113 C 
BRANCH  29  30
ATOM     30  C   UNL     1      33.131 -12.679 -21.773  0.00  0.00    +0.002 C 
ATOM     31  C   UNL     1      33.303 -11.927 -22.935  0.00  0.00    -0.002 C 
ATOM     32  C   UNL     1      32.026 -12.451 -20.953  0.00  0.00    -0.002 C 
ATOM     33  C   UNL     1      32.371 -10.948 -23.277  0.00  0.00    -0.000 C 
ATOM     34  C   UNL     1      31.093 -11.471 -21.294  0.00  0.00    -0.000 C 
ATOM     35  C   UNL     1      31.266 -10.720 -22.457  0.00  0.00    -0.000 C 
ENDBRANCH  29  30
BRANCH  29  36
ATOM     36  O   UNL     1      34.297 -13.758 -19.982  0.00  0.00    -0.382 OA
ATOM     37  H   UNL     1      35.222 -13.570 -19.757  0.00  0.00    +0.211 HD
ENDBRANCH  29  36
ENDBRANCH  23  29
ENDBRANCH  21  24
ENDBRANCH   1  21
TORSDOF 7
ENDMDL
MODEL 3
REMARK VINA RESULT:     -13.2      3.945     12.083
REMARK  Name = 44472635
REMARK  7 active torsions:
REMARK  status: ('A' for Active; 'I' for Inactive)
REMARK    1  A    between atoms: C_1  and  C_21
REMARK    2  A    between atoms: C_4  and  N_8
REMARK    3  A    between atoms: C_9  and  C_14
REMARK    4  A    between atoms: C_21  and  C_24
REMARK    5  A    between atoms: C_23  and  C_29
REMARK    6  A    between atoms: C_29  and  C_30
REMARK    7  A    between atoms: C_29  and  O_36
REMARK                            x       y       z     vdW  Elec       q    Type
REMARK                         _______ _______ _______ _____ _____    ______ ____
ROOT
ATOM      1  C   UNL     1      34.837 -19.839 -20.426  0.00  0.00    -0.024 C 
ATOM      2  C   UNL     1      33.485 -20.113 -20.217  0.00  0.00    -0.003 C 
ATOM      3  C   UNL     1      35.805 -20.482 -19.655  0.00  0.00    -0.003 C 
ATOM      4  C   UNL     1      34.071 -21.673 -18.468  0.00  0.00    +0.050 C 
ATOM      5  C   UNL     1      33.102 -21.030 -19.238  0.00  0.00    +0.014 C 
ATOM      6  C   UNL     1      35.423 -21.399 -18.677  0.00  0.00    +0.014 C 
ENDROOT
BRANCH   4   8
ATOM      7  O   UNL     1      34.952 -21.956 -15.603  0.00  0.00    -0.273 OA
ATOM      8  N   UNL     1      33.683 -22.604 -17.475  0.00  0.00    -0.283 N 
ATOM      9  C   UNL     1      34.134 -22.678 -16.165  0.00  0.00    +0.245 C 
ATOM     10  H   UNL     1      33.016 -23.276 -17.746  0.00  0.00    +0.155 HD
BRANCH   9  14
ATOM     11  O   UNL     1      35.966 -25.403 -15.199  0.00  0.00    -0.269 OA
ATOM     12  N   UNL     1      34.289 -24.088 -14.264  0.00  0.00    -0.237 N 
ATOM     13  N   UNL     1      34.251 -23.603 -11.930  0.00  0.00    -0.233 NA
ATOM     14  C   UNL     1      33.478 -23.808 -15.430  0.00  0.00    +0.158 C 
ATOM     15  C   UNL     1      32.136 -23.394 -14.842  0.00  0.00    +0.037 C 
ATOM     16  C   UNL     1      32.482 -22.797 -13.475  0.00  0.00    +0.064 C 
ATOM     17  C   UNL     1      33.743 -23.522 -13.115  0.00  0.00    +0.115 C 
ATOM     18  C   UNL     1      35.441 -24.847 -14.241  0.00  0.00    +0.256 C 
ATOM     19  C   UNL     1      36.033 -24.942 -12.881  0.00  0.00    +0.079 C 
ATOM     20  C   UNL     1      35.416 -24.331 -11.859  0.00  0.00    +0.105 C 
ENDBRANCH   9  14
ENDBRANCH   4   8
BRANCH   1  21
ATOM     21  C   UNL     1      35.246 -18.857 -21.471  0.00  0.00    +0.005 C 
BRANCH  21  24
ATOM     22  N   UNL     1      34.183 -16.996 -22.716  0.00  0.00    +0.388 N 
ATOM     23  C   UNL     1      33.232 -16.842 -23.828  0.00  0.00    -0.030 C 
ATOM     24  C   UNL     1      34.078 -18.412 -22.335  0.00  0.00    -0.057 C 
ATOM     25  C   UNL     1      33.292 -18.162 -24.598  0.00  0.00    -0.021 C 
ATOM     26  C   UNL     1      34.019 -19.132 -23.674  0.00  0.00    -0.023 C 
ATOM     27  H   UNL     1      33.925 -16.393 -21.936  0.00  0.00    -0.084 HD
ATOM     28  H   UNL     1      35.132 -16.734 -22.980  0.00  0.00    -0.084 HD
BRANCH  23  29
ATOM     29  C   UNL     1      33.565 -15.635 -24.693  0.00  0.00    +0.113 C 
BRANCH  29  30
ATOM     30  C   UNL     1      33.412 -14.333 -23.939  0.00  0.00    +0.002 C 
ATOM     31  C   UNL     1      33.831 -14.241 -22.612  0.00  0.00    -0.002 C 
ATOM     32  C   UNL     1      32.852 -13.223 -24.572  0.00  0.00    -0.002 C 
ATOM     33  C   UNL     1      33.689 -13.041 -21.917  0.00  0.00    -0.000 C 
ATOM     34  C   UNL     1      32.709 -12.022 -23.877  0.00  0.00    -0.000 C 
ATOM     35  C   UNL     1      33.128 -11.931 -22.550  0.00  0.00    -0.000 C 
ENDBRANCH  29  30
BRANCH  29  36
ATOM     36  O   UNL     1      34.905 -15.741 -25.173  0.00  0.00    -0.382 OA
ATOM     37  H   UNL     1      35.517 -15.407 -24.498  0.00  0.00    +0.211 HD
ENDBRANCH  29  36
ENDBRANCH  23  29
ENDBRANCH  21  24
ENDBRANCH   1  21
TORSDOF 7
ENDMDL
MODEL 4
REMARK VINA RESULT:     -13.0      4.768     12.941
REMARK  Name = 44472635
REMARK  7 active torsions:
REMARK  status: ('A' for Active; 'I' for Inactive)
REMARK    1  A    between atoms: C_1  and  C_21
REMARK    2  A    between atoms: C_4  and  N_8
REMARK    3  A    between atoms: C_9  and  C_14
REMARK    4  A    between atoms: C_21  and  C_24
REMARK    5  A    between atoms: C_23  and  C_29
REMARK    6  A    between atoms: C_29  and  C_30
REMARK    7  A    between atoms: C_29  and  O_36
REMARK                            x       y       z     vdW  Elec       q    Type
REMARK                         _______ _______ _______ _____ _____    ______ ____
ROOT
ATOM      1  C   UNL     1      34.338 -21.288 -18.527  0.00  0.00    -0.024 C 
ATOM      2  C   UNL     1      35.709 -21.035 -18.477  0.00  0.00    -0.003 C 
ATOM      3  C   UNL     1      33.735 -22.059 -17.533  0.00  0.00    -0.003 C 
ATOM      4  C   UNL     1      35.872 -22.322 -16.439  0.00  0.00    +0.050 C 
ATOM      5  C   UNL     1      36.476 -21.552 -17.434  0.00  0.00    +0.014 C 
ATOM      6  C   UNL     1      34.501 -22.575 -16.489  0.00  0.00    +0.014 C 
ENDROOT
BRANCH   4   8
ATOM      7  O   UNL     1      35.971 -25.096 -15.273  0.00  0.00    -0.273 OA
ATOM      8  N   UNL     1      36.650 -22.846 -15.380  0.00  0.00    -0.283 N 
ATOM      9  C   UNL     1      36.644 -24.144 -14.889  0.00  0.00    +0.245 C 
ATOM     10  H   UNL     1      37.267 -22.216 -14.940  0.00  0.00    +0.155 HD
BRANCH   9  14
ATOM     11  O   UNL     1      37.028 -21.640 -12.588  0.00  0.00    -0.269 OA
ATOM     12  N   UNL     1      36.910 -23.964 -12.540  0.00  0.00    -0.237 N 
ATOM     13  N   UNL     1      35.854 -25.114 -10.737  0.00  0.00    -0.233 NA
ATOM     14  C   UNL     1      37.616 -24.300 -13.758  0.00  0.00    +0.158 C 
ATOM     15  C   UNL     1      38.013 -25.755 -13.552  0.00  0.00    +0.037 C 
ATOM     16  C   UNL     1      36.940 -26.319 -12.617  0.00  0.00    +0.064 C 
ATOM     17  C   UNL     1      36.506 -25.105 -11.852  0.00  0.00    +0.115 C 
ATOM     18  C   UNL     1      36.679 -22.690 -12.061  0.00  0.00    +0.256 C 
ATOM     19  C   UNL     1      35.926 -22.692 -10.780  0.00  0.00    +0.079 C 
ATOM     20  C   UNL     1      35.578 -23.865 -10.230  0.00  0.00    +0.105 C 
ENDBRANCH   9  14
ENDBRANCH   4   8
BRANCH   1  21
ATOM     21  C   UNL     1      33.517 -20.738 -19.644  0.00  0.00    +0.005 C 
BRANCH  21  24
ATOM     22  N   UNL     1      33.943 -18.646 -20.905  0.00  0.00    +0.388 N 
ATOM     23  C   UNL     1      35.068 -18.024 -21.620  0.00  0.00    -0.030 C 
ATOM     24  C   UNL     1      34.366 -20.038 -20.694  0.00  0.00    -0.057 C 
ATOM     25  C   UNL     1      36.324 -18.683 -21.050  0.00  0.00    -0.021 C 
ATOM     26  C   UNL     1      35.826 -19.903 -20.285  0.00  0.00    -0.023 C 
ATOM     27  H   UNL     1      33.094 -18.610 -21.469  0.00  0.00    -0.084 HD
ATOM     28  H   UNL     1      33.728 -18.168 -20.030  0.00  0.00    -0.084 HD
BRANCH  23  29
ATOM     29  C   UNL     1      35.068 -16.510 -21.464  0.00  0.00    +0.113 C 
BRANCH  29  30
ATOM     30  C   UNL     1      34.372 -15.818 -22.614  0.00  0.00    +0.002 C 
ATOM     31  C   UNL     1      34.165 -16.495 -23.816  0.00  0.00    -0.002 C 
ATOM     32  C   UNL     1      33.936 -14.500 -22.473  0.00  0.00    -0.002 C 
ATOM     33  C   UNL     1      33.524 -15.856 -24.875  0.00  0.00    -0.000 C 
ATOM     34  C   UNL     1      33.295 -13.860 -23.533  0.00  0.00    -0.000 C 
ATOM     35  C   UNL     1      33.088 -14.538 -24.734  0.00  0.00    -0.000 C 
ENDBRANCH  29  30
BRANCH  29  36
ATOM     36  O   UNL     1      34.420 -16.152 -20.244  0.00  0.00    -0.382 OA
ATOM     37  H   UNL     1      34.454 -15.189 -20.131  0.00  0.00    +0.211 HD
ENDBRANCH  29  36
ENDBRANCH  23  29
ENDBRANCH  21  24
ENDBRANCH   1  21
TORSDOF 7
ENDMDL
MODEL 5
REMARK VINA RESULT:     -12.7      4.667     12.763
REMARK  Name = 44472635
REMARK  7 active torsions:
REMARK  status: ('A' for Active; 'I' for Inactive)
REMARK    1  A    between atoms: C_1  and  C_21
REMARK    2  A    between atoms: C_4  and  N_8
REMARK    3  A    between atoms: C_9  and  C_14
REMARK    4  A    between atoms: C_21  and  C_24
REMARK    5  A    between atoms: C_23  and  C_29
REMARK    6  A    between atoms: C_29  and  C_30
REMARK    7  A    between atoms: C_29  and  O_36
REMARK                            x       y       z     vdW  Elec       q    Type
REMARK                         _______ _______ _______ _____ _____    ______ ____
ROOT
ATOM      1  C   UNL     1      32.812 -21.297 -18.908  0.00  0.00    -0.024 C 
ATOM      2  C   UNL     1      34.144 -21.656 -18.703  0.00  0.00    -0.003 C 
ATOM      3  C   UNL     1      31.838 -21.673 -17.983  0.00  0.00    -0.003 C 
ATOM      4  C   UNL     1      33.527 -22.767 -16.648  0.00  0.00    +0.050 C 
ATOM      5  C   UNL     1      34.502 -22.392 -17.573  0.00  0.00    +0.014 C 
ATOM      6  C   UNL     1      32.195 -22.407 -16.853  0.00  0.00    +0.014 C 
ENDROOT
BRANCH   4   8
ATOM      7  O   UNL     1      35.169 -21.987 -14.247  0.00  0.00    -0.273 OA
ATOM      8  N   UNL     1      33.890 -23.513 -15.501  0.00  0.00    -0.283 N 
ATOM      9  C   UNL     1      34.656 -23.088 -14.425  0.00  0.00    +0.245 C 
ATOM     10  H   UNL     1      33.561 -24.440 -15.463  0.00  0.00    +0.155 HD
BRANCH   9  14
ATOM     11  O   UNL     1      35.847 -26.157 -15.361  0.00  0.00    -0.269 OA
ATOM     12  N   UNL     1      36.151 -24.713 -13.560  0.00  0.00    -0.237 N 
ATOM     13  N   UNL     1      38.270 -24.500 -12.487  0.00  0.00    -0.233 NA
ATOM     14  C   UNL     1      34.814 -24.179 -13.409  0.00  0.00    +0.158 C 
ATOM     15  C   UNL     1      34.806 -23.632 -11.989  0.00  0.00    +0.037 C 
ATOM     16  C   UNL     1      36.264 -23.257 -11.711  0.00  0.00    +0.064 C 
ATOM     17  C   UNL     1      37.016 -24.206 -12.595  0.00  0.00    +0.115 C 
ATOM     18  C   UNL     1      36.552 -25.640 -14.501  0.00  0.00    +0.256 C 
ATOM     19  C   UNL     1      37.994 -25.981 -14.385  0.00  0.00    +0.079 C 
ATOM     20  C   UNL     1      38.724 -25.403 -13.419  0.00  0.00    +0.105 C 
ENDBRANCH   9  14
ENDBRANCH   4   8
BRANCH   1  21
ATOM     21  C   UNL     1      32.428 -20.513 -20.117  0.00  0.00    +0.005 C 
BRANCH  21  24
ATOM     22  N   UNL     1      33.549 -18.621 -21.263  0.00  0.00    +0.388 N 
ATOM     23  C   UNL     1      34.917 -18.254 -21.657  0.00  0.00    -0.030 C 
ATOM     24  C   UNL     1      33.637 -20.046 -20.911  0.00  0.00    -0.057 C 
ATOM     25  C   UNL     1      35.835 -19.073 -20.749  0.00  0.00    -0.021 C 
ATOM     26  C   UNL     1      34.936 -20.132 -20.121  0.00  0.00    -0.023 C 
ATOM     27  H   UNL     1      32.901 -18.482 -22.038  0.00  0.00    -0.084 HD
ATOM     28  H   UNL     1      33.201 -18.052 -20.492  0.00  0.00    -0.084 HD
BRANCH  23  29
ATOM     29  C   UNL     1      35.154 -16.754 -21.543  0.00  0.00    +0.113 C 
BRANCH  29  30
ATOM     30  C   UNL     1      34.446 -15.980 -22.632  0.00  0.00    +0.002 C 
ATOM     31  C   UNL     1      34.175 -16.588 -23.858  0.00  0.00    -0.002 C 
ATOM     32  C   UNL     1      34.064 -14.657 -22.410  0.00  0.00    -0.002 C 
ATOM     33  C   UNL     1      33.523 -15.873 -24.862  0.00  0.00    -0.000 C 
ATOM     34  C   UNL     1      33.412 -13.941 -23.414  0.00  0.00    -0.000 C 
ATOM     35  C   UNL     1      33.141 -14.549 -24.640  0.00  0.00    -0.000 C 
ENDBRANCH  29  30
BRANCH  29  36
ATOM     36  O   UNL     1      34.701 -16.290 -20.272  0.00  0.00    -0.382 OA
ATOM     37  H   UNL     1      33.753 -16.089 -20.320  0.00  0.00    +0.211 HD
ENDBRANCH  29  36
ENDBRANCH  23  29
ENDBRANCH  21  24
ENDBRANCH   1  21
TORSDOF 7
ENDMDL
MODEL 6
REMARK VINA RESULT:     -12.4      2.543      4.111
REMARK  Name = 44472635
REMARK  7 active torsions:
REMARK  status: ('A' for Active; 'I' for Inactive)
REMARK    1  A    between atoms: C_1  and  C_21
REMARK    2  A    between atoms: C_4  and  N_8
REMARK    3  A    between atoms: C_9  and  C_14
REMARK    4  A    between atoms: C_21  and  C_24
REMARK    5  A    between atoms: C_23  and  C_29
REMARK    6  A    between atoms: C_29  and  C_30
REMARK    7  A    between atoms: C_29  and  O_36
REMARK                            x       y       z     vdW  Elec       q    Type
REMARK                         _______ _______ _______ _____ _____    ______ ____
ROOT
ATOM      1  C   UNL     1      32.919 -12.639 -21.767  0.00  0.00    -0.024 C 
ATOM      2  C   UNL     1      33.362 -11.898 -22.863  0.00  0.00    -0.003 C 
ATOM      3  C   UNL     1      31.799 -12.220 -21.048  0.00  0.00    -0.003 C 
ATOM      4  C   UNL     1      31.565 -10.319 -22.520  0.00  0.00    +0.050 C 
ATOM      5  C   UNL     1      32.685 -10.737 -23.239  0.00  0.00    +0.014 C 
ATOM      6  C   UNL     1      31.122 -11.060 -21.425  0.00  0.00    +0.014 C 
ENDROOT
BRANCH   4   8
ATOM      7  O   UNL     1      32.273  -7.421 -22.109  0.00  0.00    -0.273 OA
ATOM      8  N   UNL     1      30.878  -9.142 -22.902  0.00  0.00    -0.283 N 
ATOM      9  C   UNL     1      31.263  -7.828 -22.677  0.00  0.00    +0.245 C 
ATOM     10  H   UNL     1      30.028  -9.271 -23.383  0.00  0.00    +0.155 HD
BRANCH   9  14
ATOM     11  O   UNL     1      30.335  -5.062 -20.888  0.00  0.00    -0.269 OA
ATOM     12  N   UNL     1      30.824  -5.539 -23.113  0.00  0.00    -0.237 N 
ATOM     13  N   UNL     1      31.935  -3.954 -24.505  0.00  0.00    -0.233 NA
ATOM     14  C   UNL     1      30.260  -6.866 -23.239  0.00  0.00    +0.158 C 
ATOM     15  C   UNL     1      30.091  -7.042 -24.741  0.00  0.00    +0.037 C 
ATOM     16  C   UNL     1      31.180  -6.160 -25.358  0.00  0.00    +0.064 C 
ATOM     17  C   UNL     1      31.362  -5.097 -24.318  0.00  0.00    +0.115 C 
ATOM     18  C   UNL     1      30.815  -4.759 -21.974  0.00  0.00    +0.256 C 
ATOM     19  C   UNL     1      31.476  -3.444 -22.180  0.00  0.00    +0.079 C 
ATOM     20  C   UNL     1      31.974  -3.148 -23.391  0.00  0.00    +0.105 C 
ENDBRANCH   9  14
ENDBRANCH   4   8
BRANCH   1  21
ATOM     21  C   UNL     1      33.643 -13.878 -21.363  0.00  0.00    +0.005 C 
BRANCH  21  24
ATOM     22  N   UNL     1      34.434 -16.053 -22.254  0.00  0.00    +0.388 N 
ATOM     23  C   UNL     1      34.593 -16.689 -23.571  0.00  0.00    -0.030 C 
ATOM     24  C   UNL     1      34.209 -14.632 -22.556  0.00  0.00    -0.057 C 
ATOM     25  C   UNL     1      33.646 -15.933 -24.503  0.00  0.00    -0.021 C 
ATOM     26  C   UNL     1      33.255 -14.672 -23.741  0.00  0.00    -0.023 C 
ATOM     27  H   UNL     1      35.277 -16.172 -21.692  0.00  0.00    -0.084 HD
ATOM     28  H   UNL     1      33.670 -16.461 -21.716  0.00  0.00    -0.084 HD
BRANCH  23  29
ATOM     29  C   UNL     1      34.306 -18.182 -23.515  0.00  0.00    +0.113 C 
BRANCH  29  30
ATOM     30  C   UNL     1      34.735 -18.798 -22.202  0.00  0.00    +0.002 C 
ATOM     31  C   UNL     1      36.032 -18.599 -21.728  0.00  0.00    -0.002 C 
ATOM     32  C   UNL     1      33.834 -19.566 -21.465  0.00  0.00    -0.002 C 
ATOM     33  C   UNL     1      36.427 -19.167 -20.518  0.00  0.00    -0.000 C 
ATOM     34  C   UNL     1      34.229 -20.135 -20.254  0.00  0.00    -0.000 C 
ATOM     35  C   UNL     1      35.526 -19.936 -19.781  0.00  0.00    -0.000 C 
ENDBRANCH  29  30
BRANCH  29  36
ATOM     36  O   UNL     1      32.910 -18.411 -23.702  0.00  0.00    -0.382 OA
ATOM     37  H   UNL     1      32.570 -17.804 -24.377  0.00  0.00    +0.211 HD
ENDBRANCH  29  36
ENDBRANCH  23  29
ENDBRANCH  21  24
ENDBRANCH   1  21
TORSDOF 7
ENDMDL
MODEL 7
REMARK VINA RESULT:     -12.0      2.549      4.479
REMARK  Name = 44472635
REMARK  7 active torsions:
REMARK  status: ('A' for Active; 'I' for Inactive)
REMARK    1  A    between atoms: C_1  and  C_21
REMARK    2  A    between atoms: C_4  and  N_8
REMARK    3  A    between atoms: C_9  and  C_14
REMARK    4  A    between atoms: C_21  and  C_24
REMARK    5  A    between atoms: C_23  and  C_29
REMARK    6  A    between atoms: C_29  and  C_30
REMARK    7  A    between atoms: C_29  and  O_36
REMARK                            x       y       z     vdW  Elec       q    Type
REMARK                         _______ _______ _______ _____ _____    ______ ____
ROOT
ATOM      1  C   UNL     1      32.734 -12.509 -21.788  0.00  0.00    -0.024 C 
ATOM      2  C   UNL     1      31.674 -11.961 -21.065  0.00  0.00    -0.003 C 
ATOM      3  C   UNL     1      33.252 -11.827 -22.889  0.00  0.00    -0.003 C 
ATOM      4  C   UNL     1      31.652 -10.050 -22.544  0.00  0.00    +0.050 C 
ATOM      5  C   UNL     1      31.133 -10.732 -21.443  0.00  0.00    +0.014 C 
ATOM      6  C   UNL     1      32.712 -10.598 -23.267  0.00  0.00    +0.014 C 
ENDROOT
BRANCH   4   8
ATOM      7  O   UNL     1      32.160  -7.281 -21.477  0.00  0.00    -0.273 OA
ATOM      8  N   UNL     1      31.104  -8.804 -22.927  0.00  0.00    -0.283 N 
ATOM      9  C   UNL     1      31.383  -7.556 -22.388  0.00  0.00    +0.245 C 
ATOM     10  H   UNL     1      30.448  -8.824 -23.662  0.00  0.00    +0.155 HD
BRANCH   9  14
ATOM     11  O   UNL     1      32.308  -4.275 -22.082  0.00  0.00    -0.269 OA
ATOM     12  N   UNL     1      31.536  -5.652 -23.792  0.00  0.00    -0.237 N 
ATOM     13  N   UNL     1      32.313  -5.399 -26.033  0.00  0.00    -0.233 NA
ATOM     14  C   UNL     1      30.594  -6.481 -23.072  0.00  0.00    +0.158 C 
ATOM     15  C   UNL     1      29.704  -7.048 -24.170  0.00  0.00    +0.037 C 
ATOM     16  C   UNL     1      30.599  -7.085 -25.411  0.00  0.00    +0.064 C 
ATOM     17  C   UNL     1      31.565  -5.970 -25.147  0.00  0.00    +0.115 C 
ATOM     18  C   UNL     1      32.300  -4.636 -23.253  0.00  0.00    +0.256 C 
ATOM     19  C   UNL     1      33.166  -3.977 -24.265  0.00  0.00    +0.079 C 
ATOM     20  C   UNL     1      33.112  -4.394 -25.539  0.00  0.00    +0.105 C 
ENDBRANCH   9  14
ENDBRANCH   4   8
BRANCH   1  21
ATOM     21  C   UNL     1      33.311 -13.824 -21.386  0.00  0.00    +0.005 C 
BRANCH  21  24
ATOM     22  N   UNL     1      34.273 -15.940 -22.248  0.00  0.00    +0.388 N 
ATOM     23  C   UNL     1      34.580 -16.534 -23.558  0.00  0.00    -0.030 C 
ATOM     24  C   UNL     1      34.016 -14.522 -22.538  0.00  0.00    -0.057 C 
ATOM     25  C   UNL     1      33.690 -15.793 -24.557  0.00  0.00    -0.021 C 
ATOM     26  C   UNL     1      33.177 -14.570 -23.807  0.00  0.00    -0.023 C 
ATOM     27  H   UNL     1      35.065 -16.039 -21.614  0.00  0.00    -0.084 HD
ATOM     28  H   UNL     1      33.482 -16.393 -21.793  0.00  0.00    -0.084 HD
BRANCH  23  29
ATOM     29  C   UNL     1      34.353 -18.039 -23.563  0.00  0.00    +0.113 C 
BRANCH  29  30
ATOM     30  C   UNL     1      34.792 -18.686 -22.269  0.00  0.00    +0.002 C 
ATOM     31  C   UNL     1      33.898 -19.474 -21.544  0.00  0.00    -0.002 C 
ATOM     32  C   UNL     1      36.092 -18.495 -21.800  0.00  0.00    -0.002 C 
ATOM     33  C   UNL     1      34.303 -20.070 -20.351  0.00  0.00    -0.000 C 
ATOM     34  C   UNL     1      36.497 -19.091 -20.605  0.00  0.00    -0.000 C 
ATOM     35  C   UNL     1      35.602 -19.879 -19.881  0.00  0.00    -0.000 C 
ENDBRANCH  29  30
BRANCH  29  36
ATOM     36  O   UNL     1      32.970 -18.317 -23.777  0.00  0.00    -0.382 OA
ATOM     37  H   UNL     1      32.432 -17.684 -23.277  0.00  0.00    +0.211 HD
ENDBRANCH  29  36
ENDBRANCH  23  29
ENDBRANCH  21  24
ENDBRANCH   1  21
TORSDOF 7
ENDMDL
MODEL 8
REMARK VINA RESULT:     -12.0      4.448     12.347
REMARK  Name = 44472635
REMARK  7 active torsions:
REMARK  status: ('A' for Active; 'I' for Inactive)
REMARK    1  A    between atoms: C_1  and  C_21
REMARK    2  A    between atoms: C_4  and  N_8
REMARK    3  A    between atoms: C_9  and  C_14
REMARK    4  A    between atoms: C_21  and  C_24
REMARK    5  A    between atoms: C_23  and  C_29
REMARK    6  A    between atoms: C_29  and  C_30
REMARK    7  A    between atoms: C_29  and  O_36
REMARK                            x       y       z     vdW  Elec       q    Type
REMARK                         _______ _______ _______ _____ _____    ______ ____
ROOT
ATOM      1  C   UNL     1      34.245 -20.651 -19.577  0.00  0.00    -0.024 C 
ATOM      2  C   UNL     1      33.583 -21.479 -18.671  0.00  0.00    -0.003 C 
ATOM      3  C   UNL     1      35.622 -20.456 -19.465  0.00  0.00    -0.003 C 
ATOM      4  C   UNL     1      35.675 -21.918 -17.544  0.00  0.00    +0.050 C 
ATOM      5  C   UNL     1      34.298 -22.113 -17.654  0.00  0.00    +0.014 C 
ATOM      6  C   UNL     1      36.337 -21.090 -18.450  0.00  0.00    +0.014 C 
ENDROOT
BRANCH   4   8
ATOM      7  O   UNL     1      35.136 -22.087 -14.586  0.00  0.00    -0.273 OA
ATOM      8  N   UNL     1      36.400 -22.561 -16.513  0.00  0.00    -0.283 N 
ATOM      9  C   UNL     1      36.093 -22.598 -15.160  0.00  0.00    +0.245 C 
ATOM     10  H   UNL     1      37.217 -23.038 -16.788  0.00  0.00    +0.155 HD
BRANCH   9  14
ATOM     11  O   UNL     1      37.371 -21.377 -12.229  0.00  0.00    -0.269 OA
ATOM     12  N   UNL     1      36.663 -23.448 -13.021  0.00  0.00    -0.237 N 
ATOM     13  N   UNL     1      35.559 -25.007 -11.594  0.00  0.00    -0.233 NA
ATOM     14  C   UNL     1      37.114 -23.385 -14.395  0.00  0.00    +0.158 C 
ATOM     15  C   UNL     1      37.143 -24.843 -14.829  0.00  0.00    +0.037 C 
ATOM     16  C   UNL     1      36.074 -25.523 -13.968  0.00  0.00    +0.064 C 
ATOM     17  C   UNL     1      36.060 -24.669 -12.737  0.00  0.00    +0.115 C 
ATOM     18  C   UNL     1      36.825 -22.462 -12.068  0.00  0.00    +0.256 C 
ATOM     19  C   UNL     1      36.249 -22.842 -10.752  0.00  0.00    +0.079 C 
ATOM     20  C   UNL     1      35.674 -24.047 -10.617  0.00  0.00    +0.105 C 
ENDBRANCH   9  14
ENDBRANCH   4   8
BRANCH   1  21
ATOM     21  C   UNL     1      33.481 -19.971 -20.662  0.00  0.00    +0.005 C 
BRANCH  21  24
ATOM     22  N   UNL     1      33.623 -18.477 -22.636  0.00  0.00    +0.388 N 
ATOM     23  C   UNL     1      34.594 -17.533 -23.209  0.00  0.00    -0.030 C 
ATOM     24  C   UNL     1      34.388 -19.223 -21.626  0.00  0.00    -0.057 C 
ATOM     25  C   UNL     1      35.503 -17.130 -22.048  0.00  0.00    -0.021 C 
ATOM     26  C   UNL     1      35.217 -18.143 -20.945  0.00  0.00    -0.023 C 
ATOM     27  H   UNL     1      33.266 -19.107 -23.354  0.00  0.00    -0.084 HD
ATOM     28  H   UNL     1      32.812 -18.005 -22.238  0.00  0.00    -0.084 HD
BRANCH  23  29
ATOM     29  C   UNL     1      33.906 -16.344 -23.864  0.00  0.00    +0.113 C 
BRANCH  29  30
ATOM     30  C   UNL     1      33.840 -15.145 -22.945  0.00  0.00    +0.002 C 
ATOM     31  C   UNL     1      33.795 -13.857 -23.480  0.00  0.00    -0.002 C 
ATOM     32  C   UNL     1      33.825 -15.326 -21.562  0.00  0.00    -0.002 C 
ATOM     33  C   UNL     1      33.734 -12.752 -22.632  0.00  0.00    -0.000 C 
ATOM     34  C   UNL     1      33.765 -14.221 -20.714  0.00  0.00    -0.000 C 
ATOM     35  C   UNL     1      33.719 -12.934 -21.249  0.00  0.00    -0.000 C 
ENDBRANCH  29  30
BRANCH  29  36
ATOM     36  O   UNL     1      34.603 -15.979 -25.055  0.00  0.00    -0.382 OA
ATOM     37  H   UNL     1      35.470 -15.613 -24.823  0.00  0.00    +0.211 HD
ENDBRANCH  29  36
ENDBRANCH  23  29
ENDBRANCH  21  24
ENDBRANCH   1  21
TORSDOF 7
ENDMDL
MODEL 9
REMARK VINA RESULT:     -11.9      1.375      2.721
REMARK  Name = 44472635
REMARK  7 active torsions:
REMARK  status: ('A' for Active; 'I' for Inactive)
REMARK    1  A    between atoms: C_1  and  C_21
REMARK    2  A    between atoms: C_4  and  N_8
REMARK    3  A    between atoms: C_9  and  C_14
REMARK    4  A    between atoms: C_21  and  C_24
REMARK    5  A    between atoms: C_23  and  C_29
REMARK    6  A    between atoms: C_29  and  C_30
REMARK    7  A    between atoms: C_29  and  O_36
REMARK                            x       y       z     vdW  Elec       q    Type
REMARK                         _______ _______ _______ _____ _____    ______ ____
ROOT
ATOM      1  C   UNL     1      34.114 -15.347 -22.615  0.00  0.00    -0.024 C 
ATOM      2  C   UNL     1      33.775 -14.516 -23.683  0.00  0.00    -0.003 C 
ATOM      3  C   UNL     1      34.068 -14.858 -21.309  0.00  0.00    -0.003 C 
ATOM      4  C   UNL     1      33.343 -12.708 -22.140  0.00  0.00    +0.050 C 
ATOM      5  C   UNL     1      33.390 -13.197 -23.446  0.00  0.00    +0.014 C 
ATOM      6  C   UNL     1      33.682 -13.539 -21.071  0.00  0.00    +0.014 C 
ENDROOT
BRANCH   4   8
ATOM      7  O   UNL     1      32.395 -10.575 -24.041  0.00  0.00    -0.273 OA
ATOM      8  N   UNL     1      32.951 -11.370 -21.898  0.00  0.00    -0.283 N 
ATOM      9  C   UNL     1      32.524 -10.434 -22.829  0.00  0.00    +0.245 C 
ATOM     10  H   UNL     1      32.987 -11.069 -20.961  0.00  0.00    +0.155 HD
BRANCH   9  14
ATOM     11  O   UNL     1      34.693  -7.797 -23.071  0.00  0.00    -0.269 OA
ATOM     12  N   UNL     1      32.385  -8.091 -23.165  0.00  0.00    -0.237 N 
ATOM     13  N   UNL     1      31.029  -6.781 -24.625  0.00  0.00    -0.233 NA
ATOM     14  C   UNL     1      32.200  -9.126 -22.171  0.00  0.00    +0.158 C 
ATOM     15  C   UNL     1      30.723  -9.023 -21.818  0.00  0.00    +0.037 C 
ATOM     16  C   UNL     1      30.062  -8.472 -23.084  0.00  0.00    +0.064 C 
ATOM     17  C   UNL     1      31.172  -7.685 -23.713  0.00  0.00    +0.115 C 
ATOM     18  C   UNL     1      33.589  -7.520 -23.527  0.00  0.00    +0.256 C 
ATOM     19  C   UNL     1      33.433  -6.481 -24.578  0.00  0.00    +0.079 C 
ATOM     20  C   UNL     1      32.205  -6.198 -25.036  0.00  0.00    +0.105 C 
ENDBRANCH   9  14
ENDBRANCH   4   8
BRANCH   1  21
ATOM     21  C   UNL     1      34.529 -16.757 -22.869  0.00  0.00    +0.005 C 
BRANCH  21  24
ATOM     22  N   UNL     1      34.163 -18.517 -21.161  0.00  0.00    +0.388 N 
ATOM     23  C   UNL     1      34.982 -19.299 -20.222  0.00  0.00    -0.030 C 
ATOM     24  C   UNL     1      35.054 -17.439 -21.616  0.00  0.00    -0.057 C 
ATOM     25  C   UNL     1      36.401 -19.256 -20.788  0.00  0.00    -0.021 C 
ATOM     26  C   UNL     1      36.381 -18.151 -21.838  0.00  0.00    -0.023 C 
ATOM     27  H   UNL     1      33.344 -18.133 -20.691  0.00  0.00    -0.084 HD
ATOM     28  H   UNL     1      33.813 -19.083 -21.933  0.00  0.00    -0.084 HD
BRANCH  23  29
ATOM     29  C   UNL     1      34.452 -20.716 -20.056  0.00  0.00    +0.113 C 
BRANCH  29  30
ATOM     30  C   UNL     1      34.767 -21.288 -18.693  0.00  0.00    +0.002 C 
ATOM     31  C   UNL     1      33.791 -21.993 -17.988  0.00  0.00    -0.002 C 
ATOM     32  C   UNL     1      36.035 -21.110 -18.138  0.00  0.00    -0.002 C 
ATOM     33  C   UNL     1      34.082 -22.519 -16.731  0.00  0.00    -0.000 C 
ATOM     34  C   UNL     1      36.326 -21.636 -16.880  0.00  0.00    -0.000 C 
ATOM     35  C   UNL     1      35.350 -22.341 -16.176  0.00  0.00    -0.000 C 
ENDBRANCH  29  30
BRANCH  29  36
ATOM     36  O   UNL     1      33.038 -20.727 -20.250  0.00  0.00    -0.382 OA
ATOM     37  H   UNL     1      32.749 -21.627 -20.471  0.00  0.00    +0.211 HD
ENDBRANCH  29  36
ENDBRANCH  23  29
ENDBRANCH  21  24
ENDBRANCH   1  21
TORSDOF 7
ENDMDL
