MODEL 1
REMARK VINA RESULT:     -11.1      0.000      0.000
REMARK  Name = 16122580
REMARK  13 active torsions:
REMARK  status: ('A' for Active; 'I' for Inactive)
REMARK    1  A    between atoms: S_1  and  C_4
REMARK    2  A    between atoms: S_1  and  N_19
REMARK    3  A    between atoms: C_12  and  O_14
REMARK    4  A    between atoms: O_14  and  C_15
REMARK    5  A    between atoms: C_15  and  C_16
REMARK    6  A    between atoms: C_16  and  C_17
REMARK    7  A    between atoms: N_19  and  C_21
REMARK    8  A    between atoms: C_21  and  C_23
REMARK    9  A    between atoms: C_21  and  C_26
REMARK   10  A    between atoms: C_23  and  O_24
REMARK   11  A    between atoms: C_26  and  C_27
REMARK   12  A    between atoms: C_27  and  C_29
REMARK   13  A    between atoms: C_29  and  O_30
REMARK                            x       y       z     vdW  Elec       q    Type
REMARK                         _______ _______ _______ _____ _____    ______ ____
ROOT
ATOM      1  S   UNL     1      35.111 -23.552 -14.880  0.00  0.00    +0.061 S 
ATOM      2  O   UNL     1      34.010 -23.094 -14.055  0.00  0.00    -0.153 OA
ATOM      3  O   UNL     1      35.177 -24.937 -15.306  0.00  0.00    -0.153 OA
ENDROOT
BRANCH   1   4
ATOM      4  C   UNL     1      35.142 -22.561 -16.344  0.00  0.00    +0.122 C 
ATOM      5  C   UNL     1      33.975 -21.565 -18.232  0.00  0.00    +0.002 C 
ATOM      6  C   UNL     1      35.191 -20.989 -18.671  0.00  0.00    +0.003 C 
ATOM      7  C   UNL     1      33.968 -22.349 -17.067  0.00  0.00    +0.020 C 
ATOM      8  C   UNL     1      36.338 -21.995 -16.776  0.00  0.00    +0.020 C 
ATOM      9  C   UNL     1      36.363 -21.213 -17.932  0.00  0.00    +0.001 C 
ATOM     10  C   UNL     1      35.198 -20.205 -19.836  0.00  0.00    +0.037 C 
ATOM     11  C   UNL     1      32.803 -21.340 -18.972  0.00  0.00    +0.003 C 
ATOM     12  C   UNL     1      34.024 -19.992 -20.558  0.00  0.00    +0.139 C 
ATOM     13  C   UNL     1      32.828 -20.559 -20.127  0.00  0.00    +0.037 C 
BRANCH  12  14
ATOM     14  O   UNL     1      34.047 -19.229 -21.685  0.00  0.00    -0.475 OA
BRANCH  14  15
ATOM     15  C   UNL     1      35.216 -18.444 -21.914  0.00  0.00    +0.205 C 
BRANCH  15  16
ATOM     16  C   UNL     1      34.886 -16.981 -21.655  0.00  0.00    +0.047 C 
BRANCH  16  17
ATOM     17  C   UNL     1      34.370 -16.289 -22.914  0.00  0.00    +0.004 C 
ATOM     18  C   UNL     1      34.235 -14.789 -22.709  0.00  0.00    +0.000 C 
ENDBRANCH  16  17
ENDBRANCH  15  16
ENDBRANCH  14  15
ENDBRANCH  12  14
ENDBRANCH   1   4
BRANCH   1  19
ATOM     19  N   UNL     1      36.583 -23.131 -14.142  0.00  0.00    -0.170 NA
ATOM     20  H   UNL     1      36.388 -22.344 -13.523  0.00  0.00    +0.149 HD
BRANCH  19  21
ATOM     21  C   UNL     1      37.318 -24.134 -13.338  0.00  0.00    +0.174 C 
BRANCH  21  23
ATOM     22  O   UNL     1      39.690 -24.224 -13.871  0.00  0.00    -0.249 OA
ATOM     23  C   UNL     1      38.538 -24.556 -14.122  0.00  0.00    +0.330 C 
BRANCH  23  24
ATOM     24  O   UNL     1      38.223 -25.382 -15.154  0.00  0.00    -0.479 OA
ATOM     25  H   UNL     1      38.586 -26.245 -15.191  0.00  0.00    +0.295 HD
ENDBRANCH  23  24
ENDBRANCH  21  23
BRANCH  21  26
ATOM     26  C   UNL     1      37.617 -23.585 -11.939  0.00  0.00    +0.040 C 
BRANCH  26  27
ATOM     27  C   UNL     1      36.464 -22.873 -11.226  0.00  0.00    +0.111 C 
BRANCH  27  29
ATOM     28  O   UNL     1      34.681 -24.465 -10.880  0.00  0.00    -0.250 OA
ATOM     29  C   UNL     1      35.590 -23.791 -10.410  0.00  0.00    +0.314 C 
BRANCH  29  30
ATOM     30  O   UNL     1      35.902 -23.779  -9.091  0.00  0.00    -0.480 OA
ATOM     31  H   UNL     1      35.821 -22.987  -8.597  0.00  0.00    +0.295 HD
ENDBRANCH  29  30
ENDBRANCH  27  29
ENDBRANCH  26  27
ENDBRANCH  21  26
ENDBRANCH  19  21
ENDBRANCH   1  19
TORSDOF 13
ENDMDL
MODEL 2
REMARK VINA RESULT:     -10.8      1.879      2.855
REMARK  Name = 16122580
REMARK  13 active torsions:
REMARK  status: ('A' for Active; 'I' for Inactive)
REMARK    1  A    between atoms: S_1  and  C_4
REMARK    2  A    between atoms: S_1  and  N_19
REMARK    3  A    between atoms: C_12  and  O_14
REMARK    4  A    between atoms: O_14  and  C_15
REMARK    5  A    between atoms: C_15  and  C_16
REMARK    6  A    between atoms: C_16  and  C_17
REMARK    7  A    between atoms: N_19  and  C_21
REMARK    8  A    between atoms: C_21  and  C_23
REMARK    9  A    between atoms: C_21  and  C_26
REMARK   10  A    between atoms: C_23  and  O_24
REMARK   11  A    between atoms: C_26  and  C_27
REMARK   12  A    between atoms: C_27  and  C_29
REMARK   13  A    between atoms: C_29  and  O_30
REMARK                            x       y       z     vdW  Elec       q    Type
REMARK                         _______ _______ _______ _____ _____    ______ ____
ROOT
ATOM      1  S   UNL     1      34.551 -23.212 -15.302  0.00  0.00    +0.061 S 
ATOM      2  O   UNL     1      35.011 -22.372 -14.212  0.00  0.00    -0.153 OA
ATOM      3  O   UNL     1      33.226 -23.800 -15.261  0.00  0.00    -0.153 OA
ENDROOT
BRANCH   1   4
ATOM      4  C   UNL     1      34.651 -22.270 -16.794  0.00  0.00    +0.122 C 
ATOM      5  C   UNL     1      33.548 -21.206 -18.684  0.00  0.00    +0.002 C 
ATOM      6  C   UNL     1      34.807 -20.775 -19.166  0.00  0.00    +0.003 C 
ATOM      7  C   UNL     1      33.488 -21.954 -17.497  0.00  0.00    +0.020 C 
ATOM      8  C   UNL     1      35.888 -21.846 -17.269  0.00  0.00    +0.020 C 
ATOM      9  C   UNL     1      35.967 -21.103 -18.447  0.00  0.00    +0.001 C 
ATOM     10  C   UNL     1      34.868 -20.028 -20.354  0.00  0.00    +0.037 C 
ATOM     11  C   UNL     1      32.388 -20.878 -19.404  0.00  0.00    +0.003 C 
ATOM     12  C   UNL     1      33.705 -19.710 -21.056  0.00  0.00    +0.139 C 
ATOM     13  C   UNL     1      32.467 -20.136 -20.582  0.00  0.00    +0.037 C 
BRANCH  12  14
ATOM     14  O   UNL     1      33.780 -18.984 -22.205  0.00  0.00    -0.475 OA
BRANCH  14  15
ATOM     15  C   UNL     1      35.047 -18.417 -22.532  0.00  0.00    +0.205 C 
BRANCH  15  16
ATOM     16  C   UNL     1      35.233 -17.134 -21.733  0.00  0.00    +0.047 C 
BRANCH  16  17
ATOM     17  C   UNL     1      34.563 -15.944 -22.415  0.00  0.00    +0.004 C 
ATOM     18  C   UNL     1      34.025 -14.951 -21.398  0.00  0.00    +0.000 C 
ENDBRANCH  16  17
ENDBRANCH  15  16
ENDBRANCH  14  15
ENDBRANCH  12  14
ENDBRANCH   1   4
BRANCH   1  19
ATOM     19  N   UNL     1      35.691 -24.441 -15.586  0.00  0.00    -0.170 NA
ATOM     20  H   UNL     1      36.474 -24.009 -16.077  0.00  0.00    +0.149 HD
BRANCH  19  21
ATOM     21  C   UNL     1      36.263 -25.194 -14.448  0.00  0.00    +0.174 C 
BRANCH  21  23
ATOM     22  O   UNL     1      36.136 -27.140 -15.903  0.00  0.00    -0.249 OA
ATOM     23  C   UNL     1      36.641 -26.571 -14.943  0.00  0.00    +0.330 C 
BRANCH  23  24
ATOM     24  O   UNL     1      37.640 -27.123 -14.206  0.00  0.00    -0.479 OA
ATOM     25  H   UNL     1      38.389 -27.489 -14.634  0.00  0.00    +0.295 HD
ENDBRANCH  23  24
ENDBRANCH  21  23
BRANCH  21  26
ATOM     26  C   UNL     1      37.414 -24.408 -13.810  0.00  0.00    +0.040 C 
BRANCH  26  27
ATOM     27  C   UNL     1      38.448 -23.815 -14.769  0.00  0.00    +0.111 C 
BRANCH  27  29
ATOM     28  O   UNL     1      40.690 -24.290 -14.003  0.00  0.00    -0.250 OA
ATOM     29  C   UNL     1      39.769 -24.543 -14.770  0.00  0.00    +0.314 C 
BRANCH  29  30
ATOM     30  O   UNL     1      39.841 -25.500 -15.728  0.00  0.00    -0.480 OA
ATOM     31  H   UNL     1      39.545 -26.371 -15.543  0.00  0.00    +0.295 HD
ENDBRANCH  29  30
ENDBRANCH  27  29
ENDBRANCH  26  27
ENDBRANCH  21  26
ENDBRANCH  19  21
ENDBRANCH   1  19
TORSDOF 13
ENDMDL
MODEL 3
REMARK VINA RESULT:     -10.8      4.390      8.445
REMARK  Name = 16122580
REMARK  13 active torsions:
REMARK  status: ('A' for Active; 'I' for Inactive)
REMARK    1  A    between atoms: S_1  and  C_4
REMARK    2  A    between atoms: S_1  and  N_19
REMARK    3  A    between atoms: C_12  and  O_14
REMARK    4  A    between atoms: O_14  and  C_15
REMARK    5  A    between atoms: C_15  and  C_16
REMARK    6  A    between atoms: C_16  and  C_17
REMARK    7  A    between atoms: N_19  and  C_21
REMARK    8  A    between atoms: C_21  and  C_23
REMARK    9  A    between atoms: C_21  and  C_26
REMARK   10  A    between atoms: C_23  and  O_24
REMARK   11  A    between atoms: C_26  and  C_27
REMARK   12  A    between atoms: C_27  and  C_29
REMARK   13  A    between atoms: C_29  and  O_30
REMARK                            x       y       z     vdW  Elec       q    Type
REMARK                         _______ _______ _______ _____ _____    ______ ____
ROOT
ATOM      1  S   UNL     1      35.535 -18.155 -21.534  0.00  0.00    +0.061 S 
ATOM      2  O   UNL     1      36.326 -18.604 -22.663  0.00  0.00    -0.153 OA
ATOM      3  O   UNL     1      36.165 -17.926 -20.247  0.00  0.00    -0.153 OA
ENDROOT
BRANCH   1   4
ATOM      4  C   UNL     1      34.738 -16.645 -21.993  0.00  0.00    +0.122 C 
ATOM      5  C   UNL     1      33.566 -14.611 -21.357  0.00  0.00    +0.002 C 
ATOM      6  C   UNL     1      33.471 -14.248 -22.721  0.00  0.00    +0.003 C 
ATOM      7  C   UNL     1      34.202 -15.814 -21.010  0.00  0.00    +0.020 C 
ATOM      8  C   UNL     1      34.644 -16.288 -23.335  0.00  0.00    +0.020 C 
ATOM      9  C   UNL     1      34.015 -15.097 -23.698  0.00  0.00    +0.001 C 
ATOM     10  C   UNL     1      32.834 -13.045 -23.069  0.00  0.00    +0.037 C 
ATOM     11  C   UNL     1      33.021 -13.761 -20.381  0.00  0.00    +0.003 C 
ATOM     12  C   UNL     1      32.299 -12.212 -22.086  0.00  0.00    +0.139 C 
ATOM     13  C   UNL     1      32.393 -12.571 -20.744  0.00  0.00    +0.037 C 
BRANCH  12  14
ATOM     14  O   UNL     1      31.686 -11.049 -22.439  0.00  0.00    -0.475 OA
BRANCH  14  15
ATOM     15  C   UNL     1      30.853 -10.431 -21.460  0.00  0.00    +0.205 C 
BRANCH  15  16
ATOM     16  C   UNL     1      31.225  -8.959 -21.355  0.00  0.00    +0.047 C 
BRANCH  16  17
ATOM     17  C   UNL     1      31.395  -8.523 -19.902  0.00  0.00    +0.004 C 
ATOM     18  C   UNL     1      31.275  -9.701 -18.949  0.00  0.00    +0.000 C 
ENDBRANCH  16  17
ENDBRANCH  15  16
ENDBRANCH  14  15
ENDBRANCH  12  14
ENDBRANCH   1   4
BRANCH   1  19
ATOM     19  N   UNL     1      34.211 -19.199 -21.321  0.00  0.00    -0.170 NA
ATOM     20  H   UNL     1      34.268 -19.902 -22.058  0.00  0.00    +0.149 HD
BRANCH  19  21
ATOM     21  C   UNL     1      34.046 -19.931 -20.044  0.00  0.00    +0.174 C 
BRANCH  21  23
ATOM     22  O   UNL     1      31.739 -20.158 -20.781  0.00  0.00    -0.249 OA
ATOM     23  C   UNL     1      32.604 -20.367 -19.939  0.00  0.00    +0.330 C 
BRANCH  23  24
ATOM     24  O   UNL     1      32.359 -21.053 -18.792  0.00  0.00    -0.479 OA
ATOM     25  H   UNL     1      32.138 -20.590 -18.008  0.00  0.00    +0.295 HD
ENDBRANCH  23  24
ENDBRANCH  21  23
BRANCH  21  26
ATOM     26  C   UNL     1      35.066 -21.071 -19.946  0.00  0.00    +0.040 C 
BRANCH  26  27
ATOM     27  C   UNL     1      36.077 -20.983 -18.800  0.00  0.00    +0.111 C 
BRANCH  27  29
ATOM     28  O   UNL     1      34.581 -22.285 -17.421  0.00  0.00    -0.250 OA
ATOM     29  C   UNL     1      35.605 -21.619 -17.517  0.00  0.00    +0.314 C 
BRANCH  29  30
ATOM     30  O   UNL     1      36.426 -21.362 -16.469  0.00  0.00    -0.480 OA
ATOM     31  H   UNL     1      36.772 -20.500 -16.345  0.00  0.00    +0.295 HD
ENDBRANCH  29  30
ENDBRANCH  27  29
ENDBRANCH  26  27
ENDBRANCH  21  26
ENDBRANCH  19  21
ENDBRANCH   1  19
TORSDOF 13
ENDMDL
MODEL 4
REMARK VINA RESULT:     -10.8      1.181      3.059
REMARK  Name = 16122580
REMARK  13 active torsions:
REMARK  status: ('A' for Active; 'I' for Inactive)
REMARK    1  A    between atoms: S_1  and  C_4
REMARK    2  A    between atoms: S_1  and  N_19
REMARK    3  A    between atoms: C_12  and  O_14
REMARK    4  A    between atoms: O_14  and  C_15
REMARK    5  A    between atoms: C_15  and  C_16
REMARK    6  A    between atoms: C_16  and  C_17
REMARK    7  A    between atoms: N_19  and  C_21
REMARK    8  A    between atoms: C_21  and  C_23
REMARK    9  A    between atoms: C_21  and  C_26
REMARK   10  A    between atoms: C_23  and  O_24
REMARK   11  A    between atoms: C_26  and  C_27
REMARK   12  A    between atoms: C_27  and  C_29
REMARK   13  A    between atoms: C_29  and  O_30
REMARK                            x       y       z     vdW  Elec       q    Type
REMARK                         _______ _______ _______ _____ _____    ______ ____
ROOT
ATOM      1  S   UNL     1      35.410 -23.757 -13.975  0.00  0.00    +0.061 S 
ATOM      2  O   UNL     1      34.177 -23.441 -13.281  0.00  0.00    -0.153 OA
ATOM      3  O   UNL     1      35.730 -25.132 -14.307  0.00  0.00    -0.153 OA
ENDROOT
BRANCH   1   4
ATOM      4  C   UNL     1      35.431 -22.844 -15.490  0.00  0.00    +0.122 C 
ATOM      5  C   UNL     1      34.271 -22.031 -17.468  0.00  0.00    +0.002 C 
ATOM      6  C   UNL     1      35.461 -21.397 -17.896  0.00  0.00    +0.003 C 
ATOM      7  C   UNL     1      34.273 -22.752 -16.262  0.00  0.00    +0.020 C 
ATOM      8  C   UNL     1      36.601 -22.221 -15.911  0.00  0.00    +0.020 C 
ATOM      9  C   UNL     1      36.618 -21.501 -17.106  0.00  0.00    +0.001 C 
ATOM     10  C   UNL     1      35.460 -20.677 -19.102  0.00  0.00    +0.037 C 
ATOM     11  C   UNL     1      33.115 -21.926 -18.258  0.00  0.00    +0.003 C 
ATOM     12  C   UNL     1      34.302 -20.582 -19.874  0.00  0.00    +0.139 C 
ATOM     13  C   UNL     1      33.132 -21.207 -19.452  0.00  0.00    +0.037 C 
BRANCH  12  14
ATOM     14  O   UNL     1      34.317 -19.879 -21.039  0.00  0.00    -0.475 OA
BRANCH  14  15
ATOM     15  C   UNL     1      35.351 -18.910 -21.200  0.00  0.00    +0.205 C 
BRANCH  15  16
ATOM     16  C   UNL     1      35.250 -18.310 -22.595  0.00  0.00    +0.047 C 
BRANCH  16  17
ATOM     17  C   UNL     1      34.676 -16.896 -22.560  0.00  0.00    +0.004 C 
ATOM     18  C   UNL     1      34.519 -16.394 -21.134  0.00  0.00    +0.000 C 
ENDBRANCH  16  17
ENDBRANCH  15  16
ENDBRANCH  14  15
ENDBRANCH  12  14
ENDBRANCH   1   4
BRANCH   1  19
ATOM     19  N   UNL     1      36.722 -23.073 -13.137  0.00  0.00    -0.170 NA
ATOM     20  H   UNL     1      36.355 -22.278 -12.615  0.00  0.00    +0.149 HD
BRANCH  19  21
ATOM     21  C   UNL     1      37.494 -23.895 -12.178  0.00  0.00    +0.174 C 
BRANCH  21  23
ATOM     22  O   UNL     1      36.114 -23.721 -10.182  0.00  0.00    -0.249 OA
ATOM     23  C   UNL     1      36.541 -24.389 -11.115  0.00  0.00    +0.330 C 
BRANCH  23  24
ATOM     24  O   UNL     1      36.179 -25.683 -11.316  0.00  0.00    -0.479 OA
ATOM     25  H   UNL     1      36.536 -26.164 -12.036  0.00  0.00    +0.295 HD
ENDBRANCH  23  24
ENDBRANCH  21  23
BRANCH  21  26
ATOM     26  C   UNL     1      38.258 -25.000 -12.915  0.00  0.00    +0.040 C 
BRANCH  26  27
ATOM     27  C   UNL     1      39.478 -24.560 -13.727  0.00  0.00    +0.111 C 
BRANCH  27  29
ATOM     28  O   UNL     1      40.844 -26.552 -13.779  0.00  0.00    -0.250 OA
ATOM     29  C   UNL     1      40.214 -25.697 -14.390  0.00  0.00    +0.314 C 
BRANCH  29  30
ATOM     30  O   UNL     1      40.124 -25.665 -15.743  0.00  0.00    -0.480 OA
ATOM     31  H   UNL     1      40.094 -24.843 -16.191  0.00  0.00    +0.295 HD
ENDBRANCH  29  30
ENDBRANCH  27  29
ENDBRANCH  26  27
ENDBRANCH  21  26
ENDBRANCH  19  21
ENDBRANCH   1  19
TORSDOF 13
ENDMDL
MODEL 5
REMARK VINA RESULT:     -10.5      4.978      8.478
REMARK  Name = 16122580
REMARK  13 active torsions:
REMARK  status: ('A' for Active; 'I' for Inactive)
REMARK    1  A    between atoms: S_1  and  C_4
REMARK    2  A    between atoms: S_1  and  N_19
REMARK    3  A    between atoms: C_12  and  O_14
REMARK    4  A    between atoms: O_14  and  C_15
REMARK    5  A    between atoms: C_15  and  C_16
REMARK    6  A    between atoms: C_16  and  C_17
REMARK    7  A    between atoms: N_19  and  C_21
REMARK    8  A    between atoms: C_21  and  C_23
REMARK    9  A    between atoms: C_21  and  C_26
REMARK   10  A    between atoms: C_23  and  O_24
REMARK   11  A    between atoms: C_26  and  C_27
REMARK   12  A    between atoms: C_27  and  C_29
REMARK   13  A    between atoms: C_29  and  O_30
REMARK                            x       y       z     vdW  Elec       q    Type
REMARK                         _______ _______ _______ _____ _____    ______ ____
ROOT
ATOM      1  S   UNL     1      35.232 -18.367 -22.388  0.00  0.00    +0.061 S 
ATOM      2  O   UNL     1      34.686 -19.305 -23.349  0.00  0.00    -0.153 OA
ATOM      3  O   UNL     1      36.666 -18.174 -22.288  0.00  0.00    -0.153 OA
ENDROOT
BRANCH   1   4
ATOM      4  C   UNL     1      34.521 -16.781 -22.712  0.00  0.00    +0.122 C 
ATOM      5  C   UNL     1      33.772 -14.610 -21.908  0.00  0.00    +0.002 C 
ATOM      6  C   UNL     1      33.391 -14.262 -23.225  0.00  0.00    +0.003 C 
ATOM      7  C   UNL     1      34.335 -15.874 -21.668  0.00  0.00    +0.020 C 
ATOM      8  C   UNL     1      34.145 -16.438 -24.007  0.00  0.00    +0.020 C 
ATOM      9  C   UNL     1      33.584 -15.187 -24.264  0.00  0.00    +0.001 C 
ATOM     10  C   UNL     1      32.827 -12.998 -23.466  0.00  0.00    +0.037 C 
ATOM     11  C   UNL     1      33.579 -13.685 -20.870  0.00  0.00    +0.003 C 
ATOM     12  C   UNL     1      32.643 -12.091 -22.422  0.00  0.00    +0.139 C 
ATOM     13  C   UNL     1      33.017 -12.434 -21.127  0.00  0.00    +0.037 C 
BRANCH  12  14
ATOM     14  O   UNL     1      32.097 -10.869 -22.671  0.00  0.00    -0.475 OA
BRANCH  14  15
ATOM     15  C   UNL     1      31.057 -10.432 -21.797  0.00  0.00    +0.205 C 
BRANCH  15  16
ATOM     16  C   UNL     1      31.179  -8.927 -21.602  0.00  0.00    +0.047 C 
BRANCH  16  17
ATOM     17  C   UNL     1      31.363  -8.563 -20.132  0.00  0.00    +0.004 C 
ATOM     18  C   UNL     1      31.233  -9.783 -19.235  0.00  0.00    +0.000 C 
ENDBRANCH  16  17
ENDBRANCH  15  16
ENDBRANCH  14  15
ENDBRANCH  12  14
ENDBRANCH   1   4
BRANCH   1  19
ATOM     19  N   UNL     1      34.615 -18.717 -20.843  0.00  0.00    -0.170 NA
ATOM     20  H   UNL     1      33.638 -18.426 -20.843  0.00  0.00    +0.149 HD
BRANCH  19  21
ATOM     21  C   UNL     1      34.646 -20.107 -20.334  0.00  0.00    +0.174 C 
BRANCH  21  23
ATOM     22  O   UNL     1      36.108 -21.221 -18.741  0.00  0.00    -0.249 OA
ATOM     23  C   UNL     1      35.859 -20.252 -19.447  0.00  0.00    +0.330 C 
BRANCH  23  24
ATOM     24  O   UNL     1      36.683 -19.175 -19.527  0.00  0.00    -0.479 OA
ATOM     25  H   UNL     1      36.711 -18.553 -18.827  0.00  0.00    +0.295 HD
ENDBRANCH  23  24
ENDBRANCH  21  23
BRANCH  21  26
ATOM     26  C   UNL     1      33.315 -20.460 -19.660  0.00  0.00    +0.040 C 
BRANCH  26  27
ATOM     27  C   UNL     1      33.057 -21.946 -19.398  0.00  0.00    +0.111 C 
BRANCH  27  29
ATOM     28  O   UNL     1      31.626 -22.234 -17.473  0.00  0.00    -0.250 OA
ATOM     29  C   UNL     1      32.750 -22.269 -17.957  0.00  0.00    +0.314 C 
BRANCH  29  30
ATOM     30  O   UNL     1      33.858 -22.587 -17.243  0.00  0.00    -0.480 OA
ATOM     31  H   UNL     1      34.433 -21.910 -16.943  0.00  0.00    +0.295 HD
ENDBRANCH  29  30
ENDBRANCH  27  29
ENDBRANCH  26  27
ENDBRANCH  21  26
ENDBRANCH  19  21
ENDBRANCH   1  19
TORSDOF 13
ENDMDL
MODEL 6
REMARK VINA RESULT:     -10.5      3.421      5.484
REMARK  Name = 16122580
REMARK  13 active torsions:
REMARK  status: ('A' for Active; 'I' for Inactive)
REMARK    1  A    between atoms: S_1  and  C_4
REMARK    2  A    between atoms: S_1  and  N_19
REMARK    3  A    between atoms: C_12  and  O_14
REMARK    4  A    between atoms: O_14  and  C_15
REMARK    5  A    between atoms: C_15  and  C_16
REMARK    6  A    between atoms: C_16  and  C_17
REMARK    7  A    between atoms: N_19  and  C_21
REMARK    8  A    between atoms: C_21  and  C_23
REMARK    9  A    between atoms: C_21  and  C_26
REMARK   10  A    between atoms: C_23  and  O_24
REMARK   11  A    between atoms: C_26  and  C_27
REMARK   12  A    between atoms: C_27  and  C_29
REMARK   13  A    between atoms: C_29  and  O_30
REMARK                            x       y       z     vdW  Elec       q    Type
REMARK                         _______ _______ _______ _____ _____    ______ ____
ROOT
ATOM      1  S   UNL     1      33.549 -22.923 -17.279  0.00  0.00    +0.061 S 
ATOM      2  O   UNL     1      33.031 -24.130 -17.894  0.00  0.00    -0.153 OA
ATOM      3  O   UNL     1      34.823 -22.947 -16.586  0.00  0.00    -0.153 OA
ENDROOT
BRANCH   1   4
ATOM      4  C   UNL     1      33.667 -21.681 -18.532  0.00  0.00    +0.122 C 
ATOM      5  C   UNL     1      35.026 -20.172 -19.872  0.00  0.00    +0.002 C 
ATOM      6  C   UNL     1      33.857 -19.707 -20.520  0.00  0.00    +0.003 C 
ATOM      7  C   UNL     1      34.913 -21.159 -18.879  0.00  0.00    +0.020 C 
ATOM      8  C   UNL     1      32.518 -21.223 -19.169  0.00  0.00    +0.020 C 
ATOM      9  C   UNL     1      32.610 -20.243 -20.157  0.00  0.00    +0.001 C 
ATOM     10  C   UNL     1      33.968 -18.720 -21.512  0.00  0.00    +0.037 C 
ATOM     11  C   UNL     1      36.272 -19.636 -20.236  0.00  0.00    +0.003 C 
ATOM     12  C   UNL     1      35.215 -18.198 -21.861  0.00  0.00    +0.139 C 
ATOM     13  C   UNL     1      36.364 -18.656 -21.223  0.00  0.00    +0.037 C 
BRANCH  12  14
ATOM     14  O   UNL     1      35.307 -17.243 -22.826  0.00  0.00    -0.475 OA
BRANCH  14  15
ATOM     15  C   UNL     1      34.116 -16.525 -23.145  0.00  0.00    +0.205 C 
BRANCH  15  16
ATOM     16  C   UNL     1      34.471 -15.062 -23.373  0.00  0.00    +0.047 C 
BRANCH  16  17
ATOM     17  C   UNL     1      33.798 -14.153 -22.347  0.00  0.00    +0.004 C 
ATOM     18  C   UNL     1      33.911 -14.720 -20.942  0.00  0.00    +0.000 C 
ENDBRANCH  16  17
ENDBRANCH  15  16
ENDBRANCH  14  15
ENDBRANCH  12  14
ENDBRANCH   1   4
BRANCH   1  19
ATOM     19  N   UNL     1      32.371 -22.266 -16.245  0.00  0.00    -0.170 NA
ATOM     20  H   UNL     1      31.777 -21.666 -16.817  0.00  0.00    +0.149 HD
BRANCH  19  21
ATOM     21  C   UNL     1      31.469 -23.164 -15.489  0.00  0.00    +0.174 C 
BRANCH  21  23
ATOM     22  O   UNL     1      31.582 -23.335 -13.065  0.00  0.00    -0.249 OA
ATOM     23  C   UNL     1      32.118 -23.465 -14.159  0.00  0.00    +0.330 C 
BRANCH  23  24
ATOM     24  O   UNL     1      33.387 -23.928 -14.302  0.00  0.00    -0.479 OA
ATOM     25  H   UNL     1      34.051 -23.372 -14.661  0.00  0.00    +0.295 HD
ENDBRANCH  23  24
ENDBRANCH  21  23
BRANCH  21  26
ATOM     26  C   UNL     1      30.066 -22.555 -15.391  0.00  0.00    +0.040 C 
BRANCH  26  27
ATOM     27  C   UNL     1      28.891 -23.514 -15.598  0.00  0.00    +0.111 C 
BRANCH  27  29
ATOM     28  O   UNL     1      27.171 -23.772 -17.275  0.00  0.00    -0.250 OA
ATOM     29  C   UNL     1      27.875 -23.029 -16.601  0.00  0.00    +0.314 C 
BRANCH  29  30
ATOM     30  O   UNL     1      27.833 -21.677 -16.696  0.00  0.00    -0.480 OA
ATOM     31  H   UNL     1      28.259 -21.244 -17.410  0.00  0.00    +0.295 HD
ENDBRANCH  29  30
ENDBRANCH  27  29
ENDBRANCH  26  27
ENDBRANCH  21  26
ENDBRANCH  19  21
ENDBRANCH   1  19
TORSDOF 13
ENDMDL
MODEL 7
REMARK VINA RESULT:     -10.2      2.848      4.786
REMARK  Name = 16122580
REMARK  13 active torsions:
REMARK  status: ('A' for Active; 'I' for Inactive)
REMARK    1  A    between atoms: S_1  and  C_4
REMARK    2  A    between atoms: S_1  and  N_19
REMARK    3  A    between atoms: C_12  and  O_14
REMARK    4  A    between atoms: O_14  and  C_15
REMARK    5  A    between atoms: C_15  and  C_16
REMARK    6  A    between atoms: C_16  and  C_17
REMARK    7  A    between atoms: N_19  and  C_21
REMARK    8  A    between atoms: C_21  and  C_23
REMARK    9  A    between atoms: C_21  and  C_26
REMARK   10  A    between atoms: C_23  and  O_24
REMARK   11  A    between atoms: C_26  and  C_27
REMARK   12  A    between atoms: C_27  and  C_29
REMARK   13  A    between atoms: C_29  and  O_30
REMARK                            x       y       z     vdW  Elec       q    Type
REMARK                         _______ _______ _______ _____ _____    ______ ____
ROOT
ATOM      1  S   UNL     1      34.555 -23.435 -14.560  0.00  0.00    +0.061 S 
ATOM      2  O   UNL     1      34.306 -24.816 -14.928  0.00  0.00    -0.153 OA
ATOM      3  O   UNL     1      35.609 -23.110 -13.619  0.00  0.00    -0.153 OA
ENDROOT
BRANCH   1   4
ATOM      4  C   UNL     1      34.891 -22.529 -16.041  0.00  0.00    +0.122 C 
ATOM      5  C   UNL     1      34.112 -21.562 -18.133  0.00  0.00    +0.002 C 
ATOM      6  C   UNL     1      35.421 -21.092 -18.394  0.00  0.00    +0.003 C 
ATOM      7  C   UNL     1      33.864 -22.280 -16.952  0.00  0.00    +0.020 C 
ATOM      8  C   UNL     1      36.178 -22.067 -16.298  0.00  0.00    +0.020 C 
ATOM      9  C   UNL     1      36.443 -21.352 -17.466  0.00  0.00    +0.001 C 
ATOM     10  C   UNL     1      35.671 -20.374 -19.575  0.00  0.00    +0.037 C 
ATOM     11  C   UNL     1      33.092 -21.301 -19.062  0.00  0.00    +0.003 C 
ATOM     12  C   UNL     1      34.644 -20.123 -20.486  0.00  0.00    +0.139 C 
ATOM     13  C   UNL     1      33.357 -20.587 -20.229  0.00  0.00    +0.037 C 
BRANCH  12  14
ATOM     14  O   UNL     1      34.901 -19.425 -21.626  0.00  0.00    -0.475 OA
BRANCH  14  15
ATOM     15  C   UNL     1      35.290 -18.060 -21.478  0.00  0.00    +0.205 C 
BRANCH  15  16
ATOM     16  C   UNL     1      34.577 -17.228 -22.535  0.00  0.00    +0.047 C 
BRANCH  16  17
ATOM     17  C   UNL     1      34.529 -15.752 -22.151  0.00  0.00    +0.004 C 
ATOM     18  C   UNL     1      34.134 -14.882 -23.333  0.00  0.00    +0.000 C 
ENDBRANCH  16  17
ENDBRANCH  15  16
ENDBRANCH  14  15
ENDBRANCH  12  14
ENDBRANCH   1   4
BRANCH   1  19
ATOM     19  N   UNL     1      33.106 -22.721 -14.033  0.00  0.00    -0.170 NA
ATOM     20  H   UNL     1      33.083 -21.779 -14.423  0.00  0.00    +0.149 HD
BRANCH  19  21
ATOM     21  C   UNL     1      31.809 -23.352 -14.364  0.00  0.00    +0.174 C 
BRANCH  21  23
ATOM     22  O   UNL     1      30.217 -23.885 -12.604  0.00  0.00    -0.249 OA
ATOM     23  C   UNL     1      31.308 -24.065 -13.131  0.00  0.00    +0.330 C 
BRANCH  23  24
ATOM     24  O   UNL     1      32.209 -24.967 -12.660  0.00  0.00    -0.479 OA
ATOM     25  H   UNL     1      32.949 -25.205 -13.182  0.00  0.00    +0.295 HD
ENDBRANCH  23  24
ENDBRANCH  21  23
BRANCH  21  26
ATOM     26  C   UNL     1      30.839 -22.313 -14.939  0.00  0.00    +0.040 C 
BRANCH  26  27
ATOM     27  C   UNL     1      30.088 -22.712 -16.211  0.00  0.00    +0.111 C 
BRANCH  27  29
ATOM     28  O   UNL     1      27.951 -21.595 -16.358  0.00  0.00    -0.250 OA
ATOM     29  C   UNL     1      28.588 -22.607 -16.094  0.00  0.00    +0.314 C 
BRANCH  29  30
ATOM     30  O   UNL     1      28.014 -23.751 -15.645  0.00  0.00    -0.480 OA
ATOM     31  H   UNL     1      27.134 -23.960 -15.889  0.00  0.00    +0.295 HD
ENDBRANCH  29  30
ENDBRANCH  27  29
ENDBRANCH  26  27
ENDBRANCH  21  26
ENDBRANCH  19  21
ENDBRANCH   1  19
TORSDOF 13
ENDMDL
MODEL 8
REMARK VINA RESULT:     -10.2      4.522     10.239
REMARK  Name = 16122580
REMARK  13 active torsions:
REMARK  status: ('A' for Active; 'I' for Inactive)
REMARK    1  A    between atoms: S_1  and  C_4
REMARK    2  A    between atoms: S_1  and  N_19
REMARK    3  A    between atoms: C_12  and  O_14
REMARK    4  A    between atoms: O_14  and  C_15
REMARK    5  A    between atoms: C_15  and  C_16
REMARK    6  A    between atoms: C_16  and  C_17
REMARK    7  A    between atoms: N_19  and  C_21
REMARK    8  A    between atoms: C_21  and  C_23
REMARK    9  A    between atoms: C_21  and  C_26
REMARK   10  A    between atoms: C_23  and  O_24
REMARK   11  A    between atoms: C_26  and  C_27
REMARK   12  A    between atoms: C_27  and  C_29
REMARK   13  A    between atoms: C_29  and  O_30
REMARK                            x       y       z     vdW  Elec       q    Type
REMARK                         _______ _______ _______ _____ _____    ______ ____
ROOT
ATOM      1  S   UNL     1      35.349 -18.450 -22.264  0.00  0.00    +0.061 S 
ATOM      2  O   UNL     1      36.564 -17.953 -21.648  0.00  0.00    -0.153 OA
ATOM      3  O   UNL     1      35.417 -19.234 -23.482  0.00  0.00    -0.153 OA
ENDROOT
BRANCH   1   4
ATOM      4  C   UNL     1      34.493 -19.430 -21.068  0.00  0.00    +0.122 C 
ATOM      5  C   UNL     1      34.547 -20.898 -19.129  0.00  0.00    +0.002 C 
ATOM      6  C   UNL     1      33.135 -20.988 -19.167  0.00  0.00    +0.003 C 
ATOM      7  C   UNL     1      35.210 -20.115 -20.087  0.00  0.00    +0.020 C 
ATOM      8  C   UNL     1      33.105 -19.519 -21.105  0.00  0.00    +0.020 C 
ATOM      9  C   UNL     1      32.428 -20.293 -20.162  0.00  0.00    +0.001 C 
ATOM     10  C   UNL     1      32.470 -21.772 -18.209  0.00  0.00    +0.037 C 
ATOM     11  C   UNL     1      35.252 -21.595 -18.134  0.00  0.00    +0.003 C 
ATOM     12  C   UNL     1      33.187 -22.456 -17.227  0.00  0.00    +0.139 C 
ATOM     13  C   UNL     1      34.576 -22.368 -17.191  0.00  0.00    +0.037 C 
BRANCH  12  14
ATOM     14  O   UNL     1      32.529 -23.210 -16.305  0.00  0.00    -0.475 OA
BRANCH  14  15
ATOM     15  C   UNL     1      31.163 -22.884 -16.055  0.00  0.00    +0.205 C 
BRANCH  15  16
ATOM     16  C   UNL     1      31.025 -22.411 -14.615  0.00  0.00    +0.047 C 
BRANCH  16  17
ATOM     17  C   UNL     1      31.820 -23.292 -13.655  0.00  0.00    +0.004 C 
ATOM     18  C   UNL     1      31.087 -24.589 -13.354  0.00  0.00    +0.000 C 
ENDBRANCH  16  17
ENDBRANCH  15  16
ENDBRANCH  14  15
ENDBRANCH  12  14
ENDBRANCH   1   4
BRANCH   1  19
ATOM     19  N   UNL     1      34.267 -17.160 -22.499  0.00  0.00    -0.170 NA
ATOM     20  H   UNL     1      34.228 -16.644 -21.620  0.00  0.00    +0.149 HD
BRANCH  19  21
ATOM     21  C   UNL     1      34.524 -16.166 -23.566  0.00  0.00    +0.174 C 
BRANCH  21  23
ATOM     22  O   UNL     1      33.094 -15.551 -25.436  0.00  0.00    -0.249 OA
ATOM     23  C   UNL     1      33.531 -16.409 -24.678  0.00  0.00    +0.330 C 
BRANCH  23  24
ATOM     24  O   UNL     1      33.174 -17.716 -24.769  0.00  0.00    -0.479 OA
ATOM     25  H   UNL     1      32.497 -17.977 -25.362  0.00  0.00    +0.295 HD
ENDBRANCH  23  24
ENDBRANCH  21  23
BRANCH  21  26
ATOM     26  C   UNL     1      34.505 -14.746 -22.991  0.00  0.00    +0.040 C 
BRANCH  26  27
ATOM     27  C   UNL     1      33.203 -14.300 -22.320  0.00  0.00    +0.111 C 
BRANCH  27  29
ATOM     28  O   UNL     1      34.096 -14.957 -20.174  0.00  0.00    -0.250 OA
ATOM     29  C   UNL     1      33.239 -14.361 -20.814  0.00  0.00    +0.314 C 
BRANCH  29  30
ATOM     30  O   UNL     1      32.206 -13.699 -20.236  0.00  0.00    -0.480 OA
ATOM     31  H   UNL     1      32.375 -13.012 -19.621  0.00  0.00    +0.295 HD
ENDBRANCH  29  30
ENDBRANCH  27  29
ENDBRANCH  26  27
ENDBRANCH  21  26
ENDBRANCH  19  21
ENDBRANCH   1  19
TORSDOF 13
ENDMDL
MODEL 9
REMARK VINA RESULT:      -9.9      2.430      3.308
REMARK  Name = 16122580
REMARK  13 active torsions:
REMARK  status: ('A' for Active; 'I' for Inactive)
REMARK    1  A    between atoms: S_1  and  C_4
REMARK    2  A    between atoms: S_1  and  N_19
REMARK    3  A    between atoms: C_12  and  O_14
REMARK    4  A    between atoms: O_14  and  C_15
REMARK    5  A    between atoms: C_15  and  C_16
REMARK    6  A    between atoms: C_16  and  C_17
REMARK    7  A    between atoms: N_19  and  C_21
REMARK    8  A    between atoms: C_21  and  C_23
REMARK    9  A    between atoms: C_21  and  C_26
REMARK   10  A    between atoms: C_23  and  O_24
REMARK   11  A    between atoms: C_26  and  C_27
REMARK   12  A    between atoms: C_27  and  C_29
REMARK   13  A    between atoms: C_29  and  O_30
REMARK                            x       y       z     vdW  Elec       q    Type
REMARK                         _______ _______ _______ _____ _____    ______ ____
ROOT
ATOM      1  S   UNL     1      35.944 -23.104 -14.940  0.00  0.00    +0.061 S 
ATOM      2  O   UNL     1      36.031 -24.518 -15.250  0.00  0.00    -0.153 OA
ATOM      3  O   UNL     1      37.051 -22.430 -14.287  0.00  0.00    -0.153 OA
ENDROOT
BRANCH   1   4
ATOM      4  C   UNL     1      35.629 -22.234 -16.447  0.00  0.00    +0.122 C 
ATOM      5  C   UNL     1      34.072 -21.523 -18.175  0.00  0.00    +0.002 C 
ATOM      6  C   UNL     1      35.127 -20.856 -18.841  0.00  0.00    +0.003 C 
ATOM      7  C   UNL     1      34.340 -22.209 -16.979  0.00  0.00    +0.020 C 
ATOM      8  C   UNL     1      36.667 -21.579 -17.102  0.00  0.00    +0.020 C 
ATOM      9  C   UNL     1      36.419 -20.893 -18.291  0.00  0.00    +0.001 C 
ATOM     10  C   UNL     1      34.860 -20.170 -20.037  0.00  0.00    +0.037 C 
ATOM     11  C   UNL     1      32.781 -21.485 -18.726  0.00  0.00    +0.003 C 
ATOM     12  C   UNL     1      33.571 -20.143 -20.570  0.00  0.00    +0.139 C 
ATOM     13  C   UNL     1      32.533 -20.800 -19.914  0.00  0.00    +0.037 C 
BRANCH  12  14
ATOM     14  O   UNL     1      33.327 -19.473 -21.729  0.00  0.00    -0.475 OA
BRANCH  14  15
ATOM     15  C   UNL     1      34.459 -19.096 -22.512  0.00  0.00    +0.205 C 
BRANCH  15  16
ATOM     16  C   UNL     1      34.363 -17.612 -22.832  0.00  0.00    +0.047 C 
BRANCH  16  17
ATOM     17  C   UNL     1      34.718 -16.750 -21.623  0.00  0.00    +0.004 C 
ATOM     18  C   UNL     1      34.314 -15.301 -21.834  0.00  0.00    +0.000 C 
ENDBRANCH  16  17
ENDBRANCH  15  16
ENDBRANCH  14  15
ENDBRANCH  12  14
ENDBRANCH   1   4
BRANCH   1  19
ATOM     19  N   UNL     1      34.521 -22.805 -14.059  0.00  0.00    -0.170 NA
ATOM     20  H   UNL     1      33.827 -22.469 -14.727  0.00  0.00    +0.149 HD
BRANCH  19  21
ATOM     21  C   UNL     1      33.884 -23.900 -13.294  0.00  0.00    +0.174 C 
BRANCH  21  23
ATOM     22  O   UNL     1      34.486 -23.405 -10.990  0.00  0.00    -0.249 OA
ATOM     23  C   UNL     1      34.649 -24.073 -12.003  0.00  0.00    +0.330 C 
BRANCH  23  24
ATOM     24  O   UNL     1      35.549 -25.089 -12.074  0.00  0.00    -0.479 OA
ATOM     25  H   UNL     1      36.462 -24.900 -12.167  0.00  0.00    +0.295 HD
ENDBRANCH  23  24
ENDBRANCH  21  23
BRANCH  21  26
ATOM     26  C   UNL     1      32.386 -23.627 -13.117  0.00  0.00    +0.040 C 
BRANCH  26  27
ATOM     27  C   UNL     1      31.429 -24.613 -13.792  0.00  0.00    +0.111 C 
BRANCH  27  29
ATOM     28  O   UNL     1      29.040 -24.954 -13.900  0.00  0.00    -0.250 OA
ATOM     29  C   UNL     1      30.012 -24.537 -13.282  0.00  0.00    +0.314 C 
BRANCH  29  30
ATOM     30  O   UNL     1      29.921 -23.939 -12.069  0.00  0.00    -0.480 OA
ATOM     31  H   UNL     1      29.927 -23.004 -12.005  0.00  0.00    +0.295 HD
ENDBRANCH  29  30
ENDBRANCH  27  29
ENDBRANCH  26  27
ENDBRANCH  21  26
ENDBRANCH  19  21
ENDBRANCH   1  19
TORSDOF 13
ENDMDL
