MODEL 1
REMARK VINA RESULT:     -12.9      0.000      0.000
REMARK  Name = 54576693
REMARK  3 active torsions:
REMARK  status: ('A' for Active; 'I' for Inactive)
REMARK    1  A    between atoms: N_2  and  C_19
REMARK    2  A    between atoms: N_4  and  C_14
REMARK    3  A    between atoms: C_19  and  C_24
REMARK                            x       y       z     vdW  Elec       q    Type
REMARK                         _______ _______ _______ _____ _____    ______ ____
ROOT
ATOM      1  O   UNL     1      31.424 -21.629 -18.056  0.00  0.00    -0.252 OA
ATOM      2  N   UNL     1      34.999 -19.589 -20.872  0.00  0.00    +0.392 N 
ATOM      3  N   UNL     1      33.417 -21.296 -19.184  0.00  0.00    -0.268 N 
ATOM      4  N   UNL     1      33.317 -22.764 -17.337  0.00  0.00    -0.266 N 
ATOM      5  C   UNL     1      33.669 -19.161 -20.421  0.00  0.00    -0.055 C 
ATOM      6  C   UNL     1      35.645 -20.404 -19.834  0.00  0.00    -0.055 C 
ATOM      7  C   UNL     1      34.810 -21.642 -19.494  0.00  0.00    +0.072 C 
ATOM      8  C   UNL     1      32.788 -20.374 -20.132  0.00  0.00    +0.072 C 
ATOM      9  C   UNL     1      32.627 -21.878 -18.167  0.00  0.00    +0.308 C 
ATOM     10  H   UNL     1      34.892 -20.157 -21.713  0.00  0.00    -0.079 HD
ATOM     11  H   UNL     1      34.070 -23.248 -17.747  0.00  0.00    +0.156 HD
ENDROOT
BRANCH   4  14
ATOM     12 CL   UNL     1      35.732 -22.968 -15.458  0.00  0.00    -0.081 Cl
ATOM     13  N   UNL     1      31.401 -23.479 -14.267  0.00  0.00    -0.241 NA
ATOM     14  C   UNL     1      33.056 -23.042 -15.973  0.00  0.00    +0.082 C 
ATOM     15  C   UNL     1      34.071 -23.159 -15.029  0.00  0.00    +0.074 C 
ATOM     16  C   UNL     1      31.750 -23.210 -15.544  0.00  0.00    +0.114 C 
ATOM     17  C   UNL     1      33.752 -23.436 -13.704  0.00  0.00    +0.033 C 
ATOM     18  C   UNL     1      32.414 -23.585 -13.377  0.00  0.00    +0.100 C 
ENDBRANCH   4  14
BRANCH   2  19
ATOM     19  C   UNL     1      35.827 -18.431 -21.204  0.00  0.00    -0.050 C 
BRANCH  19  24
ATOM     20  F   UNL     1      31.865 -13.237 -22.969  0.00  0.00    -0.125 F 
ATOM     21  F   UNL     1      33.761 -12.532 -23.805  0.00  0.00    -0.125 F 
ATOM     22  O   UNL     1      33.804 -13.998 -22.075  0.00  0.00    -0.395 OA
ATOM     23  O   UNL     1      33.069 -14.637 -24.284  0.00  0.00    -0.395 OA
ATOM     24  C   UNL     1      35.083 -17.438 -22.057  0.00  0.00    -0.040 C 
ATOM     25  C   UNL     1      34.827 -16.156 -21.565  0.00  0.00    +0.034 C 
ATOM     26  C   UNL     1      34.655 -17.810 -23.344  0.00  0.00    -0.003 C 
ATOM     27  C   UNL     1      34.143 -15.280 -22.383  0.00  0.00    +0.181 C 
ATOM     28  C   UNL     1      33.723 -15.645 -23.645  0.00  0.00    +0.182 C 
ATOM     29  C   UNL     1      33.965 -16.904 -24.154  0.00  0.00    +0.040 C 
ATOM     30  C   UNL     1      33.130 -13.613 -23.282  0.00  0.00    +0.589 C 
ENDBRANCH  19  24
ENDBRANCH   2  19
TORSDOF 3
ENDMDL
MODEL 2
REMARK VINA RESULT:     -12.3      7.627     12.507
REMARK  Name = 54576693
REMARK  3 active torsions:
REMARK  status: ('A' for Active; 'I' for Inactive)
REMARK    1  A    between atoms: N_2  and  C_19
REMARK    2  A    between atoms: N_4  and  C_14
REMARK    3  A    between atoms: C_19  and  C_24
REMARK                            x       y       z     vdW  Elec       q    Type
REMARK                         _______ _______ _______ _____ _____    ______ ____
ROOT
ATOM      1  O   UNL     1      32.385  -7.806 -24.110  0.00  0.00    -0.252 OA
ATOM      2  N   UNL     1      32.131 -12.137 -21.653  0.00  0.00    +0.392 N 
ATOM      3  N   UNL     1      31.587  -9.594 -22.878  0.00  0.00    -0.268 N 
ATOM      4  N   UNL     1      30.531  -7.487 -22.751  0.00  0.00    -0.266 N 
ATOM      5  C   UNL     1      33.200 -11.401 -22.341  0.00  0.00    -0.055 C 
ATOM      6  C   UNL     1      31.200 -11.197 -21.018  0.00  0.00    -0.055 C 
ATOM      7  C   UNL     1      30.571 -10.251 -22.045  0.00  0.00    +0.072 C 
ATOM      8  C   UNL     1      32.612 -10.491 -23.417  0.00  0.00    +0.072 C 
ATOM      9  C   UNL     1      31.565  -8.246 -23.301  0.00  0.00    +0.308 C 
ATOM     10  H   UNL     1      31.619 -12.690 -22.342  0.00  0.00    -0.079 HD
ATOM     11  H   UNL     1      29.703  -7.972 -22.530  0.00  0.00    +0.156 HD
ENDROOT
BRANCH   4  14
ATOM     12 CL   UNL     1      31.459  -6.614 -19.961  0.00  0.00    -0.081 Cl
ATOM     13  N   UNL     1      30.109  -3.860 -23.283  0.00  0.00    -0.241 NA
ATOM     14  C   UNL     1      30.539  -6.098 -22.475  0.00  0.00    +0.082 C 
ATOM     15  C   UNL     1      30.939  -5.584 -21.245  0.00  0.00    +0.074 C 
ATOM     16  C   UNL     1      30.137  -5.201 -23.451  0.00  0.00    +0.114 C 
ATOM     17  C   UNL     1      30.924  -4.210 -21.034  0.00  0.00    +0.033 C 
ATOM     18  C   UNL     1      30.505  -3.398 -22.076  0.00  0.00    +0.100 C 
ENDBRANCH   4  14
BRANCH   2  19
ATOM     19  C   UNL     1      32.694 -13.053 -20.661  0.00  0.00    -0.050 C 
BRANCH  19  24
ATOM     20  F   UNL     1      37.026 -18.161 -21.627  0.00  0.00    -0.125 F 
ATOM     21  F   UNL     1      35.149 -19.286 -21.629  0.00  0.00    -0.125 F 
ATOM     22  O   UNL     1      35.233 -17.300 -20.539  0.00  0.00    -0.395 OA
ATOM     23  O   UNL     1      35.325 -17.450 -22.947  0.00  0.00    -0.395 OA
ATOM     24  C   UNL     1      33.393 -14.219 -21.308  0.00  0.00    -0.040 C 
ATOM     25  C   UNL     1      33.980 -15.204 -20.510  0.00  0.00    +0.034 C 
ATOM     26  C   UNL     1      33.447 -14.306 -22.710  0.00  0.00    -0.003 C 
ATOM     27  C   UNL     1      34.608 -16.254 -21.148  0.00  0.00    +0.181 C 
ATOM     28  C   UNL     1      34.661 -16.340 -22.523  0.00  0.00    +0.182 C 
ATOM     29  C   UNL     1      34.089 -15.380 -23.332  0.00  0.00    +0.040 C 
ATOM     30  C   UNL     1      35.677 -18.038 -21.687  0.00  0.00    +0.589 C 
ENDBRANCH  19  24
ENDBRANCH   2  19
TORSDOF 3
ENDMDL
MODEL 3
REMARK VINA RESULT:     -12.2      5.728     10.605
REMARK  Name = 54576693
REMARK  3 active torsions:
REMARK  status: ('A' for Active; 'I' for Inactive)
REMARK    1  A    between atoms: N_2  and  C_19
REMARK    2  A    between atoms: N_4  and  C_14
REMARK    3  A    between atoms: C_19  and  C_24
REMARK                            x       y       z     vdW  Elec       q    Type
REMARK                         _______ _______ _______ _____ _____    ______ ____
ROOT
ATOM      1  O   UNL     1      36.695 -19.127 -19.594  0.00  0.00    -0.252 OA
ATOM      2  N   UNL     1      34.108 -22.687 -17.249  0.00  0.00    +0.392 N 
ATOM      3  N   UNL     1      35.238 -20.874 -19.173  0.00  0.00    -0.268 N 
ATOM      4  N   UNL     1      34.914 -19.470 -21.043  0.00  0.00    -0.266 N 
ATOM      5  C   UNL     1      35.073 -21.664 -16.827  0.00  0.00    -0.055 C 
ATOM      6  C   UNL     1      33.286 -22.179 -18.354  0.00  0.00    -0.055 C 
ATOM      7  C   UNL     1      34.148 -21.781 -19.556  0.00  0.00    +0.072 C 
ATOM      8  C   UNL     1      35.991 -21.287 -17.987  0.00  0.00    +0.072 C 
ATOM      9  C   UNL     1      35.687 -19.760 -19.916  0.00  0.00    +0.308 C 
ATOM     10  H   UNL     1      34.621 -23.507 -17.574  0.00  0.00    -0.079 HD
ATOM     11  H   UNL     1      34.470 -20.235 -21.476  0.00  0.00    +0.156 HD
ENDROOT
BRANCH   4  14
ATOM     12 CL   UNL     1      34.309 -19.398 -24.049  0.00  0.00    -0.081 Cl
ATOM     13  N   UNL     1      34.576 -15.806 -21.316  0.00  0.00    -0.241 NA
ATOM     14  C   UNL     1      34.698 -18.200 -21.631  0.00  0.00    +0.082 C 
ATOM     15  C   UNL     1      34.416 -18.043 -22.985  0.00  0.00    +0.074 C 
ATOM     16  C   UNL     1      34.766 -17.059 -20.848  0.00  0.00    +0.114 C 
ATOM     17  C   UNL     1      34.215 -16.769 -23.504  0.00  0.00    +0.033 C 
ATOM     18  C   UNL     1      34.304 -15.693 -22.636  0.00  0.00    +0.100 C 
ENDBRANCH   4  14
BRANCH   2  19
ATOM     19  C   UNL     1      33.264 -23.092 -16.125  0.00  0.00    -0.050 C 
BRANCH  19  24
ATOM     20  F   UNL     1      36.309 -23.112 -10.082  0.00  0.00    -0.125 F 
ATOM     21  F   UNL     1      34.944 -24.799  -9.794  0.00  0.00    -0.125 F 
ATOM     22  O   UNL     1      34.405 -23.201 -11.310  0.00  0.00    -0.395 OA
ATOM     23  O   UNL     1      36.233 -24.740 -11.658  0.00  0.00    -0.395 OA
ATOM     24  C   UNL     1      34.082 -23.554 -14.949  0.00  0.00    -0.040 C 
ATOM     25  C   UNL     1      33.776 -23.091 -13.667  0.00  0.00    +0.034 C 
ATOM     26  C   UNL     1      35.147 -24.450 -15.151  0.00  0.00    -0.003 C 
ATOM     27  C   UNL     1      34.553 -23.543 -12.620  0.00  0.00    +0.181 C 
ATOM     28  C   UNL     1      35.596 -24.421 -12.818  0.00  0.00    +0.182 C 
ATOM     29  C   UNL     1      35.918 -24.893 -14.074  0.00  0.00    +0.040 C 
ATOM     30  C   UNL     1      35.471 -23.963 -10.723  0.00  0.00    +0.589 C 
ENDBRANCH  19  24
ENDBRANCH   2  19
TORSDOF 3
ENDMDL
MODEL 4
REMARK VINA RESULT:     -12.0      4.778      9.312
REMARK  Name = 54576693
REMARK  3 active torsions:
REMARK  status: ('A' for Active; 'I' for Inactive)
REMARK    1  A    between atoms: N_2  and  C_19
REMARK    2  A    between atoms: N_4  and  C_14
REMARK    3  A    between atoms: C_19  and  C_24
REMARK                            x       y       z     vdW  Elec       q    Type
REMARK                         _______ _______ _______ _____ _____    ______ ____
ROOT
ATOM      1  O   UNL     1      36.733 -20.839 -17.621  0.00  0.00    -0.252 OA
ATOM      2  N   UNL     1      33.361 -23.293 -14.887  0.00  0.00    +0.392 N 
ATOM      3  N   UNL     1      34.948 -22.177 -17.009  0.00  0.00    -0.268 N 
ATOM      4  N   UNL     1      35.030 -21.200 -19.157  0.00  0.00    -0.266 N 
ATOM      5  C   UNL     1      34.467 -22.376 -14.584  0.00  0.00    -0.055 C 
ATOM      6  C   UNL     1      32.731 -22.919 -16.160  0.00  0.00    -0.055 C 
ATOM      7  C   UNL     1      33.738 -22.953 -17.314  0.00  0.00    +0.072 C 
ATOM      8  C   UNL     1      35.522 -22.431 -15.686  0.00  0.00    +0.072 C 
ATOM      9  C   UNL     1      35.650 -21.351 -17.915  0.00  0.00    +0.308 C 
ATOM     10  H   UNL     1      33.733 -24.239 -14.973  0.00  0.00    -0.079 HD
ATOM     11  H   UNL     1      34.484 -21.958 -19.466  0.00  0.00    +0.156 HD
ENDROOT
BRANCH   4  14
ATOM     12 CL   UNL     1      32.408 -20.237 -20.423  0.00  0.00    -0.081 Cl
ATOM     13  N   UNL     1      36.488 -18.398 -21.063  0.00  0.00    -0.241 NA
ATOM     14  C   UNL     1      35.099 -20.079 -20.019  0.00  0.00    +0.082 C 
ATOM     15  C   UNL     1      33.976 -19.554 -20.650  0.00  0.00    +0.074 C 
ATOM     16  C   UNL     1      36.320 -19.469 -20.257  0.00  0.00    +0.114 C 
ATOM     17  C   UNL     1      34.108 -18.451 -21.488  0.00  0.00    +0.033 C 
ATOM     18  C   UNL     1      35.374 -17.915 -21.659  0.00  0.00    +0.100 C 
ENDBRANCH   4  14
BRANCH   2  19
ATOM     19  C   UNL     1      32.376 -23.286 -13.806  0.00  0.00    -0.050 C 
BRANCH  19  24
ATOM     20  F   UNL     1      26.031 -21.709 -15.549  0.00  0.00    -0.125 F 
ATOM     21  F   UNL     1      26.813 -22.247 -17.520  0.00  0.00    -0.125 F 
ATOM     22  O   UNL     1      28.260 -21.536 -15.925  0.00  0.00    -0.395 OA
ATOM     23  O   UNL     1      27.141 -23.671 -15.787  0.00  0.00    -0.395 OA
ATOM     24  C   UNL     1      30.971 -23.424 -14.327  0.00  0.00    -0.040 C 
ATOM     25  C   UNL     1      30.327 -22.318 -14.888  0.00  0.00    +0.034 C 
ATOM     26  C   UNL     1      30.319 -24.668 -14.247  0.00  0.00    -0.003 C 
ATOM     27  C   UNL     1      29.040 -22.494 -15.353  0.00  0.00    +0.181 C 
ATOM     28  C   UNL     1      28.401 -23.713 -15.274  0.00  0.00    +0.182 C 
ATOM     29  C   UNL     1      29.015 -24.820 -14.725  0.00  0.00    +0.040 C 
ATOM     30  C   UNL     1      27.071 -22.296 -16.190  0.00  0.00    +0.589 C 
ENDBRANCH  19  24
ENDBRANCH   2  19
TORSDOF 3
ENDMDL
MODEL 5
REMARK VINA RESULT:     -12.0      5.498     10.504
REMARK  Name = 54576693
REMARK  3 active torsions:
REMARK  status: ('A' for Active; 'I' for Inactive)
REMARK    1  A    between atoms: N_2  and  C_19
REMARK    2  A    between atoms: N_4  and  C_14
REMARK    3  A    between atoms: C_19  and  C_24
REMARK                            x       y       z     vdW  Elec       q    Type
REMARK                         _______ _______ _______ _____ _____    ______ ____
ROOT
ATOM      1  O   UNL     1      32.471 -12.611 -25.082  0.00  0.00    -0.252 OA
ATOM      2  N   UNL     1      34.470 -16.532 -22.737  0.00  0.00    +0.392 N 
ATOM      3  N   UNL     1      33.083 -14.111 -23.430  0.00  0.00    -0.268 N 
ATOM      4  N   UNL     1      32.533 -11.882 -22.879  0.00  0.00    -0.266 N 
ATOM      5  C   UNL     1      34.488 -16.036 -24.118  0.00  0.00    -0.055 C 
ATOM      6  C   UNL     1      34.441 -15.404 -21.796  0.00  0.00    -0.055 C 
ATOM      7  C   UNL     1      33.213 -14.517 -22.024  0.00  0.00    +0.072 C 
ATOM      8  C   UNL     1      33.244 -15.196 -24.399  0.00  0.00    +0.072 C 
ATOM      9  C   UNL     1      32.686 -12.835 -23.888  0.00  0.00    +0.308 C 
ATOM     10  H   UNL     1      33.627 -17.092 -22.601  0.00  0.00    -0.079 HD
ATOM     11  H   UNL     1      32.260 -12.221 -21.996  0.00  0.00    +0.156 HD
ENDROOT
BRANCH   4  14
ATOM     12 CL   UNL     1      30.277 -10.069 -21.863  0.00  0.00    -0.081 Cl
ATOM     13  N   UNL     1      34.179  -8.677 -23.673  0.00  0.00    -0.241 NA
ATOM     14  C   UNL     1      32.728 -10.483 -22.984  0.00  0.00    +0.082 C 
ATOM     15  C   UNL     1      31.775  -9.563 -22.557  0.00  0.00    +0.074 C 
ATOM     16  C   UNL     1      33.902  -9.991 -23.530  0.00  0.00    +0.114 C 
ATOM     17  C   UNL     1      32.023  -8.201 -22.688  0.00  0.00    +0.033 C 
ATOM     18  C   UNL     1      33.230  -7.813 -23.247  0.00  0.00    +0.100 C 
ENDBRANCH   4  14
BRANCH   2  19
ATOM     19  C   UNL     1      35.630 -17.384 -22.481  0.00  0.00    -0.050 C 
BRANCH  19  24
ATOM     20  F   UNL     1      32.201 -21.237 -18.102  0.00  0.00    -0.125 F 
ATOM     21  F   UNL     1      32.667 -22.751 -19.612  0.00  0.00    -0.125 F 
ATOM     22  O   UNL     1      32.583 -20.572 -20.236  0.00  0.00    -0.395 OA
ATOM     23  O   UNL     1      34.340 -21.439 -18.824  0.00  0.00    -0.395 OA
ATOM     24  C   UNL     1      35.319 -18.472 -21.488  0.00  0.00    -0.040 C 
ATOM     25  C   UNL     1      34.018 -18.971 -21.393  0.00  0.00    +0.034 C 
ATOM     26  C   UNL     1      36.342 -18.977 -20.666  0.00  0.00    -0.003 C 
ATOM     27  C   UNL     1      33.781 -19.968 -20.469  0.00  0.00    +0.181 C 
ATOM     28  C   UNL     1      34.784 -20.463 -19.663  0.00  0.00    +0.182 C 
ATOM     29  C   UNL     1      36.076 -19.987 -19.739  0.00  0.00    +0.040 C 
ATOM     30  C   UNL     1      32.956 -21.492 -19.198  0.00  0.00    +0.589 C 
ENDBRANCH  19  24
ENDBRANCH   2  19
TORSDOF 3
ENDMDL
MODEL 6
REMARK VINA RESULT:     -11.8      8.442     13.701
REMARK  Name = 54576693
REMARK  3 active torsions:
REMARK  status: ('A' for Active; 'I' for Inactive)
REMARK    1  A    between atoms: N_2  and  C_19
REMARK    2  A    between atoms: N_4  and  C_14
REMARK    3  A    between atoms: C_19  and  C_24
REMARK                            x       y       z     vdW  Elec       q    Type
REMARK                         _______ _______ _______ _____ _____    ______ ____
ROOT
ATOM      1  O   UNL     1      30.522  -6.520 -21.719  0.00  0.00    -0.252 OA
ATOM      2  N   UNL     1      32.825 -10.780 -22.906  0.00  0.00    +0.392 N 
ATOM      3  N   UNL     1      32.144  -8.042 -22.353  0.00  0.00    -0.268 N 
ATOM      4  N   UNL     1      32.348  -5.764 -22.935  0.00  0.00    -0.266 N 
ATOM      5  C   UNL     1      31.450 -10.417 -22.541  0.00  0.00    -0.055 C 
ATOM      6  C   UNL     1      33.445  -9.696 -23.678  0.00  0.00    -0.055 C 
ATOM      7  C   UNL     1      33.470  -8.386 -22.885  0.00  0.00    +0.072 C 
ATOM      8  C   UNL     1      31.442  -9.146 -21.694  0.00  0.00    +0.072 C 
ATOM      9  C   UNL     1      31.584  -6.746 -22.302  0.00  0.00    +0.308 C 
ATOM     10  H   UNL     1      33.364 -10.922 -22.051  0.00  0.00    -0.079 HD
ATOM     11  H   UNL     1      33.322  -5.906 -22.942  0.00  0.00    +0.156 HD
ENDROOT
BRANCH   4  14
ATOM     12 CL   UNL     1      32.039  -5.838 -25.986  0.00  0.00    -0.081 Cl
ATOM     13  N   UNL     1      31.131  -2.302 -23.319  0.00  0.00    -0.241 NA
ATOM     14  C   UNL     1      31.878  -4.587 -23.569  0.00  0.00    +0.082 C 
ATOM     15  C   UNL     1      31.699  -4.503 -24.946  0.00  0.00    +0.074 C 
ATOM     16  C   UNL     1      31.582  -3.468 -22.808  0.00  0.00    +0.114 C 
ATOM     17  C   UNL     1      31.236  -3.319 -25.510  0.00  0.00    +0.033 C 
ATOM     18  C   UNL     1      30.969  -2.257 -24.661  0.00  0.00    +0.100 C 
ENDBRANCH   4  14
BRANCH   2  19
ATOM     19  C   UNL     1      32.841 -12.028 -23.668  0.00  0.00    -0.050 C 
BRANCH  19  24
ATOM     20  F   UNL     1      34.256 -18.364 -21.760  0.00  0.00    -0.125 F 
ATOM     21  F   UNL     1      36.285 -17.546 -21.795  0.00  0.00    -0.125 F 
ATOM     22  O   UNL     1      34.694 -16.581 -23.090  0.00  0.00    -0.395 OA
ATOM     23  O   UNL     1      34.668 -16.413 -20.682  0.00  0.00    -0.395 OA
ATOM     24  C   UNL     1      33.323 -13.186 -22.836  0.00  0.00    -0.040 C 
ATOM     25  C   UNL     1      33.783 -14.346 -23.463  0.00  0.00    +0.034 C 
ATOM     26  C   UNL     1      33.308 -13.088 -21.433  0.00  0.00    -0.003 C 
ATOM     27  C   UNL     1      34.216 -15.381 -22.659  0.00  0.00    +0.181 C 
ATOM     28  C   UNL     1      34.201 -15.285 -21.284  0.00  0.00    +0.182 C 
ATOM     29  C   UNL     1      33.752 -14.150 -20.641  0.00  0.00    +0.040 C 
ATOM     30  C   UNL     1      34.971 -17.214 -21.832  0.00  0.00    +0.589 C 
ENDBRANCH  19  24
ENDBRANCH   2  19
TORSDOF 3
ENDMDL
MODEL 7
REMARK VINA RESULT:     -11.8      5.675     10.519
REMARK  Name = 54576693
REMARK  3 active torsions:
REMARK  status: ('A' for Active; 'I' for Inactive)
REMARK    1  A    between atoms: N_2  and  C_19
REMARK    2  A    between atoms: N_4  and  C_14
REMARK    3  A    between atoms: C_19  and  C_24
REMARK                            x       y       z     vdW  Elec       q    Type
REMARK                         _______ _______ _______ _____ _____    ______ ____
ROOT
ATOM      1  O   UNL     1      36.442 -19.348 -20.047  0.00  0.00    -0.252 OA
ATOM      2  N   UNL     1      33.534 -22.486 -17.486  0.00  0.00    +0.392 N 
ATOM      3  N   UNL     1      34.753 -20.830 -19.494  0.00  0.00    -0.268 N 
ATOM      4  N   UNL     1      34.485 -19.325 -21.294  0.00  0.00    -0.266 N 
ATOM      5  C   UNL     1      34.703 -21.661 -17.158  0.00  0.00    -0.055 C 
ATOM      6  C   UNL     1      32.701 -21.804 -18.485  0.00  0.00    -0.055 C 
ATOM      7  C   UNL     1      33.486 -21.520 -19.769  0.00  0.00    +0.072 C 
ATOM      8  C   UNL     1      35.544 -21.409 -18.407  0.00  0.00    +0.072 C 
ATOM      9  C   UNL     1      35.310 -19.784 -20.265  0.00  0.00    +0.308 C 
ATOM     10  H   UNL     1      33.856 -23.371 -17.879  0.00  0.00    -0.079 HD
ATOM     11  H   UNL     1      33.869 -19.985 -21.687  0.00  0.00    +0.156 HD
ENDROOT
BRANCH   4  14
ATOM     12 CL   UNL     1      34.008 -19.068 -24.312  0.00  0.00    -0.081 Cl
ATOM     13  N   UNL     1      34.569 -15.639 -21.421  0.00  0.00    -0.241 NA
ATOM     14  C   UNL     1      34.435 -18.017 -21.834  0.00  0.00    +0.082 C 
ATOM     15  C   UNL     1      34.224 -17.777 -23.188  0.00  0.00    +0.074 C 
ATOM     16  C   UNL     1      34.600 -16.922 -21.000  0.00  0.00    +0.114 C 
ATOM     17  C   UNL     1      34.187 -16.469 -23.659  0.00  0.00    +0.033 C 
ATOM     18  C   UNL     1      34.362 -15.444 -22.743  0.00  0.00    +0.100 C 
ENDBRANCH   4  14
BRANCH   2  19
ATOM     19  C   UNL     1      32.757 -22.778 -16.282  0.00  0.00    -0.050 C 
BRANCH  19  24
ATOM     20  F   UNL     1      36.905 -26.910 -12.891  0.00  0.00    -0.125 F 
ATOM     21  F   UNL     1      38.184 -25.138 -12.997  0.00  0.00    -0.125 F 
ATOM     22  O   UNL     1      36.574 -25.421 -14.568  0.00  0.00    -0.395 OA
ATOM     23  O   UNL     1      36.050 -24.905 -12.268  0.00  0.00    -0.395 OA
ATOM     24  C   UNL     1      33.619 -23.333 -15.180  0.00  0.00    -0.040 C 
ATOM     25  C   UNL     1      34.715 -24.139 -15.497  0.00  0.00    +0.034 C 
ATOM     26  C   UNL     1      33.314 -23.032 -13.840  0.00  0.00    -0.003 C 
ATOM     27  C   UNL     1      35.476 -24.624 -14.453  0.00  0.00    +0.181 C 
ATOM     28  C   UNL     1      35.177 -24.329 -13.140  0.00  0.00    +0.182 C 
ATOM     29  C   UNL     1      34.101 -23.535 -12.801  0.00  0.00    +0.040 C 
ATOM     30  C   UNL     1      36.918 -25.587 -13.184  0.00  0.00    +0.589 C 
ENDBRANCH  19  24
ENDBRANCH   2  19
TORSDOF 3
ENDMDL
MODEL 8
REMARK VINA RESULT:     -11.6      5.791     10.359
REMARK  Name = 54576693
REMARK  3 active torsions:
REMARK  status: ('A' for Active; 'I' for Inactive)
REMARK    1  A    between atoms: N_2  and  C_19
REMARK    2  A    between atoms: N_4  and  C_14
REMARK    3  A    between atoms: C_19  and  C_24
REMARK                            x       y       z     vdW  Elec       q    Type
REMARK                         _______ _______ _______ _____ _____    ______ ____
ROOT
ATOM      1  O   UNL     1      36.642 -18.962 -20.905  0.00  0.00    -0.252 OA
ATOM      2  N   UNL     1      34.362 -22.090 -17.762  0.00  0.00    +0.392 N 
ATOM      3  N   UNL     1      35.078 -20.380 -19.959  0.00  0.00    -0.268 N 
ATOM      4  N   UNL     1      34.419 -18.753 -21.537  0.00  0.00    -0.266 N 
ATOM      5  C   UNL     1      35.632 -21.354 -17.746  0.00  0.00    -0.055 C 
ATOM      6  C   UNL     1      33.331 -21.302 -18.449  0.00  0.00    -0.055 C 
ATOM      7  C   UNL     1      33.739 -20.981 -19.890  0.00  0.00    +0.072 C 
ATOM      8  C   UNL     1      36.101 -21.070 -19.171  0.00  0.00    +0.072 C 
ATOM      9  C   UNL     1      35.467 -19.321 -20.810  0.00  0.00    +0.308 C 
ATOM     10  H   UNL     1      34.497 -22.965 -18.270  0.00  0.00    -0.079 HD
ATOM     11  H   UNL     1      33.672 -19.352 -21.767  0.00  0.00    +0.156 HD
ENDROOT
BRANCH   4  14
ATOM     12 CL   UNL     1      33.857 -18.301 -24.518  0.00  0.00    -0.081 Cl
ATOM     13  N   UNL     1      34.375 -15.066 -21.402  0.00  0.00    -0.241 NA
ATOM     14  C   UNL     1      34.311 -17.412 -21.981  0.00  0.00    +0.082 C 
ATOM     15  C   UNL     1      34.058 -17.085 -23.310  0.00  0.00    +0.074 C 
ATOM     16  C   UNL     1      34.459 -16.374 -21.076  0.00  0.00    +0.114 C 
ATOM     17  C   UNL     1      33.964 -15.749 -23.685  0.00  0.00    +0.033 C 
ATOM     18  C   UNL     1      34.128 -14.786 -22.702  0.00  0.00    +0.100 C 
ENDBRANCH   4  14
BRANCH   2  19
ATOM     19  C   UNL     1      33.939 -22.414 -16.400  0.00  0.00    -0.050 C 
BRANCH  19  24
ATOM     20  F   UNL     1      39.839 -25.201 -14.608  0.00  0.00    -0.125 F 
ATOM     21  F   UNL     1      39.273 -24.312 -12.690  0.00  0.00    -0.125 F 
ATOM     22  O   UNL     1      38.438 -23.417 -14.599  0.00  0.00    -0.395 OA
ATOM     23  O   UNL     1      37.759 -25.590 -13.793  0.00  0.00    -0.395 OA
ATOM     24  C   UNL     1      34.939 -23.293 -15.697  0.00  0.00    -0.040 C 
ATOM     25  C   UNL     1      36.249 -22.843 -15.515  0.00  0.00    +0.034 C 
ATOM     26  C   UNL     1      34.543 -24.557 -15.227  0.00  0.00    -0.003 C 
ATOM     27  C   UNL     1      37.129 -23.683 -14.864  0.00  0.00    +0.181 C 
ATOM     28  C   UNL     1      36.742 -24.923 -14.404  0.00  0.00    +0.182 C 
ATOM     29  C   UNL     1      35.454 -25.389 -14.570  0.00  0.00    +0.040 C 
ATOM     30  C   UNL     1      38.815 -24.628 -13.927  0.00  0.00    +0.589 C 
ENDBRANCH  19  24
ENDBRANCH   2  19
TORSDOF 3
ENDMDL
MODEL 9
REMARK VINA RESULT:     -11.4      2.865      3.669
REMARK  Name = 54576693
REMARK  3 active torsions:
REMARK  status: ('A' for Active; 'I' for Inactive)
REMARK    1  A    between atoms: N_2  and  C_19
REMARK    2  A    between atoms: N_4  and  C_14
REMARK    3  A    between atoms: C_19  and  C_24
REMARK                            x       y       z     vdW  Elec       q    Type
REMARK                         _______ _______ _______ _____ _____    ______ ____
ROOT
ATOM      1  O   UNL     1      37.513 -22.092 -15.546  0.00  0.00    -0.252 OA
ATOM      2  N   UNL     1      34.720 -20.683 -19.430  0.00  0.00    +0.392 N 
ATOM      3  N   UNL     1      35.693 -21.672 -16.912  0.00  0.00    -0.268 N 
ATOM      4  N   UNL     1      35.557 -23.293 -15.201  0.00  0.00    -0.266 N 
ATOM      5  C   UNL     1      36.162 -20.720 -19.154  0.00  0.00    -0.055 C 
ATOM      6  C   UNL     1      34.052 -21.815 -18.775  0.00  0.00    -0.055 C 
ATOM      7  C   UNL     1      34.270 -21.794 -17.259  0.00  0.00    +0.072 C 
ATOM      8  C   UNL     1      36.418 -20.637 -17.651  0.00  0.00    +0.072 C 
ATOM      9  C   UNL     1      36.348 -22.349 -15.858  0.00  0.00    +0.308 C 
ATOM     10  H   UNL     1      34.336 -19.816 -19.053  0.00  0.00    -0.079 HD
ATOM     11  H   UNL     1      34.590 -23.110 -15.175  0.00  0.00    +0.156 HD
ENDROOT
BRANCH   4  14
ATOM     12 CL   UNL     1      36.584 -23.063 -12.320  0.00  0.00    -0.081 Cl
ATOM     13  N   UNL     1      36.328 -26.872 -14.743  0.00  0.00    -0.241 NA
ATOM     14  C   UNL     1      35.990 -24.485 -14.569  0.00  0.00    +0.082 C 
ATOM     15  C   UNL     1      36.476 -24.503 -13.266  0.00  0.00    +0.074 C 
ATOM     16  C   UNL     1      35.938 -25.686 -15.258  0.00  0.00    +0.114 C 
ATOM     17  C   UNL     1      36.888 -25.705 -12.701  0.00  0.00    +0.033 C 
ATOM     18  C   UNL     1      36.795 -26.851 -13.474  0.00  0.00    +0.100 C 
ENDBRANCH   4  14
BRANCH   2  19
ATOM     19  C   UNL     1      34.472 -20.704 -20.871  0.00  0.00    -0.050 C 
BRANCH  19  24
ATOM     20  F   UNL     1      34.790 -15.701 -25.416  0.00  0.00    -0.125 F 
ATOM     21  F   UNL     1      32.748 -15.390 -24.693  0.00  0.00    -0.125 F 
ATOM     22  O   UNL     1      33.668 -17.455 -24.517  0.00  0.00    -0.395 OA
ATOM     23  O   UNL     1      34.425 -15.591 -23.181  0.00  0.00    -0.395 OA
ATOM     24  C   UNL     1      34.473 -19.318 -21.459  0.00  0.00    -0.040 C 
ATOM     25  C   UNL     1      34.036 -19.123 -22.771  0.00  0.00    +0.034 C 
ATOM     26  C   UNL     1      34.914 -18.233 -20.681  0.00  0.00    -0.003 C 
ATOM     27  C   UNL     1      34.055 -17.835 -23.267  0.00  0.00    +0.181 C 
ATOM     28  C   UNL     1      34.487 -16.771 -22.505  0.00  0.00    +0.182 C 
ATOM     29  C   UNL     1      34.923 -16.939 -21.207  0.00  0.00    +0.040 C 
ATOM     30  C   UNL     1      33.910 -16.042 -24.441  0.00  0.00    +0.589 C 
ENDBRANCH  19  24
ENDBRANCH   2  19
TORSDOF 3
ENDMDL
